MODEL 1
REMARK VINA RESULT:      -8.9      0.000      0.000
REMARK  7 active torsions:
REMARK  status: ('A' for Active; 'I' for Inactive)
REMARK    1  A    between atoms: C_2  and  C_3 
REMARK    2  A    between atoms: C_3  and  O_4 
REMARK    3  A    between atoms: O_4  and  C_5 
REMARK    4  A    between atoms: C_8  and  C_9 
REMARK    5  A    between atoms: C_15  and  C_16 
REMARK    6  A    between atoms: C_19  and  N_20 
REMARK       I    between atoms: N_20  and  C_21 
REMARK    7  A    between atoms: C_29  and  N_30 
ROOT
HETATM    1  C   UNL     1      -8.674   1.260 -32.703  1.00  0.00     0.072 A 
HETATM    2  N   UNL     1      -9.877   1.123 -33.363  1.00  0.00    -0.274 N 
HETATM    3  H   UNL     1     -10.128   0.417 -34.047  1.00  0.00     0.189 HD
HETATM    4  N   UNL     1     -10.798   2.051 -33.036  1.00  0.00    -0.148 NA
HETATM    5  C   UNL     1     -10.154   2.781 -32.136  1.00  0.00     0.199 A 
HETATM    6  C   UNL     1      -8.848   2.357 -31.873  1.00  0.00     0.040 A 
HETATM    7  C   UNL     1      -8.006   3.087 -30.886  1.00  0.00     0.106 A 
HETATM    8  C   UNL     1      -8.756   4.273 -30.290  1.00  0.00     0.081 A 
HETATM    9  C   UNL     1      -8.071   5.024 -29.290  1.00  0.00     0.100 C 
HETATM   10  N   UNL     1      -7.509   5.631 -28.475  1.00  0.00    -0.191 NA
HETATM   11  C   UNL     1     -10.032   4.588 -30.634  1.00  0.00     0.140 A 
HETATM   12  O   UNL     1     -10.757   3.844 -31.575  1.00  0.00    -0.277 OA
ENDROOT
BRANCH   7  13
HETATM   13  C   UNL     1      -6.722   3.487 -31.601  1.00  0.00    -0.044 A 
HETATM   14  C   UNL     1      -6.712   4.288 -32.754  1.00  0.00     0.010 A 
HETATM   15  C   UNL     1      -5.507   4.640 -33.377  1.00  0.00     0.030 A 
HETATM   16  C   UNL     1      -4.286   4.215 -32.853  1.00  0.00     0.034 A 
HETATM   17  C   UNL     1      -4.288   3.434 -31.693  1.00  0.00     0.030 A 
HETATM   18  C   UNL     1      -5.488   3.078 -31.072  1.00  0.00     0.010 A 
BRANCH  16  19
HETATM   19  N   UNL     1      -3.031   4.523 -33.416  1.00  0.00    -0.328 N 
HETATM   20  C   UNL     1      -2.777   5.180 -34.607  1.00  0.00     0.218 C 
HETATM   21  C   UNL     1      -1.299   5.337 -34.862  1.00  0.00     0.117 C 
HETATM   22  O   UNL     1      -3.601   5.627 -35.394  1.00  0.00    -0.274 OA
HETATM   23  H   UNL     1      -2.225   4.227 -32.880  1.00  0.00     0.169 HD
ENDBRANCH  16  19
ENDBRANCH   7  13
BRANCH  11  24
HETATM   24  N   UNL     1     -10.758   5.640 -30.120  1.00  0.00    -0.282 NA
HETATM   25  H   UNL     1     -11.721   5.710 -30.441  1.00  0.00     0.126 HD
HETATM   26  H   UNL     1     -10.675   5.696 -29.107  1.00  0.00     0.126 HD
ENDBRANCH  11  24
BRANCH   1  27
HETATM   27  C   UNL     1      -7.529   0.395 -32.964  1.00  0.00    -0.007 A 
HETATM   28  C   UNL     1      -6.761  -0.098 -31.901  1.00  0.00     0.016 A 
HETATM   29  C   UNL     1      -5.688  -0.967 -32.131  1.00  0.00     0.037 A 
HETATM   30  C   UNL     1      -5.372  -1.361 -33.430  1.00  0.00     0.068 A 
HETATM   31  C   UNL     1      -6.127  -0.861 -34.494  1.00  0.00     0.037 A 
HETATM   32  C   UNL     1      -7.196   0.012 -34.266  1.00  0.00     0.016 A 
BRANCH  30  33
HETATM   33  O   UNL     1      -4.373  -2.222 -33.788  1.00  0.00    -0.351 OA
BRANCH  33  34
HETATM   34  C   UNL     1      -4.582  -3.004 -34.965  1.00  0.00     0.175 C 
BRANCH  34  35
HETATM   35  C   UNL     1      -5.204  -4.332 -34.545  1.00  0.00     0.022 C 
HETATM   36  C   UNL     1      -6.583  -4.524 -35.150  1.00  0.00     0.007 C 
ENDBRANCH  34  35
ENDBRANCH  33  34
ENDBRANCH  30  33
ENDBRANCH   1  27
TORSDOF 7
ENDMDL
MODEL 2
REMARK VINA RESULT:      -8.8      0.803      1.171
REMARK  7 active torsions:
REMARK  status: ('A' for Active; 'I' for Inactive)
REMARK    1  A    between atoms: C_2  and  C_3 
REMARK    2  A    between atoms: C_3  and  O_4 
REMARK    3  A    between atoms: O_4  and  C_5 
REMARK    4  A    between atoms: C_8  and  C_9 
REMARK    5  A    between atoms: C_15  and  C_16 
REMARK    6  A    between atoms: C_19  and  N_20 
REMARK       I    between atoms: N_20  and  C_21 
REMARK    7  A    between atoms: C_29  and  N_30 
ROOT
HETATM    1  C   UNL     1      -9.261   1.338 -33.018  1.00  0.00     0.072 A 
HETATM    2  N   UNL     1     -10.486   1.194 -33.638  1.00  0.00    -0.274 N 
HETATM    3  H   UNL     1     -10.758   0.482 -34.307  1.00  0.00     0.189 HD
HETATM    4  N   UNL     1     -11.396   2.125 -33.290  1.00  0.00    -0.148 NA
HETATM    5  C   UNL     1     -10.724   2.864 -32.418  1.00  0.00     0.199 A 
HETATM    6  C   UNL     1      -9.410   2.442 -32.193  1.00  0.00     0.040 A 
HETATM    7  C   UNL     1      -8.537   3.183 -31.241  1.00  0.00     0.106 A 
HETATM    8  C   UNL     1      -9.268   4.374 -30.632  1.00  0.00     0.081 A 
HETATM    9  C   UNL     1      -8.552   5.134 -29.662  1.00  0.00     0.100 C 
HETATM   10  N   UNL     1      -7.964   5.749 -28.872  1.00  0.00    -0.191 NA
HETATM   11  C   UNL     1     -10.555   4.684 -30.938  1.00  0.00     0.140 A 
HETATM   12  O   UNL     1     -11.309   3.932 -31.848  1.00  0.00    -0.277 OA
ENDROOT
BRANCH   7  13
HETATM   13  C   UNL     1      -7.277   3.577 -32.001  1.00  0.00    -0.044 A 
HETATM   14  C   UNL     1      -7.308   4.318 -33.193  1.00  0.00     0.010 A 
HETATM   15  C   UNL     1      -6.125   4.667 -33.857  1.00  0.00     0.030 A 
HETATM   16  C   UNL     1      -4.884   4.298 -33.337  1.00  0.00     0.034 A 
HETATM   17  C   UNL     1      -4.844   3.578 -32.139  1.00  0.00     0.030 A 
HETATM   18  C   UNL     1      -6.023   3.224 -31.477  1.00  0.00     0.010 A 
BRANCH  16  19
HETATM   19  N   UNL     1      -3.648   4.608 -33.939  1.00  0.00    -0.328 N 
HETATM   20  C   UNL     1      -2.873   5.737 -33.746  1.00  0.00     0.218 C 
HETATM   21  C   UNL     1      -1.603   5.698 -34.560  1.00  0.00     0.117 C 
HETATM   22  O   UNL     1      -3.113   6.680 -33.002  1.00  0.00    -0.274 OA
HETATM   23  H   UNL     1      -3.291   3.918 -34.588  1.00  0.00     0.169 HD
ENDBRANCH  16  19
ENDBRANCH   7  13
BRANCH  11  24
HETATM   24  N   UNL     1     -11.265   5.741 -30.410  1.00  0.00    -0.282 NA
HETATM   25  H   UNL     1     -11.784   6.302 -31.082  1.00  0.00     0.126 HD
HETATM   26  H   UNL     1     -11.830   5.456 -29.613  1.00  0.00     0.126 HD
ENDBRANCH  11  24
BRANCH   1  27
HETATM   27  C   UNL     1      -8.125   0.471 -33.307  1.00  0.00    -0.007 A 
HETATM   28  C   UNL     1      -7.791   0.165 -34.633  1.00  0.00     0.016 A 
HETATM   29  C   UNL     1      -6.676  -0.629 -34.928  1.00  0.00     0.037 A 
HETATM   30  C   UNL     1      -5.875  -1.122 -33.900  1.00  0.00     0.068 A 
HETATM   31  C   UNL     1      -6.213  -0.831 -32.577  1.00  0.00     0.037 A 
HETATM   32  C   UNL     1      -7.331  -0.044 -32.279  1.00  0.00     0.016 A 
BRANCH  30  33
HETATM   33  O   UNL     1      -4.749  -1.881 -34.053  1.00  0.00    -0.351 OA
BRANCH  33  34
HETATM   34  C   UNL     1      -4.765  -2.860 -35.093  1.00  0.00     0.175 C 
BRANCH  34  35
HETATM   35  C   UNL     1      -5.427  -4.121 -34.545  1.00  0.00     0.022 C 
HETATM   36  C   UNL     1      -6.673  -4.488 -35.331  1.00  0.00     0.007 C 
ENDBRANCH  34  35
ENDBRANCH  33  34
ENDBRANCH  30  33
ENDBRANCH   1  27
TORSDOF 7
ENDMDL
MODEL 3
REMARK VINA RESULT:      -8.6      1.246      1.554
REMARK  7 active torsions:
REMARK  status: ('A' for Active; 'I' for Inactive)
REMARK    1  A    between atoms: C_2  and  C_3 
REMARK    2  A    between atoms: C_3  and  O_4 
REMARK    3  A    between atoms: O_4  and  C_5 
REMARK    4  A    between atoms: C_8  and  C_9 
REMARK    5  A    between atoms: C_15  and  C_16 
REMARK    6  A    between atoms: C_19  and  N_20 
REMARK       I    between atoms: N_20  and  C_21 
REMARK    7  A    between atoms: C_29  and  N_30 
ROOT
HETATM    1  C   UNL     1      -8.596   2.511 -31.452  1.00  0.00     0.072 A 
HETATM    2  N   UNL     1      -9.912   2.611 -31.856  1.00  0.00    -0.274 N 
HETATM    3  H   UNL     1     -10.409   1.998 -32.493  1.00  0.00     0.189 HD
HETATM    4  N   UNL     1     -10.578   3.655 -31.324  1.00  0.00    -0.148 NA
HETATM    5  C   UNL     1      -9.654   4.215 -30.555  1.00  0.00     0.199 A 
HETATM    6  C   UNL     1      -8.414   3.569 -30.575  1.00  0.00     0.040 A 
HETATM    7  C   UNL     1      -7.282   4.092 -29.761  1.00  0.00     0.106 A 
HETATM    8  C   UNL     1      -7.687   5.346 -28.993  1.00  0.00     0.081 A 
HETATM    9  C   UNL     1      -6.701   5.914 -28.135  1.00  0.00     0.100 C 
HETATM   10  N   UNL     1      -5.894   6.371 -27.436  1.00  0.00    -0.191 NA
HETATM   11  C   UNL     1      -8.933   5.883 -29.062  1.00  0.00     0.140 A 
HETATM   12  O   UNL     1      -9.944   5.326 -29.855  1.00  0.00    -0.277 OA
ENDROOT
BRANCH   7  13
HETATM   13  C   UNL     1      -6.115   4.321 -30.712  1.00  0.00    -0.044 A 
HETATM   14  C   UNL     1      -6.110   5.339 -31.679  1.00  0.00     0.010 A 
HETATM   15  C   UNL     1      -5.011   5.521 -32.529  1.00  0.00     0.030 A 
HETATM   16  C   UNL     1      -3.887   4.702 -32.422  1.00  0.00     0.034 A 
HETATM   17  C   UNL     1      -3.877   3.699 -31.447  1.00  0.00     0.030 A 
HETATM   18  C   UNL     1      -4.973   3.513 -30.600  1.00  0.00     0.010 A 
BRANCH  16  19
HETATM   19  N   UNL     1      -2.742   4.816 -33.235  1.00  0.00    -0.328 N 
HETATM   20  C   UNL     1      -2.685   5.176 -34.569  1.00  0.00     0.218 C 
HETATM   21  C   UNL     1      -1.270   5.202 -35.090  1.00  0.00     0.117 C 
HETATM   22  O   UNL     1      -3.626   5.475 -35.295  1.00  0.00    -0.274 OA
HETATM   23  H   UNL     1      -1.860   4.609 -32.784  1.00  0.00     0.169 HD
ENDBRANCH  16  19
ENDBRANCH   7  13
BRANCH  11  24
HETATM   24  N   UNL     1      -9.353   7.007 -28.383  1.00  0.00    -0.282 NA
HETATM   25  H   UNL     1      -8.615   7.573 -27.970  1.00  0.00     0.126 HD
HETATM   26  H   UNL     1     -10.011   7.556 -28.932  1.00  0.00     0.126 HD
ENDBRANCH  11  24
BRANCH   1  27
HETATM   27  C   UNL     1      -7.691   1.489 -31.963  1.00  0.00    -0.007 A 
HETATM   28  C   UNL     1      -7.086   0.580 -31.085  1.00  0.00     0.016 A 
HETATM   29  C   UNL     1      -6.250  -0.436 -31.565  1.00  0.00     0.037 A 
HETATM   30  C   UNL     1      -6.014  -0.561 -32.932  1.00  0.00     0.068 A 
HETATM   31  C   UNL     1      -6.604   0.352 -33.810  1.00  0.00     0.037 A 
HETATM   32  C   UNL     1      -7.434   1.371 -33.331  1.00  0.00     0.016 A 
BRANCH  30  33
HETATM   33  O   UNL     1      -5.246  -1.520 -33.530  1.00  0.00    -0.351 OA
BRANCH  33  34
HETATM   34  C   UNL     1      -5.766  -2.118 -34.719  1.00  0.00     0.175 C 
BRANCH  34  35
HETATM   35  C   UNL     1      -5.395  -3.598 -34.705  1.00  0.00     0.022 C 
HETATM   36  C   UNL     1      -6.540  -4.469 -35.192  1.00  0.00     0.007 C 
ENDBRANCH  34  35
ENDBRANCH  33  34
ENDBRANCH  30  33
ENDBRANCH   1  27
TORSDOF 7
ENDMDL
MODEL 4
REMARK VINA RESULT:      -8.0     16.442     19.842
REMARK  7 active torsions:
REMARK  status: ('A' for Active; 'I' for Inactive)
REMARK    1  A    between atoms: C_2  and  C_3 
REMARK    2  A    between atoms: C_3  and  O_4 
REMARK    3  A    between atoms: O_4  and  C_5 
REMARK    4  A    between atoms: C_8  and  C_9 
REMARK    5  A    between atoms: C_15  and  C_16 
REMARK    6  A    between atoms: C_19  and  N_20 
REMARK       I    between atoms: N_20  and  C_21 
REMARK    7  A    between atoms: C_29  and  N_30 
ROOT
HETATM    1  C   UNL     1      -3.767 -12.694 -39.003  1.00  0.00     0.072 A 
HETATM    2  N   UNL     1      -3.018 -11.602 -38.614  1.00  0.00    -0.274 N 
HETATM    3  H   UNL     1      -3.341 -10.651 -38.478  1.00  0.00     0.189 HD
HETATM    4  N   UNL     1      -1.715 -11.871 -38.403  1.00  0.00    -0.148 NA
HETATM    5  C   UNL     1      -1.651 -13.171 -38.655  1.00  0.00     0.199 A 
HETATM    6  C   UNL     1      -2.869 -13.750 -39.023  1.00  0.00     0.040 A 
HETATM    7  C   UNL     1      -2.944 -15.204 -39.340  1.00  0.00     0.106 A 
HETATM    8  C   UNL     1      -1.577 -15.868 -39.213  1.00  0.00     0.081 A 
HETATM    9  C   UNL     1      -1.528 -17.274 -39.441  1.00  0.00     0.100 C 
HETATM   10  N   UNL     1      -1.495 -18.420 -39.627  1.00  0.00    -0.191 NA
HETATM   11  C   UNL     1      -0.458 -15.189 -38.848  1.00  0.00     0.140 A 
HETATM   12  O   UNL     1      -0.475 -13.817 -38.566  1.00  0.00    -0.277 OA
ENDROOT
BRANCH   7  13
HETATM   13  C   UNL     1      -3.545 -15.328 -40.734  1.00  0.00    -0.044 A 
HETATM   14  C   UNL     1      -2.903 -14.845 -41.885  1.00  0.00     0.010 A 
HETATM   15  C   UNL     1      -3.487 -14.988 -43.151  1.00  0.00     0.030 A 
HETATM   16  C   UNL     1      -4.716 -15.631 -43.296  1.00  0.00     0.034 A 
HETATM   17  C   UNL     1      -5.351 -16.134 -42.156  1.00  0.00     0.030 A 
HETATM   18  C   UNL     1      -4.773 -15.989 -40.892  1.00  0.00     0.010 A 
BRANCH  16  19
HETATM   19  N   UNL     1      -5.373 -15.818 -44.530  1.00  0.00    -0.328 N 
HETATM   20  C   UNL     1      -5.104 -16.771 -45.495  1.00  0.00     0.218 C 
HETATM   21  C   UNL     1      -6.037 -16.661 -46.675  1.00  0.00     0.117 C 
HETATM   22  O   UNL     1      -4.246 -17.645 -45.452  1.00  0.00    -0.274 OA
HETATM   23  H   UNL     1      -6.129 -15.174 -44.726  1.00  0.00     0.169 HD
ENDBRANCH  16  19
ENDBRANCH   7  13
BRANCH  11  24
HETATM   24  N   UNL     1       0.797 -15.742 -38.709  1.00  0.00    -0.282 NA
HETATM   25  H   UNL     1       1.465 -15.189 -38.177  1.00  0.00     0.126 HD
HETATM   26  H   UNL     1       0.750 -16.710 -38.398  1.00  0.00     0.126 HD
ENDBRANCH  11  24
BRANCH   1  27
HETATM   27  C   UNL     1      -5.182 -12.599 -39.340  1.00  0.00    -0.007 A 
HETATM   28  C   UNL     1      -6.156 -12.730 -38.342  1.00  0.00     0.016 A 
HETATM   29  C   UNL     1      -7.517 -12.596 -38.642  1.00  0.00     0.037 A 
HETATM   30  C   UNL     1      -7.922 -12.320 -39.946  1.00  0.00     0.068 A 
HETATM   31  C   UNL     1      -6.956 -12.203 -40.948  1.00  0.00     0.037 A 
HETATM   32  C   UNL     1      -5.596 -12.343 -40.651  1.00  0.00     0.016 A 
BRANCH  30  33
HETATM   33  O   UNL     1      -9.211 -12.138 -40.365  1.00  0.00    -0.351 OA
BRANCH  33  34
HETATM   34  C   UNL     1     -10.233 -12.802 -39.621  1.00  0.00     0.175 C 
BRANCH  34  35
HETATM   35  C   UNL     1     -10.838 -13.884 -40.511  1.00  0.00     0.022 C 
HETATM   36  C   UNL     1     -10.182 -15.234 -40.281  1.00  0.00     0.007 C 
ENDBRANCH  34  35
ENDBRANCH  33  34
ENDBRANCH  30  33
ENDBRANCH   1  27
TORSDOF 7
ENDMDL
MODEL 5
REMARK VINA RESULT:      -7.9      2.987      6.286
REMARK  7 active torsions:
REMARK  status: ('A' for Active; 'I' for Inactive)
REMARK    1  A    between atoms: C_2  and  C_3 
REMARK    2  A    between atoms: C_3  and  O_4 
REMARK    3  A    between atoms: O_4  and  C_5 
REMARK    4  A    between atoms: C_8  and  C_9 
REMARK    5  A    between atoms: C_15  and  C_16 
REMARK    6  A    between atoms: C_19  and  N_20 
REMARK       I    between atoms: N_20  and  C_21 
REMARK    7  A    between atoms: C_29  and  N_30 
ROOT
HETATM    1  C   UNL     1      -5.909   1.362 -32.162  1.00  0.00     0.072 A 
HETATM    2  N   UNL     1      -5.356   0.454 -31.283  1.00  0.00    -0.274 N 
HETATM    3  H   UNL     1      -5.769  -0.410 -30.949  1.00  0.00     0.189 HD
HETATM    4  N   UNL     1      -4.129   0.790 -30.837  1.00  0.00    -0.148 NA
HETATM    5  C   UNL     1      -3.905   1.935 -31.467  1.00  0.00     0.199 A 
HETATM    6  C   UNL     1      -4.946   2.350 -32.303  1.00  0.00     0.040 A 
HETATM    7  C   UNL     1      -4.831   3.621 -33.070  1.00  0.00     0.106 A 
HETATM    8  C   UNL     1      -3.505   4.319 -32.788  1.00  0.00     0.081 A 
HETATM    9  C   UNL     1      -3.254   5.526 -33.505  1.00  0.00     0.100 C 
HETATM   10  N   UNL     1      -3.055   6.507 -34.092  1.00  0.00    -0.191 NA
HETATM   11  C   UNL     1      -2.569   3.811 -31.943  1.00  0.00     0.140 A 
HETATM   12  O   UNL     1      -2.757   2.604 -31.259  1.00  0.00    -0.277 OA
ENDROOT
BRANCH   7  13
HETATM   13  C   UNL     1      -6.045   4.471 -32.713  1.00  0.00    -0.044 A 
HETATM   14  C   UNL     1      -6.219   5.054 -31.449  1.00  0.00     0.010 A 
HETATM   15  C   UNL     1      -7.347   5.836 -31.165  1.00  0.00     0.030 A 
HETATM   16  C   UNL     1      -8.316   6.066 -32.142  1.00  0.00     0.034 A 
HETATM   17  C   UNL     1      -8.138   5.505 -33.410  1.00  0.00     0.030 A 
HETATM   18  C   UNL     1      -7.016   4.721 -33.695  1.00  0.00     0.010 A 
BRANCH  16  19
HETATM   19  N   UNL     1      -9.478   6.838 -31.941  1.00  0.00    -0.328 N 
HETATM   20  C   UNL     1     -10.660   6.445 -31.341  1.00  0.00     0.218 C 
HETATM   21  C   UNL     1     -11.671   7.564 -31.296  1.00  0.00     0.117 C 
HETATM   22  O   UNL     1     -10.916   5.348 -30.860  1.00  0.00    -0.274 OA
HETATM   23  H   UNL     1      -9.435   7.792 -32.277  1.00  0.00     0.169 HD
ENDBRANCH  16  19
ENDBRANCH   7  13
BRANCH  11  24
HETATM   24  N   UNL     1      -1.353   4.396 -31.662  1.00  0.00    -0.282 NA
HETATM   25  H   UNL     1      -0.948   4.953 -32.411  1.00  0.00     0.126 HD
HETATM   26  H   UNL     1      -1.368   4.885 -30.769  1.00  0.00     0.126 HD
ENDBRANCH  11  24
BRANCH   1  27
HETATM   27  C   UNL     1      -7.253   1.213 -32.708  1.00  0.00    -0.007 A 
HETATM   28  C   UNL     1      -8.368   1.591 -31.950  1.00  0.00     0.016 A 
HETATM   29  C   UNL     1      -9.662   1.496 -32.477  1.00  0.00     0.037 A 
HETATM   30  C   UNL     1      -9.856   1.028 -33.775  1.00  0.00     0.068 A 
HETATM   31  C   UNL     1      -8.748   0.637 -34.530  1.00  0.00     0.037 A 
HETATM   32  C   UNL     1      -7.455   0.725 -34.002  1.00  0.00     0.016 A 
BRANCH  30  33
HETATM   33  O   UNL     1     -11.059   0.914 -34.415  1.00  0.00    -0.351 OA
BRANCH  33  34
HETATM   34  C   UNL     1     -12.222   1.298 -33.681  1.00  0.00     0.175 C 
BRANCH  34  35
HETATM   35  C   UNL     1     -13.232   0.157 -33.766  1.00  0.00     0.022 C 
HETATM   36  C   UNL     1     -14.596   0.646 -34.219  1.00  0.00     0.007 C 
ENDBRANCH  34  35
ENDBRANCH  33  34
ENDBRANCH  30  33
ENDBRANCH   1  27
TORSDOF 7
ENDMDL
MODEL 6
REMARK VINA RESULT:      -7.7      3.040      5.649
REMARK  7 active torsions:
REMARK  status: ('A' for Active; 'I' for Inactive)
REMARK    1  A    between atoms: C_2  and  C_3 
REMARK    2  A    between atoms: C_3  and  O_4 
REMARK    3  A    between atoms: O_4  and  C_5 
REMARK    4  A    between atoms: C_8  and  C_9 
REMARK    5  A    between atoms: C_15  and  C_16 
REMARK    6  A    between atoms: C_19  and  N_20 
REMARK       I    between atoms: N_20  and  C_21 
REMARK    7  A    between atoms: C_29  and  N_30 
ROOT
HETATM    1  C   UNL     1      -7.570   2.926 -31.055  1.00  0.00     0.072 A 
HETATM    2  N   UNL     1      -7.125   2.755 -29.761  1.00  0.00    -0.274 N 
HETATM    3  H   UNL     1      -6.704   1.925 -29.358  1.00  0.00     0.189 HD
HETATM    4  N   UNL     1      -7.286   3.836 -28.971  1.00  0.00    -0.148 NA
HETATM    5  C   UNL     1      -7.837   4.711 -29.802  1.00  0.00     0.199 A 
HETATM    6  C   UNL     1      -8.037   4.230 -31.100  1.00  0.00     0.040 A 
HETATM    7  C   UNL     1      -8.652   5.105 -32.137  1.00  0.00     0.106 A 
HETATM    8  C   UNL     1      -8.998   6.477 -31.569  1.00  0.00     0.081 A 
HETATM    9  C   UNL     1      -9.547   7.425 -32.481  1.00  0.00     0.100 C 
HETATM   10  N   UNL     1      -9.993   8.193 -33.229  1.00  0.00    -0.191 NA
HETATM   11  C   UNL     1      -8.755   6.823 -30.277  1.00  0.00     0.140 A 
HETATM   12  O   UNL     1      -8.171   5.937 -29.363  1.00  0.00    -0.277 OA
ENDROOT
BRANCH   7  13
HETATM   13  C   UNL     1      -9.861   4.361 -32.691  1.00  0.00    -0.044 A 
HETATM   14  C   UNL     1      -9.915   3.870 -34.005  1.00  0.00     0.010 A 
HETATM   15  C   UNL     1     -11.044   3.184 -34.472  1.00  0.00     0.030 A 
HETATM   16  C   UNL     1     -12.136   2.959 -33.633  1.00  0.00     0.034 A 
HETATM   17  C   UNL     1     -12.080   3.427 -32.316  1.00  0.00     0.030 A 
HETATM   18  C   UNL     1     -10.957   4.116 -31.849  1.00  0.00     0.010 A 
BRANCH  16  19
HETATM   19  N   UNL     1     -13.308   2.279 -34.021  1.00  0.00    -0.328 N 
HETATM   20  C   UNL     1     -13.568   0.923 -33.931  1.00  0.00     0.218 C 
HETATM   21  C   UNL     1     -14.946   0.577 -34.436  1.00  0.00     0.117 C 
HETATM   22  O   UNL     1     -12.827   0.056 -33.485  1.00  0.00    -0.274 OA
HETATM   23  H   UNL     1     -14.042   2.857 -34.411  1.00  0.00     0.169 HD
ENDBRANCH  16  19
ENDBRANCH   7  13
BRANCH  11  24
HETATM   24  N   UNL     1      -9.039   8.050 -29.717  1.00  0.00    -0.282 NA
HETATM   25  H   UNL     1      -9.954   8.134 -29.280  1.00  0.00     0.126 HD
HETATM   26  H   UNL     1      -8.284   8.374 -29.117  1.00  0.00     0.126 HD
ENDBRANCH  11  24
BRANCH   1  27
HETATM   27  C   UNL     1      -7.542   1.856 -32.046  1.00  0.00    -0.007 A 
HETATM   28  C   UNL     1      -6.430   1.699 -32.883  1.00  0.00     0.016 A 
HETATM   29  C   UNL     1      -6.368   0.650 -33.808  1.00  0.00     0.037 A 
HETATM   30  C   UNL     1      -7.416  -0.264 -33.901  1.00  0.00     0.068 A 
HETATM   31  C   UNL     1      -8.533  -0.103 -33.078  1.00  0.00     0.037 A 
HETATM   32  C   UNL     1      -8.599   0.949 -32.158  1.00  0.00     0.016 A 
BRANCH  30  33
HETATM   33  O   UNL     1      -7.467  -1.344 -34.737  1.00  0.00    -0.351 OA
BRANCH  33  34
HETATM   34  C   UNL     1      -6.358  -2.243 -34.701  1.00  0.00     0.175 C 
BRANCH  34  35
HETATM   35  C   UNL     1      -6.901  -3.656 -34.507  1.00  0.00     0.022 C 
HETATM   36  C   UNL     1      -6.352  -4.616 -35.547  1.00  0.00     0.007 C 
ENDBRANCH  34  35
ENDBRANCH  33  34
ENDBRANCH  30  33
ENDBRANCH   1  27
TORSDOF 7
ENDMDL
MODEL 7
REMARK VINA RESULT:      -7.6      4.373      8.302
REMARK  7 active torsions:
REMARK  status: ('A' for Active; 'I' for Inactive)
REMARK    1  A    between atoms: C_2  and  C_3 
REMARK    2  A    between atoms: C_3  and  O_4 
REMARK    3  A    between atoms: O_4  and  C_5 
REMARK    4  A    between atoms: C_8  and  C_9 
REMARK    5  A    between atoms: C_15  and  C_16 
REMARK    6  A    between atoms: C_19  and  N_20 
REMARK       I    between atoms: N_20  and  C_21 
REMARK    7  A    between atoms: C_29  and  N_30 
ROOT
HETATM    1  C   UNL     1      -3.188   5.579 -33.152  1.00  0.00     0.072 A 
HETATM    2  N   UNL     1      -3.076   5.719 -34.521  1.00  0.00    -0.274 N 
HETATM    3  H   UNL     1      -2.287   6.088 -35.040  1.00  0.00     0.189 HD
HETATM    4  N   UNL     1      -4.160   5.309 -35.210  1.00  0.00    -0.148 NA
HETATM    5  C   UNL     1      -4.965   4.889 -34.244  1.00  0.00     0.199 A 
HETATM    6  C   UNL     1      -4.439   5.016 -32.955  1.00  0.00     0.040 A 
HETATM    7  C   UNL     1      -5.238   4.588 -31.773  1.00  0.00     0.106 A 
HETATM    8  C   UNL     1      -6.603   4.054 -32.192  1.00  0.00     0.081 A 
HETATM    9  C   UNL     1      -7.443   3.564 -31.150  1.00  0.00     0.100 C 
HETATM   10  N   UNL     1      -8.122   3.164 -30.298  1.00  0.00    -0.191 NA
HETATM   11  C   UNL     1      -7.002   3.986 -33.489  1.00  0.00     0.140 A 
HETATM   12  O   UNL     1      -6.185   4.412 -34.545  1.00  0.00    -0.277 OA
ENDROOT
BRANCH   7  13
HETATM   13  C   UNL     1      -5.323   5.785 -30.833  1.00  0.00    -0.044 A 
HETATM   14  C   UNL     1      -4.739   5.792 -29.557  1.00  0.00     0.010 A 
HETATM   15  C   UNL     1      -4.834   6.917 -28.727  1.00  0.00     0.030 A 
HETATM   16  C   UNL     1      -5.500   8.064 -29.159  1.00  0.00     0.034 A 
HETATM   17  C   UNL     1      -6.067   8.071 -30.437  1.00  0.00     0.030 A 
HETATM   18  C   UNL     1      -5.977   6.948 -31.266  1.00  0.00     0.010 A 
BRANCH  16  19
HETATM   19  N   UNL     1      -5.642   9.236 -28.389  1.00  0.00    -0.328 N 
HETATM   20  C   UNL     1      -6.574   9.489 -27.399  1.00  0.00     0.218 C 
HETATM   21  C   UNL     1      -6.395  10.858 -26.791  1.00  0.00     0.117 C 
HETATM   22  O   UNL     1      -7.450   8.733 -26.997  1.00  0.00    -0.274 OA
HETATM   23  H   UNL     1      -4.980   9.976 -28.590  1.00  0.00     0.169 HD
ENDBRANCH  16  19
ENDBRANCH   7  13
BRANCH  11  24
HETATM   24  N   UNL     1      -8.219   3.504 -33.922  1.00  0.00    -0.282 NA
HETATM   25  H   UNL     1      -8.902   3.314 -33.192  1.00  0.00     0.126 HD
HETATM   26  H   UNL     1      -8.597   4.065 -34.682  1.00  0.00     0.126 HD
ENDBRANCH  11  24
BRANCH   1  27
HETATM   27  C   UNL     1      -2.150   6.022 -32.228  1.00  0.00    -0.007 A 
HETATM   28  C   UNL     1      -1.127   5.146 -31.844  1.00  0.00     0.016 A 
HETATM   29  C   UNL     1      -0.099   5.570 -30.993  1.00  0.00     0.037 A 
HETATM   30  C   UNL     1      -0.076   6.881 -30.522  1.00  0.00     0.068 A 
HETATM   31  C   UNL     1      -1.101   7.754 -30.892  1.00  0.00     0.037 A 
HETATM   32  C   UNL     1      -2.134   7.330 -31.736  1.00  0.00     0.016 A 
BRANCH  30  33
HETATM   33  O   UNL     1       0.881   7.427 -29.714  1.00  0.00    -0.351 OA
BRANCH  33  34
HETATM   34  C   UNL     1       0.676   7.320 -28.304  1.00  0.00     0.175 C 
BRANCH  34  35
HETATM   35  C   UNL     1       1.490   8.417 -27.624  1.00  0.00     0.022 C 
HETATM   36  C   UNL     1       1.860   8.041 -26.200  1.00  0.00     0.007 C 
ENDBRANCH  34  35
ENDBRANCH  33  34
ENDBRANCH  30  33
ENDBRANCH   1  27
TORSDOF 7
ENDMDL
MODEL 8
REMARK VINA RESULT:      -7.6      2.547      5.405
REMARK  7 active torsions:
REMARK  status: ('A' for Active; 'I' for Inactive)
REMARK    1  A    between atoms: C_2  and  C_3 
REMARK    2  A    between atoms: C_3  and  O_4 
REMARK    3  A    between atoms: O_4  and  C_5 
REMARK    4  A    between atoms: C_8  and  C_9 
REMARK    5  A    between atoms: C_15  and  C_16 
REMARK    6  A    between atoms: C_19  and  N_20 
REMARK       I    between atoms: N_20  and  C_21 
REMARK    7  A    between atoms: C_29  and  N_30 
ROOT
HETATM    1  C   UNL     1      -5.968   3.574 -30.429  1.00  0.00     0.072 A 
HETATM    2  N   UNL     1      -5.436   3.761 -29.170  1.00  0.00    -0.274 N 
HETATM    3  H   UNL     1      -4.833   3.128 -28.656  1.00  0.00     0.189 HD
HETATM    4  N   UNL     1      -5.779   4.928 -28.591  1.00  0.00    -0.148 NA
HETATM    5  C   UNL     1      -6.538   5.492 -29.521  1.00  0.00     0.199 A 
HETATM    6  C   UNL     1      -6.697   4.727 -30.680  1.00  0.00     0.040 A 
HETATM    7  C   UNL     1      -7.528   5.235 -31.806  1.00  0.00     0.106 A 
HETATM    8  C   UNL     1      -8.123   6.601 -31.482  1.00  0.00     0.081 A 
HETATM    9  C   UNL     1      -8.900   7.217 -32.506  1.00  0.00     0.100 C 
HETATM   10  N   UNL     1      -9.530   7.715 -33.344  1.00  0.00    -0.191 NA
HETATM   11  C   UNL     1      -7.895   7.244 -30.307  1.00  0.00     0.140 A 
HETATM   12  O   UNL     1      -7.097   6.693 -29.296  1.00  0.00    -0.277 OA
ENDROOT
BRANCH   7  13
HETATM   13  C   UNL     1      -8.583   4.174 -32.099  1.00  0.00    -0.044 A 
HETATM   14  C   UNL     1      -9.608   3.852 -31.196  1.00  0.00     0.010 A 
HETATM   15  C   UNL     1     -10.564   2.876 -31.508  1.00  0.00     0.030 A 
HETATM   16  C   UNL     1     -10.526   2.213 -32.735  1.00  0.00     0.034 A 
HETATM   17  C   UNL     1      -9.520   2.543 -33.647  1.00  0.00     0.030 A 
HETATM   18  C   UNL     1      -8.563   3.514 -33.337  1.00  0.00     0.010 A 
BRANCH  16  19
HETATM   19  N   UNL     1     -11.447   1.220 -33.128  1.00  0.00    -0.328 N 
HETATM   20  C   UNL     1     -12.738   1.400 -33.590  1.00  0.00     0.218 C 
HETATM   21  C   UNL     1     -13.406   0.090 -33.927  1.00  0.00     0.117 C 
HETATM   22  O   UNL     1     -13.323   2.464 -33.754  1.00  0.00    -0.274 OA
HETATM   23  H   UNL     1     -11.117   0.265 -33.062  1.00  0.00     0.169 HD
ENDBRANCH  16  19
ENDBRANCH   7  13
BRANCH  11  24
HETATM   24  N   UNL     1      -8.399   8.482 -29.968  1.00  0.00    -0.282 NA
HETATM   25  H   UNL     1      -9.290   8.474 -29.476  1.00  0.00     0.126 HD
HETATM   26  H   UNL     1      -7.699   9.061 -29.510  1.00  0.00     0.126 HD
ENDBRANCH  11  24
BRANCH   1  27
HETATM   27  C   UNL     1      -5.767   2.350 -31.196  1.00  0.00    -0.007 A 
HETATM   28  C   UNL     1      -6.639   1.265 -31.035  1.00  0.00     0.016 A 
HETATM   29  C   UNL     1      -6.486   0.101 -31.796  1.00  0.00     0.037 A 
HETATM   30  C   UNL     1      -5.461   0.009 -32.737  1.00  0.00     0.068 A 
HETATM   31  C   UNL     1      -4.582   1.082 -32.891  1.00  0.00     0.037 A 
HETATM   32  C   UNL     1      -4.729   2.244 -32.126  1.00  0.00     0.016 A 
BRANCH  30  33
HETATM   33  O   UNL     1      -5.221  -1.055 -33.561  1.00  0.00    -0.351 OA
BRANCH  33  34
HETATM   34  C   UNL     1      -6.358  -1.791 -34.015  1.00  0.00     0.175 C 
BRANCH  34  35
HETATM   35  C   UNL     1      -5.864  -2.905 -34.933  1.00  0.00     0.022 C 
HETATM   36  C   UNL     1      -6.792  -4.107 -34.910  1.00  0.00     0.007 C 
ENDBRANCH  34  35
ENDBRANCH  33  34
ENDBRANCH  30  33
ENDBRANCH   1  27
TORSDOF 7
ENDMDL
MODEL 9
REMARK VINA RESULT:      -7.3      3.131      6.252
REMARK  7 active torsions:
REMARK  status: ('A' for Active; 'I' for Inactive)
REMARK    1  A    between atoms: C_2  and  C_3 
REMARK    2  A    between atoms: C_3  and  O_4 
REMARK    3  A    between atoms: O_4  and  C_5 
REMARK    4  A    between atoms: C_8  and  C_9 
REMARK    5  A    between atoms: C_15  and  C_16 
REMARK    6  A    between atoms: C_19  and  N_20 
REMARK       I    between atoms: N_20  and  C_21 
REMARK    7  A    between atoms: C_29  and  N_30 
ROOT
HETATM    1  C   UNL     1      -7.484   5.452 -31.589  1.00  0.00     0.072 A 
HETATM    2  N   UNL     1      -7.104   6.205 -30.497  1.00  0.00    -0.274 N 
HETATM    3  H   UNL     1      -6.442   5.949 -29.772  1.00  0.00     0.189 HD
HETATM    4  N   UNL     1      -7.703   7.410 -30.418  1.00  0.00    -0.148 NA
HETATM    5  C   UNL     1      -8.469   7.414 -31.500  1.00  0.00     0.199 A 
HETATM    6  C   UNL     1      -8.387   6.252 -32.273  1.00  0.00     0.040 A 
HETATM    7  C   UNL     1      -9.198   6.118 -33.515  1.00  0.00     0.106 A 
HETATM    8  C   UNL     1     -10.057   7.356 -33.750  1.00  0.00     0.081 A 
HETATM    9  C   UNL     1     -10.843   7.370 -34.939  1.00  0.00     0.100 C 
HETATM   10  N   UNL     1     -11.480   7.376 -35.910  1.00  0.00    -0.191 NA
HETATM   11  C   UNL     1     -10.052   8.427 -32.914  1.00  0.00     0.140 A 
HETATM   12  O   UNL     1      -9.255   8.473 -31.763  1.00  0.00    -0.277 OA
ENDROOT
BRANCH   7  13
HETATM   13  C   UNL     1     -10.012   4.837 -33.382  1.00  0.00    -0.044 A 
HETATM   14  C   UNL     1     -11.076   4.704 -32.477  1.00  0.00     0.010 A 
HETATM   15  C   UNL     1     -11.806   3.510 -32.393  1.00  0.00     0.030 A 
HETATM   16  C   UNL     1     -11.499   2.431 -33.222  1.00  0.00     0.034 A 
HETATM   17  C   UNL     1     -10.454   2.565 -34.141  1.00  0.00     0.030 A 
HETATM   18  C   UNL     1      -9.722   3.753 -34.224  1.00  0.00     0.010 A 
BRANCH  16  19
HETATM   19  N   UNL     1     -12.181   1.197 -33.203  1.00  0.00    -0.328 N 
HETATM   20  C   UNL     1     -13.207   0.786 -34.034  1.00  0.00     0.218 C 
HETATM   21  C   UNL     1     -13.669  -0.614 -33.712  1.00  0.00     0.117 C 
HETATM   22  O   UNL     1     -13.711   1.417 -34.955  1.00  0.00    -0.274 OA
HETATM   23  H   UNL     1     -11.879   0.540 -32.495  1.00  0.00     0.169 HD
ENDBRANCH  16  19
ENDBRANCH   7  13
BRANCH  11  24
HETATM   24  N   UNL     1     -10.800   9.572 -33.086  1.00  0.00    -0.282 NA
HETATM   25  H   UNL     1     -11.014  10.089 -32.236  1.00  0.00     0.126 HD
HETATM   26  H   UNL     1     -10.422  10.163 -33.823  1.00  0.00     0.126 HD
ENDBRANCH  11  24
BRANCH   1  27
HETATM   27  C   UNL     1      -6.998   4.097 -31.820  1.00  0.00    -0.007 A 
HETATM   28  C   UNL     1      -7.600   3.012 -31.171  1.00  0.00     0.016 A 
HETATM   29  C   UNL     1      -7.175   1.701 -31.417  1.00  0.00     0.037 A 
HETATM   30  C   UNL     1      -6.145   1.457 -32.323  1.00  0.00     0.068 A 
HETATM   31  C   UNL     1      -5.532   2.537 -32.962  1.00  0.00     0.037 A 
HETATM   32  C   UNL     1      -5.951   3.849 -32.712  1.00  0.00     0.016 A 
BRANCH  30  33
HETATM   33  O   UNL     1      -5.657   0.229 -32.673  1.00  0.00    -0.351 OA
BRANCH  33  34
HETATM   34  C   UNL     1      -6.605  -0.738 -33.127  1.00  0.00     0.175 C 
BRANCH  34  35
HETATM   35  C   UNL     1      -6.538  -0.787 -34.650  1.00  0.00     0.022 C 
HETATM   36  C   UNL     1      -7.568   0.129 -35.288  1.00  0.00     0.007 C 
ENDBRANCH  34  35
ENDBRANCH  33  34
ENDBRANCH  30  33
ENDBRANCH   1  27
TORSDOF 7
ENDMDL
MODEL 10
REMARK VINA RESULT:      -7.2      2.615      5.630
REMARK  7 active torsions:
REMARK  status: ('A' for Active; 'I' for Inactive)
REMARK    1  A    between atoms: C_2  and  C_3 
REMARK    2  A    between atoms: C_3  and  O_4 
REMARK    3  A    between atoms: O_4  and  C_5 
REMARK    4  A    between atoms: C_8  and  C_9 
REMARK    5  A    between atoms: C_15  and  C_16 
REMARK    6  A    between atoms: C_19  and  N_20 
REMARK       I    between atoms: N_20  and  C_21 
REMARK    7  A    between atoms: C_29  and  N_30 
ROOT
HETATM    1  C   UNL     1      -5.783   4.404 -29.531  1.00  0.00     0.072 A 
HETATM    2  N   UNL     1      -5.295   4.507 -28.245  1.00  0.00    -0.274 N 
HETATM    3  H   UNL     1      -4.691   3.851 -27.761  1.00  0.00     0.189 HD
HETATM    4  N   UNL     1      -5.688   5.617 -27.589  1.00  0.00    -0.148 NA
HETATM    5  C   UNL     1      -6.433   6.231 -28.498  1.00  0.00     0.199 A 
HETATM    6  C   UNL     1      -6.535   5.554 -29.717  1.00  0.00     0.040 A 
HETATM    7  C   UNL     1      -7.345   6.126 -30.828  1.00  0.00     0.106 A 
HETATM    8  C   UNL     1      -7.987   7.448 -30.420  1.00  0.00     0.081 A 
HETATM    9  C   UNL     1      -8.749   8.122 -31.418  1.00  0.00     0.100 C 
HETATM   10  N   UNL     1      -9.366   8.667 -32.236  1.00  0.00    -0.191 NA
HETATM   11  C   UNL     1      -7.814   8.004 -29.192  1.00  0.00     0.140 A 
HETATM   12  O   UNL     1      -7.032   7.397 -28.201  1.00  0.00    -0.277 OA
ENDROOT
BRANCH   7  13
HETATM   13  C   UNL     1      -8.360   5.066 -31.235  1.00  0.00    -0.044 A 
HETATM   14  C   UNL     1      -9.393   4.636 -30.387  1.00  0.00     0.010 A 
HETATM   15  C   UNL     1     -10.311   3.664 -30.805  1.00  0.00     0.030 A 
HETATM   16  C   UNL     1     -10.229   3.112 -32.083  1.00  0.00     0.034 A 
HETATM   17  C   UNL     1      -9.215   3.550 -32.941  1.00  0.00     0.030 A 
HETATM   18  C   UNL     1      -8.295   4.517 -32.526  1.00  0.00     0.010 A 
BRANCH  16  19
HETATM   19  N   UNL     1     -11.110   2.131 -32.582  1.00  0.00    -0.328 N 
HETATM   20  C   UNL     1     -12.234   2.324 -33.364  1.00  0.00     0.218 C 
HETATM   21  C   UNL     1     -12.911   1.022 -33.713  1.00  0.00     0.117 C 
HETATM   22  O   UNL     1     -12.671   3.390 -33.781  1.00  0.00    -0.274 OA
HETATM   23  H   UNL     1     -10.888   1.175 -32.335  1.00  0.00     0.169 HD
ENDBRANCH  16  19
ENDBRANCH   7  13
BRANCH  11  24
HETATM   24  N   UNL     1      -8.362   9.199 -28.776  1.00  0.00    -0.282 NA
HETATM   25  H   UNL     1      -8.995   9.646 -29.436  1.00  0.00     0.126 HD
HETATM   26  H   UNL     1      -8.753   9.128 -27.840  1.00  0.00     0.126 HD
ENDBRANCH  11  24
BRANCH   1  27
HETATM   27  C   UNL     1      -5.524   3.249 -30.382  1.00  0.00    -0.007 A 
HETATM   28  C   UNL     1      -4.425   3.245 -31.251  1.00  0.00     0.016 A 
HETATM   29  C   UNL     1      -4.137   2.125 -32.041  1.00  0.00     0.037 A 
HETATM   30  C   UNL     1      -4.941   0.990 -31.966  1.00  0.00     0.068 A 
HETATM   31  C   UNL     1      -6.046   0.995 -31.112  1.00  0.00     0.037 A 
HETATM   32  C   UNL     1      -6.340   2.115 -30.327  1.00  0.00     0.016 A 
BRANCH  30  33
HETATM   33  O   UNL     1      -4.754  -0.174 -32.659  1.00  0.00    -0.351 OA
BRANCH  33  34
HETATM   34  C   UNL     1      -5.510  -0.341 -33.859  1.00  0.00     0.175 C 
BRANCH  34  35
HETATM   35  C   UNL     1      -5.776  -1.832 -34.045  1.00  0.00     0.022 C 
HETATM   36  C   UNL     1      -4.487  -2.617 -34.213  1.00  0.00     0.007 C 
ENDBRANCH  34  35
ENDBRANCH  33  34
ENDBRANCH  30  33
ENDBRANCH   1  27
TORSDOF 7
ENDMDL
