MODEL 1
REMARK VINA RESULT:      -8.4      0.000      0.000
REMARK  9 active torsions:
REMARK  status: ('A' for Active; 'I' for Inactive)
REMARK       I    between atoms: C_2  and  N_3 
REMARK    1  A    between atoms: N_3  and  C_4 
REMARK    2  A    between atoms: C_4  and  C_5 
REMARK    3  A    between atoms: C_5  and  N_6 
REMARK       I    between atoms: N_6  and  C_7 
REMARK    4  A    between atoms: C_7  and  C_8 
REMARK    5  A    between atoms: C_8  and  C_9 
REMARK    6  A    between atoms: C_13  and  C_14 
REMARK    7  A    between atoms: C_14  and  O_15 
REMARK    8  A    between atoms: C_17  and  O_18 
REMARK    9  A    between atoms: C_25  and  C_26 
ROOT
HETATM    1  C   UNL     1      -5.170   3.338 -31.632  1.00  0.00     0.056 C 
HETATM    2  C   UNL     1      -5.955   4.241 -30.573  1.00  0.00    -0.030 C 
HETATM    3  C   UNL     1      -5.668   3.722 -29.134  1.00  0.00     0.016 C 
HETATM    4  C   UNL     1      -7.538   4.224 -30.803  1.00  0.00     0.012 C 
HETATM    5  C   UNL     1      -8.086   5.100 -32.014  1.00  0.00     0.008 C 
HETATM    6  C   UNL     1      -9.621   5.303 -31.836  1.00  0.00     0.020 C 
HETATM    7  C   UNL     1      -7.439   6.518 -31.949  1.00  0.00     0.128 C 
HETATM    8  C   UNL     1      -5.920   6.478 -31.842  1.00  0.00     0.033 C 
HETATM    9  C   UNL     1      -5.494   5.721 -30.595  1.00  0.00     0.013 C 
HETATM   10  C   UNL     1      -8.102   2.778 -30.750  1.00  0.00     0.054 C 
HETATM   11  C   UNL     1      -7.248   1.847 -31.529  1.00  0.00     0.010 A 
HETATM   12  C   UNL     1      -5.951   2.073 -31.928  1.00  0.00     0.054 A 
HETATM   13  N   UNL     1      -5.405   1.066 -32.702  1.00  0.00    -0.244 NA
HETATM   14  C   UNL     1      -6.253   0.058 -32.821  1.00  0.00     0.110 A 
HETATM   15  S   UNL     1      -7.776   0.318 -32.050  1.00  0.00    -0.072 SA
ENDROOT
BRANCH   1  16
HETATM   16  C   UNL     1      -3.710   2.961 -31.279  1.00  0.00     0.114 C 
BRANCH  16  17
HETATM   17  C   UNL     1      -2.659   3.846 -31.901  1.00  0.00     0.218 C 
HETATM   18  N   UNL     1      -1.840   4.488 -31.002  1.00  0.00    -0.359 N 
HETATM   19  H   UNL     1      -2.086   4.510 -30.021  1.00  0.00     0.162 HD
HETATM   20  O   UNL     1      -2.553   3.976 -33.116  1.00  0.00    -0.274 OA
BRANCH  18  21
HETATM   21  C   UNL     1      -0.755   5.351 -31.444  1.00  0.00     0.142 C 
BRANCH  21  22
HETATM   22  C   UNL     1       0.473   5.265 -30.531  1.00  0.00     0.142 C 
BRANCH  22  23
HETATM   23  N   UNL     1       0.125   5.274 -29.119  1.00  0.00    -0.360 N 
HETATM   24  C   UNL     1       0.266   6.406 -28.353  1.00  0.00     0.213 C 
HETATM   25  C   UNL     1      -0.173   6.250 -26.922  1.00  0.00     0.117 C 
HETATM   26  O   UNL     1       0.708   7.464 -28.786  1.00  0.00    -0.274 OA
HETATM   27  H   UNL     1      -0.245   4.425 -28.713  1.00  0.00     0.162 HD
ENDBRANCH  22  23
ENDBRANCH  21  22
ENDBRANCH  18  21
ENDBRANCH  16  17
ENDBRANCH   1  16
BRANCH   5  28
HETATM   28  C   UNL     1      -7.881   4.447 -33.410  1.00  0.00     0.176 C 
BRANCH  28  29
HETATM   29  O   UNL     1      -8.614   5.115 -34.435  1.00  0.00    -0.400 OA
HETATM   30  H   UNL     1      -8.195   5.997 -34.533  1.00  0.00     0.209 HD
ENDBRANCH  28  29
ENDBRANCH   5  28
BRANCH  14  31
HETATM   31  C   UNL     1      -5.972  -1.172 -33.576  1.00  0.00     0.017 A 
HETATM   32  C   UNL     1      -4.687  -1.639 -33.845  1.00  0.00     0.130 A 
HETATM   33  N   UNL     1      -4.405  -2.771 -34.542  1.00  0.00    -0.272 NA
HETATM   34  C   UNL     1      -5.457  -3.479 -35.000  1.00  0.00     0.116 A 
HETATM   35  C   UNL     1      -6.775  -3.107 -34.801  1.00  0.00     0.020 A 
HETATM   36  C   UNL     1      -7.029  -1.938 -34.083  1.00  0.00     0.017 A 
ENDBRANCH  14  31
BRANCH   7  37
HETATM   37  O   UNL     1      -7.765   7.304 -33.096  1.00  0.00    -0.395 OA
HETATM   38  H   UNL     1      -7.622   8.239 -32.858  1.00  0.00     0.210 HD
ENDBRANCH   7  37
TORSDOF 9
ENDMDL
MODEL 2
REMARK VINA RESULT:      -8.3      1.592      1.886
REMARK  9 active torsions:
REMARK  status: ('A' for Active; 'I' for Inactive)
REMARK       I    between atoms: C_2  and  N_3 
REMARK    1  A    between atoms: N_3  and  C_4 
REMARK    2  A    between atoms: C_4  and  C_5 
REMARK    3  A    between atoms: C_5  and  N_6 
REMARK       I    between atoms: N_6  and  C_7 
REMARK    4  A    between atoms: C_7  and  C_8 
REMARK    5  A    between atoms: C_8  and  C_9 
REMARK    6  A    between atoms: C_13  and  C_14 
REMARK    7  A    between atoms: C_14  and  O_15 
REMARK    8  A    between atoms: C_17  and  O_18 
REMARK    9  A    between atoms: C_25  and  C_26 
ROOT
HETATM    1  C   UNL     1      -5.586   3.779 -31.783  1.00  0.00     0.056 C 
HETATM    2  C   UNL     1      -6.403   4.668 -30.737  1.00  0.00    -0.030 C 
HETATM    3  C   UNL     1      -5.997   4.271 -29.288  1.00  0.00     0.016 C 
HETATM    4  C   UNL     1      -7.986   4.484 -30.878  1.00  0.00     0.012 C 
HETATM    5  C   UNL     1      -8.676   5.226 -32.106  1.00  0.00     0.008 C 
HETATM    6  C   UNL     1     -10.213   5.291 -31.857  1.00  0.00     0.020 C 
HETATM    7  C   UNL     1      -8.171   6.701 -32.159  1.00  0.00     0.128 C 
HETATM    8  C   UNL     1      -6.652   6.814 -32.133  1.00  0.00     0.033 C 
HETATM    9  C   UNL     1      -6.093   6.181 -30.870  1.00  0.00     0.013 C 
HETATM   10  C   UNL     1      -8.401   2.997 -30.711  1.00  0.00     0.054 C 
HETATM   11  C   UNL     1      -7.497   2.106 -31.480  1.00  0.00     0.010 A 
HETATM   12  C   UNL     1      -6.250   2.429 -31.962  1.00  0.00     0.054 A 
HETATM   13  N   UNL     1      -5.645   1.433 -32.705  1.00  0.00    -0.244 NA
HETATM   14  C   UNL     1      -6.394   0.342 -32.718  1.00  0.00     0.110 A 
HETATM   15  S   UNL     1      -7.896   0.503 -31.881  1.00  0.00    -0.072 SA
ENDROOT
BRANCH   1  16
HETATM   16  C   UNL     1      -4.080   3.568 -31.489  1.00  0.00     0.114 C 
BRANCH  16  17
HETATM   17  C   UNL     1      -3.144   4.173 -32.506  1.00  0.00     0.218 C 
HETATM   18  N   UNL     1      -3.729   5.071 -33.366  1.00  0.00    -0.359 N 
HETATM   19  H   UNL     1      -4.738   5.135 -33.421  1.00  0.00     0.162 HD
HETATM   20  O   UNL     1      -1.954   3.877 -32.552  1.00  0.00    -0.274 OA
BRANCH  18  21
HETATM   21  C   UNL     1      -2.954   5.767 -34.382  1.00  0.00     0.142 C 
BRANCH  21  22
HETATM   22  C   UNL     1      -2.325   7.062 -33.858  1.00  0.00     0.142 C 
BRANCH  22  23
HETATM   23  N   UNL     1      -1.053   6.839 -33.188  1.00  0.00    -0.360 N 
HETATM   24  C   UNL     1      -0.896   7.091 -31.846  1.00  0.00     0.213 C 
HETATM   25  C   UNL     1       0.473   6.772 -31.308  1.00  0.00     0.117 C 
HETATM   26  O   UNL     1      -1.788   7.536 -31.133  1.00  0.00    -0.274 OA
HETATM   27  H   UNL     1      -0.285   6.471 -33.733  1.00  0.00     0.162 HD
ENDBRANCH  22  23
ENDBRANCH  21  22
ENDBRANCH  18  21
ENDBRANCH  16  17
ENDBRANCH   1  16
BRANCH   5  28
HETATM   28  C   UNL     1      -8.477   4.508 -33.471  1.00  0.00     0.176 C 
BRANCH  28  29
HETATM   29  O   UNL     1      -9.380   4.978 -34.470  1.00  0.00    -0.400 OA
HETATM   30  H   UNL     1     -10.151   5.341 -33.984  1.00  0.00     0.209 HD
ENDBRANCH  28  29
ENDBRANCH   5  28
BRANCH  14  31
HETATM   31  C   UNL     1      -6.030  -0.900 -33.414  1.00  0.00     0.017 A 
HETATM   32  C   UNL     1      -4.723  -1.370 -33.528  1.00  0.00     0.130 A 
HETATM   33  N   UNL     1      -4.364  -2.514 -34.168  1.00  0.00    -0.272 NA
HETATM   34  C   UNL     1      -5.357  -3.231 -34.731  1.00  0.00     0.116 A 
HETATM   35  C   UNL     1      -6.689  -2.858 -34.688  1.00  0.00     0.020 A 
HETATM   36  C   UNL     1      -7.022  -1.678 -34.025  1.00  0.00     0.017 A 
ENDBRANCH  14  31
BRANCH   7  37
HETATM   37  O   UNL     1      -8.630   7.378 -33.331  1.00  0.00    -0.395 OA
HETATM   38  H   UNL     1      -8.332   8.304 -33.266  1.00  0.00     0.210 HD
ENDBRANCH   7  37
TORSDOF 9
ENDMDL
MODEL 3
REMARK VINA RESULT:      -8.1      3.925      7.216
REMARK  9 active torsions:
REMARK  status: ('A' for Active; 'I' for Inactive)
REMARK       I    between atoms: C_2  and  N_3 
REMARK    1  A    between atoms: N_3  and  C_4 
REMARK    2  A    between atoms: C_4  and  C_5 
REMARK    3  A    between atoms: C_5  and  N_6 
REMARK       I    between atoms: N_6  and  C_7 
REMARK    4  A    between atoms: C_7  and  C_8 
REMARK    5  A    between atoms: C_8  and  C_9 
REMARK    6  A    between atoms: C_13  and  C_14 
REMARK    7  A    between atoms: C_14  and  O_15 
REMARK    8  A    between atoms: C_17  and  O_18 
REMARK    9  A    between atoms: C_25  and  C_26 
ROOT
HETATM    1  C   UNL     1      -8.170   1.855 -33.006  1.00  0.00     0.056 C 
HETATM    2  C   UNL     1      -7.726   3.379 -32.822  1.00  0.00    -0.030 C 
HETATM    3  C   UNL     1      -7.524   4.033 -34.220  1.00  0.00     0.016 C 
HETATM    4  C   UNL     1      -6.363   3.528 -32.000  1.00  0.00     0.012 C 
HETATM    5  C   UNL     1      -6.462   3.327 -30.424  1.00  0.00     0.008 C 
HETATM    6  C   UNL     1      -5.177   3.907 -29.759  1.00  0.00     0.020 C 
HETATM    7  C   UNL     1      -7.662   4.163 -29.879  1.00  0.00     0.128 C 
HETATM    8  C   UNL     1      -8.962   3.900 -30.627  1.00  0.00     0.033 C 
HETATM    9  C   UNL     1      -8.803   4.230 -32.102  1.00  0.00     0.013 C 
HETATM   10  C   UNL     1      -5.205   2.743 -32.675  1.00  0.00     0.054 C 
HETATM   11  C   UNL     1      -5.655   1.391 -33.092  1.00  0.00     0.010 A 
HETATM   12  C   UNL     1      -6.958   0.978 -33.246  1.00  0.00     0.054 A 
HETATM   13  N   UNL     1      -7.101  -0.356 -33.580  1.00  0.00    -0.244 NA
HETATM   14  C   UNL     1      -5.919  -0.923 -33.752  1.00  0.00     0.110 A 
HETATM   15  S   UNL     1      -4.580   0.125 -33.452  1.00  0.00    -0.072 SA
ENDROOT
BRANCH   1  16
HETATM   16  C   UNL     1      -9.229   1.565 -34.098  1.00  0.00     0.114 C 
BRANCH  16  17
HETATM   17  C   UNL     1     -10.497   0.918 -33.597  1.00  0.00     0.218 C 
HETATM   18  N   UNL     1     -11.657   1.461 -34.096  1.00  0.00    -0.359 N 
HETATM   19  H   UNL     1     -11.632   2.347 -34.584  1.00  0.00     0.162 HD
HETATM   20  O   UNL     1     -10.481  -0.017 -32.804  1.00  0.00    -0.274 OA
BRANCH  18  21
HETATM   21  C   UNL     1     -12.962   0.927 -33.737  1.00  0.00     0.142 C 
BRANCH  21  22
HETATM   22  C   UNL     1     -13.966   2.026 -33.371  1.00  0.00     0.142 C 
BRANCH  22  23
HETATM   23  N   UNL     1     -13.692   2.629 -32.076  1.00  0.00    -0.360 N 
HETATM   24  C   UNL     1     -12.904   3.750 -31.960  1.00  0.00     0.213 C 
HETATM   25  C   UNL     1     -12.753   4.262 -30.553  1.00  0.00     0.117 C 
HETATM   26  O   UNL     1     -12.366   4.299 -32.915  1.00  0.00    -0.274 OA
HETATM   27  H   UNL     1     -14.114   2.213 -31.256  1.00  0.00     0.162 HD
ENDBRANCH  22  23
ENDBRANCH  21  22
ENDBRANCH  18  21
ENDBRANCH  16  17
ENDBRANCH   1  16
BRANCH   5  28
HETATM   28  C   UNL     1      -6.560   1.840 -29.981  1.00  0.00     0.176 C 
BRANCH  28  29
HETATM   29  O   UNL     1      -5.457   1.439 -29.171  1.00  0.00    -0.400 OA
HETATM   30  H   UNL     1      -4.656   1.577 -29.721  1.00  0.00     0.209 HD
ENDBRANCH  28  29
ENDBRANCH   5  28
BRANCH  14  31
HETATM   31  C   UNL     1      -5.725  -2.333 -34.121  1.00  0.00     0.017 A 
HETATM   32  C   UNL     1      -4.516  -3.011 -33.979  1.00  0.00     0.130 A 
HETATM   33  N   UNL     1      -4.314  -4.313 -34.315  1.00  0.00    -0.272 NA
HETATM   34  C   UNL     1      -5.371  -4.978 -34.824  1.00  0.00     0.116 A 
HETATM   35  C   UNL     1      -6.615  -4.405 -35.017  1.00  0.00     0.020 A 
HETATM   36  C   UNL     1      -6.787  -3.067 -34.664  1.00  0.00     0.017 A 
ENDBRANCH  14  31
BRANCH   7  37
HETATM   37  O   UNL     1      -7.905   3.904 -28.496  1.00  0.00    -0.395 OA
HETATM   38  H   UNL     1      -7.736   4.733 -28.011  1.00  0.00     0.210 HD
ENDBRANCH   7  37
TORSDOF 9
ENDMDL
MODEL 4
REMARK VINA RESULT:      -8.0      3.452      7.043
REMARK  9 active torsions:
REMARK  status: ('A' for Active; 'I' for Inactive)
REMARK       I    between atoms: C_2  and  N_3 
REMARK    1  A    between atoms: N_3  and  C_4 
REMARK    2  A    between atoms: C_4  and  C_5 
REMARK    3  A    between atoms: C_5  and  N_6 
REMARK       I    between atoms: N_6  and  C_7 
REMARK    4  A    between atoms: C_7  and  C_8 
REMARK    5  A    between atoms: C_8  and  C_9 
REMARK    6  A    between atoms: C_13  and  C_14 
REMARK    7  A    between atoms: C_14  and  O_15 
REMARK    8  A    between atoms: C_17  and  O_18 
REMARK    9  A    between atoms: C_25  and  C_26 
ROOT
HETATM    1  C   UNL     1      -6.510   1.648 -32.027  1.00  0.00     0.056 C 
HETATM    2  C   UNL     1      -5.585   2.172 -30.834  1.00  0.00    -0.030 C 
HETATM    3  C   UNL     1      -5.842   1.313 -29.562  1.00  0.00     0.016 C 
HETATM    4  C   UNL     1      -5.862   3.703 -30.467  1.00  0.00     0.012 C 
HETATM    5  C   UNL     1      -5.260   4.789 -31.463  1.00  0.00     0.008 C 
HETATM    6  C   UNL     1      -5.256   6.177 -30.754  1.00  0.00     0.020 C 
HETATM    7  C   UNL     1      -3.769   4.436 -31.759  1.00  0.00     0.128 C 
HETATM    8  C   UNL     1      -3.574   2.995 -32.212  1.00  0.00     0.033 C 
HETATM    9  C   UNL     1      -4.073   2.031 -31.148  1.00  0.00     0.013 C 
HETATM   10  C   UNL     1      -7.351   3.935 -30.090  1.00  0.00     0.054 C 
HETATM   11  C   UNL     1      -8.253   3.245 -31.047  1.00  0.00     0.010 A 
HETATM   12  C   UNL     1      -7.904   2.232 -31.910  1.00  0.00     0.054 A 
HETATM   13  N   UNL     1      -8.923   1.810 -32.742  1.00  0.00    -0.244 NA
HETATM   14  C   UNL     1     -10.049   2.443 -32.457  1.00  0.00     0.110 A 
HETATM   15  S   UNL     1      -9.901   3.626 -31.208  1.00  0.00    -0.072 SA
ENDROOT
BRANCH   1  16
HETATM   16  C   UNL     1      -6.618   0.113 -32.202  1.00  0.00     0.114 C 
BRANCH  16  17
HETATM   17  C   UNL     1      -5.522  -0.510 -33.031  1.00  0.00     0.218 C 
HETATM   18  N   UNL     1      -4.595  -1.228 -32.314  1.00  0.00    -0.359 N 
HETATM   19  H   UNL     1      -4.561  -1.147 -31.306  1.00  0.00     0.162 HD
HETATM   20  O   UNL     1      -5.471  -0.376 -34.249  1.00  0.00    -0.274 OA
BRANCH  18  21
HETATM   21  C   UNL     1      -3.494  -1.918 -32.970  1.00  0.00     0.142 C 
BRANCH  21  22
HETATM   22  C   UNL     1      -3.858  -3.349 -33.381  1.00  0.00     0.142 C 
BRANCH  22  23
HETATM   23  N   UNL     1      -5.007  -3.402 -34.272  1.00  0.00    -0.360 N 
HETATM   24  C   UNL     1      -5.484  -4.598 -34.754  1.00  0.00     0.213 C 
HETATM   25  C   UNL     1      -6.699  -4.474 -35.634  1.00  0.00     0.117 C 
HETATM   26  O   UNL     1      -4.976  -5.682 -34.495  1.00  0.00    -0.274 OA
HETATM   27  H   UNL     1      -5.463  -2.533 -34.516  1.00  0.00     0.162 HD
ENDBRANCH  22  23
ENDBRANCH  21  22
ENDBRANCH  18  21
ENDBRANCH  16  17
ENDBRANCH   1  16
BRANCH   5  28
HETATM   28  C   UNL     1      -6.073   4.962 -32.777  1.00  0.00     0.176 C 
BRANCH  28  29
HETATM   29  O   UNL     1      -5.972   6.282 -33.309  1.00  0.00    -0.400 OA
HETATM   30  H   UNL     1      -6.129   6.888 -32.554  1.00  0.00     0.209 HD
ENDBRANCH  28  29
ENDBRANCH   5  28
BRANCH  14  31
HETATM   31  C   UNL     1     -11.323   2.217 -33.156  1.00  0.00     0.017 A 
HETATM   32  C   UNL     1     -12.276   3.211 -33.370  1.00  0.00     0.130 A 
HETATM   33  N   UNL     1     -13.460   3.024 -34.011  1.00  0.00    -0.272 NA
HETATM   34  C   UNL     1     -13.714   1.780 -34.463  1.00  0.00     0.116 A 
HETATM   35  C   UNL     1     -12.846   0.715 -34.301  1.00  0.00     0.020 A 
HETATM   36  C   UNL     1     -11.641   0.941 -33.637  1.00  0.00     0.017 A 
ENDBRANCH  14  31
BRANCH   7  37
HETATM   37  O   UNL     1      -3.213   5.280 -32.769  1.00  0.00    -0.395 OA
HETATM   38  H   UNL     1      -2.432   4.822 -33.132  1.00  0.00     0.210 HD
ENDBRANCH   7  37
TORSDOF 9
ENDMDL
MODEL 5
REMARK VINA RESULT:      -7.8      2.241      2.849
REMARK  9 active torsions:
REMARK  status: ('A' for Active; 'I' for Inactive)
REMARK       I    between atoms: C_2  and  N_3 
REMARK    1  A    between atoms: N_3  and  C_4 
REMARK    2  A    between atoms: C_4  and  C_5 
REMARK    3  A    between atoms: C_5  and  N_6 
REMARK       I    between atoms: N_6  and  C_7 
REMARK    4  A    between atoms: C_7  and  C_8 
REMARK    5  A    between atoms: C_8  and  C_9 
REMARK    6  A    between atoms: C_13  and  C_14 
REMARK    7  A    between atoms: C_14  and  O_15 
REMARK    8  A    between atoms: C_17  and  O_18 
REMARK    9  A    between atoms: C_25  and  C_26 
ROOT
HETATM    1  C   UNL     1      -7.117   3.752 -32.855  1.00  0.00     0.056 C 
HETATM    2  C   UNL     1      -8.177   4.539 -31.955  1.00  0.00    -0.030 C 
HETATM    3  C   UNL     1      -7.711   4.521 -30.470  1.00  0.00     0.016 C 
HETATM    4  C   UNL     1      -9.640   3.898 -32.027  1.00  0.00     0.012 C 
HETATM    5  C   UNL     1     -10.480   4.199 -33.346  1.00  0.00     0.008 C 
HETATM    6  C   UNL     1     -11.979   3.872 -33.075  1.00  0.00     0.020 C 
HETATM    7  C   UNL     1     -10.406   5.726 -33.658  1.00  0.00     0.128 C 
HETATM    8  C   UNL     1      -8.981   6.262 -33.687  1.00  0.00     0.033 C 
HETATM    9  C   UNL     1      -8.299   6.033 -32.349  1.00  0.00     0.013 C 
HETATM   10  C   UNL     1      -9.627   2.404 -31.601  1.00  0.00     0.054 C 
HETATM   11  C   UNL     1      -8.491   1.686 -32.231  1.00  0.00     0.010 A 
HETATM   12  C   UNL     1      -7.372   2.260 -32.788  1.00  0.00     0.054 A 
HETATM   13  N   UNL     1      -6.494   1.362 -33.367  1.00  0.00    -0.244 NA
HETATM   14  C   UNL     1      -6.907   0.120 -33.179  1.00  0.00     0.110 A 
HETATM   15  S   UNL     1      -8.415  -0.008 -32.346  1.00  0.00    -0.072 SA
ENDROOT
BRANCH   1  16
HETATM   16  C   UNL     1      -5.620   4.023 -32.566  1.00  0.00     0.114 C 
BRANCH  16  17
HETATM   17  C   UNL     1      -4.877   4.729 -33.672  1.00  0.00     0.218 C 
HETATM   18  N   UNL     1      -3.508   4.613 -33.614  1.00  0.00    -0.359 N 
HETATM   19  H   UNL     1      -3.066   4.261 -32.774  1.00  0.00     0.162 HD
HETATM   20  O   UNL     1      -5.460   5.358 -34.550  1.00  0.00    -0.274 OA
BRANCH  18  21
HETATM   21  C   UNL     1      -2.651   5.209 -34.627  1.00  0.00     0.142 C 
BRANCH  21  22
HETATM   22  C   UNL     1      -2.114   6.583 -34.210  1.00  0.00     0.142 C 
BRANCH  22  23
HETATM   23  N   UNL     1      -1.392   6.544 -32.947  1.00  0.00    -0.360 N 
HETATM   24  C   UNL     1      -1.310   7.650 -32.135  1.00  0.00     0.213 C 
HETATM   25  C   UNL     1      -0.556   7.426 -30.852  1.00  0.00     0.117 C 
HETATM   26  O   UNL     1      -1.807   8.735 -32.418  1.00  0.00    -0.274 OA
HETATM   27  H   UNL     1      -0.964   5.672 -32.669  1.00  0.00     0.162 HD
ENDBRANCH  22  23
ENDBRANCH  21  22
ENDBRANCH  18  21
ENDBRANCH  16  17
ENDBRANCH   1  16
BRANCH   5  28
HETATM   28  C   UNL     1     -10.053   3.347 -34.574  1.00  0.00     0.176 C 
BRANCH  28  29
HETATM   29  O   UNL     1     -11.085   2.465 -35.009  1.00  0.00    -0.400 OA
HETATM   30  H   UNL     1     -11.166   2.603 -35.977  1.00  0.00     0.209 HD
ENDBRANCH  28  29
ENDBRANCH   5  28
BRANCH  14  31
HETATM   31  C   UNL     1      -6.193  -1.070 -33.664  1.00  0.00     0.017 A 
HETATM   32  C   UNL     1      -4.843  -1.315 -33.421  1.00  0.00     0.130 A 
HETATM   33  N   UNL     1      -4.162  -2.406 -33.861  1.00  0.00    -0.272 NA
HETATM   34  C   UNL     1      -4.860  -3.304 -34.587  1.00  0.00     0.116 A 
HETATM   35  C   UNL     1      -6.200  -3.160 -34.897  1.00  0.00     0.020 A 
HETATM   36  C   UNL     1      -6.868  -2.028 -34.432  1.00  0.00     0.017 A 
ENDBRANCH  14  31
BRANCH   7  37
HETATM   37  O   UNL     1     -11.007   6.040 -34.916  1.00  0.00    -0.395 OA
HETATM   38  H   UNL     1     -10.415   5.700 -35.613  1.00  0.00     0.210 HD
ENDBRANCH   7  37
TORSDOF 9
ENDMDL
MODEL 6
REMARK VINA RESULT:      -7.8      6.276     11.294
REMARK  9 active torsions:
REMARK  status: ('A' for Active; 'I' for Inactive)
REMARK       I    between atoms: C_2  and  N_3 
REMARK    1  A    between atoms: N_3  and  C_4 
REMARK    2  A    between atoms: C_4  and  C_5 
REMARK    3  A    between atoms: C_5  and  N_6 
REMARK       I    between atoms: N_6  and  C_7 
REMARK    4  A    between atoms: C_7  and  C_8 
REMARK    5  A    between atoms: C_8  and  C_9 
REMARK    6  A    between atoms: C_13  and  C_14 
REMARK    7  A    between atoms: C_14  and  O_15 
REMARK    8  A    between atoms: C_17  and  O_18 
REMARK    9  A    between atoms: C_25  and  C_26 
ROOT
HETATM    1  C   UNL     1      -0.490   8.447 -27.084  1.00  0.00     0.056 C 
HETATM    2  C   UNL     1      -1.771   9.272 -27.566  1.00  0.00    -0.030 C 
HETATM    3  C   UNL     1      -1.317  10.458 -28.466  1.00  0.00     0.016 C 
HETATM    4  C   UNL     1      -2.615   9.866 -26.345  1.00  0.00     0.012 C 
HETATM    5  C   UNL     1      -3.530   8.835 -25.549  1.00  0.00     0.008 C 
HETATM    6  C   UNL     1      -4.568   9.631 -24.702  1.00  0.00     0.020 C 
HETATM    7  C   UNL     1      -4.348   7.987 -26.573  1.00  0.00     0.128 C 
HETATM    8  C   UNL     1      -3.481   7.352 -27.651  1.00  0.00     0.033 C 
HETATM    9  C   UNL     1      -2.735   8.421 -28.432  1.00  0.00     0.013 C 
HETATM   10  C   UNL     1      -1.739  10.777 -25.441  1.00  0.00     0.054 C 
HETATM   11  C   UNL     1      -0.423  10.146 -25.172  1.00  0.00     0.010 A 
HETATM   12  C   UNL     1       0.149   9.118 -25.884  1.00  0.00     0.054 A 
HETATM   13  N   UNL     1       1.356   8.672 -25.380  1.00  0.00    -0.244 NA
HETATM   14  C   UNL     1       1.729   9.406 -24.345  1.00  0.00     0.110 A 
HETATM   15  S   UNL     1       0.595  10.631 -23.900  1.00  0.00    -0.072 SA
ENDROOT
BRANCH   1  16
HETATM   16  C   UNL     1       0.600   8.169 -28.148  1.00  0.00     0.114 C 
BRANCH  16  17
HETATM   17  C   UNL     1       0.503   6.821 -28.819  1.00  0.00     0.218 C 
HETATM   18  N   UNL     1       0.361   6.866 -30.185  1.00  0.00    -0.359 N 
HETATM   19  H   UNL     1       0.131   7.739 -30.641  1.00  0.00     0.162 HD
HETATM   20  O   UNL     1       0.547   5.773 -28.183  1.00  0.00    -0.274 OA
BRANCH  18  21
HETATM   21  C   UNL     1       0.287   5.651 -30.982  1.00  0.00     0.142 C 
BRANCH  21  22
HETATM   22  C   UNL     1      -1.156   5.208 -31.248  1.00  0.00     0.142 C 
BRANCH  22  23
HETATM   23  N   UNL     1      -1.371   4.790 -32.625  1.00  0.00    -0.360 N 
HETATM   24  C   UNL     1      -1.667   5.700 -33.611  1.00  0.00     0.213 C 
HETATM   25  C   UNL     1      -1.824   5.103 -34.984  1.00  0.00     0.117 C 
HETATM   26  O   UNL     1      -1.793   6.902 -33.406  1.00  0.00    -0.274 OA
HETATM   27  H   UNL     1      -1.278   3.808 -32.846  1.00  0.00     0.162 HD
ENDBRANCH  22  23
ENDBRANCH  21  22
ENDBRANCH  18  21
ENDBRANCH  16  17
ENDBRANCH   1  16
BRANCH   5  28
HETATM   28  C   UNL     1      -2.747   7.928 -24.559  1.00  0.00     0.176 C 
BRANCH  28  29
HETATM   29  O   UNL     1      -2.933   8.319 -23.200  1.00  0.00    -0.400 OA
HETATM   30  H   UNL     1      -2.130   8.018 -22.722  1.00  0.00     0.209 HD
ENDBRANCH  28  29
ENDBRANCH   5  28
BRANCH  14  31
HETATM   31  C   UNL     1       2.971   9.195 -23.588  1.00  0.00     0.017 A 
HETATM   32  C   UNL     1       4.228   9.600 -24.034  1.00  0.00     0.130 A 
HETATM   33  N   UNL     1       5.388   9.413 -23.351  1.00  0.00    -0.272 NA
HETATM   34  C   UNL     1       5.298   8.788 -22.160  1.00  0.00     0.116 A 
HETATM   35  C   UNL     1       4.106   8.336 -21.622  1.00  0.00     0.020 A 
HETATM   36  C   UNL     1       2.934   8.541 -22.350  1.00  0.00     0.017 A 
ENDBRANCH  14  31
BRANCH   7  37
HETATM   37  O   UNL     1      -5.072   6.935 -25.932  1.00  0.00    -0.395 OA
HETATM   38  H   UNL     1      -5.049   6.163 -26.527  1.00  0.00     0.210 HD
ENDBRANCH   7  37
TORSDOF 9
ENDMDL
MODEL 7
REMARK VINA RESULT:      -7.6      3.105      6.642
REMARK  9 active torsions:
REMARK  status: ('A' for Active; 'I' for Inactive)
REMARK       I    between atoms: C_2  and  N_3 
REMARK    1  A    between atoms: N_3  and  C_4 
REMARK    2  A    between atoms: C_4  and  C_5 
REMARK    3  A    between atoms: C_5  and  N_6 
REMARK       I    between atoms: N_6  and  C_7 
REMARK    4  A    between atoms: C_7  and  C_8 
REMARK    5  A    between atoms: C_8  and  C_9 
REMARK    6  A    between atoms: C_13  and  C_14 
REMARK    7  A    between atoms: C_14  and  O_15 
REMARK    8  A    between atoms: C_17  and  O_18 
REMARK    9  A    between atoms: C_25  and  C_26 
ROOT
HETATM    1  C   UNL     1      -5.813   3.828 -32.805  1.00  0.00     0.056 C 
HETATM    2  C   UNL     1      -7.039   2.804 -32.852  1.00  0.00    -0.030 C 
HETATM    3  C   UNL     1      -8.365   3.590 -33.070  1.00  0.00     0.016 C 
HETATM    4  C   UNL     1      -7.180   1.952 -31.507  1.00  0.00     0.012 C 
HETATM    5  C   UNL     1      -6.142   0.760 -31.312  1.00  0.00     0.008 C 
HETATM    6  C   UNL     1      -6.673  -0.195 -30.201  1.00  0.00     0.020 C 
HETATM    7  C   UNL     1      -6.079  -0.078 -32.627  1.00  0.00     0.128 C 
HETATM    8  C   UNL     1      -5.832   0.772 -33.867  1.00  0.00     0.033 C 
HETATM    9  C   UNL     1      -6.934   1.804 -34.032  1.00  0.00     0.013 C 
HETATM   10  C   UNL     1      -7.339   2.873 -30.266  1.00  0.00     0.054 C 
HETATM   11  C   UNL     1      -6.369   3.995 -30.313  1.00  0.00     0.010 A 
HETATM   12  C   UNL     1      -5.685   4.435 -31.423  1.00  0.00     0.054 A 
HETATM   13  N   UNL     1      -4.790   5.460 -31.177  1.00  0.00    -0.244 NA
HETATM   14  C   UNL     1      -4.854   5.840 -29.912  1.00  0.00     0.110 A 
HETATM   15  S   UNL     1      -5.960   4.926 -28.951  1.00  0.00    -0.072 SA
ENDROOT
BRANCH   1  16
HETATM   16  C   UNL     1      -5.813   4.963 -33.859  1.00  0.00     0.114 C 
BRANCH  16  17
HETATM   17  C   UNL     1      -4.488   5.198 -34.540  1.00  0.00     0.218 C 
HETATM   18  N   UNL     1      -3.574   5.904 -33.794  1.00  0.00    -0.359 N 
HETATM   19  H   UNL     1      -3.871   6.390 -32.957  1.00  0.00     0.162 HD
HETATM   20  O   UNL     1      -4.256   4.787 -35.672  1.00  0.00    -0.274 OA
BRANCH  18  21
HETATM   21  C   UNL     1      -2.237   6.184 -34.296  1.00  0.00     0.142 C 
BRANCH  21  22
HETATM   22  C   UNL     1      -1.140   5.552 -33.432  1.00  0.00     0.142 C 
BRANCH  22  23
HETATM   23  N   UNL     1      -0.772   6.382 -32.296  1.00  0.00    -0.360 N 
HETATM   24  C   UNL     1       0.019   5.898 -31.281  1.00  0.00     0.213 C 
HETATM   25  C   UNL     1       0.331   6.900 -30.202  1.00  0.00     0.117 C 
HETATM   26  O   UNL     1       0.445   4.749 -31.246  1.00  0.00    -0.274 OA
HETATM   27  H   UNL     1      -1.099   7.339 -32.277  1.00  0.00     0.162 HD
ENDBRANCH  22  23
ENDBRANCH  21  22
ENDBRANCH  18  21
ENDBRANCH  16  17
ENDBRANCH   1  16
BRANCH   5  28
HETATM   28  C   UNL     1      -4.727   1.221 -30.865  1.00  0.00     0.176 C 
BRANCH  28  29
HETATM   29  O   UNL     1      -3.924   0.139 -30.398  1.00  0.00    -0.400 OA
HETATM   30  H   UNL     1      -3.644   0.385 -29.490  1.00  0.00     0.209 HD
ENDBRANCH  28  29
ENDBRANCH   5  28
BRANCH  14  31
HETATM   31  C   UNL     1      -4.036   6.914 -29.331  1.00  0.00     0.017 A 
HETATM   32  C   UNL     1      -3.341   7.855 -30.089  1.00  0.00     0.130 A 
HETATM   33  N   UNL     1      -2.578   8.854 -29.573  1.00  0.00    -0.272 NA
HETATM   34  C   UNL     1      -2.496   8.922 -28.229  1.00  0.00     0.116 A 
HETATM   35  C   UNL     1      -3.135   8.038 -27.378  1.00  0.00     0.020 A 
HETATM   36  C   UNL     1      -3.908   7.024 -27.940  1.00  0.00     0.017 A 
ENDBRANCH  14  31
BRANCH   7  37
HETATM   37  O   UNL     1      -5.050  -1.069 -32.576  1.00  0.00    -0.395 OA
HETATM   38  H   UNL     1      -4.450  -0.826 -31.847  1.00  0.00     0.210 HD
ENDBRANCH   7  37
TORSDOF 9
ENDMDL
MODEL 8
REMARK VINA RESULT:      -7.5      3.467      7.394
REMARK  9 active torsions:
REMARK  status: ('A' for Active; 'I' for Inactive)
REMARK       I    between atoms: C_2  and  N_3 
REMARK    1  A    between atoms: N_3  and  C_4 
REMARK    2  A    between atoms: C_4  and  C_5 
REMARK    3  A    between atoms: C_5  and  N_6 
REMARK       I    between atoms: N_6  and  C_7 
REMARK    4  A    between atoms: C_7  and  C_8 
REMARK    5  A    between atoms: C_8  and  C_9 
REMARK    6  A    between atoms: C_13  and  C_14 
REMARK    7  A    between atoms: C_14  and  O_15 
REMARK    8  A    between atoms: C_17  and  O_18 
REMARK    9  A    between atoms: C_25  and  C_26 
ROOT
HETATM    1  C   UNL     1      -6.469   3.033 -32.118  1.00  0.00     0.056 C 
HETATM    2  C   UNL     1      -5.361   3.657 -31.150  1.00  0.00    -0.030 C 
HETATM    3  C   UNL     1      -5.929   3.752 -29.704  1.00  0.00     0.016 C 
HETATM    4  C   UNL     1      -4.904   5.121 -31.603  1.00  0.00     0.012 C 
HETATM    5  C   UNL     1      -3.915   5.200 -32.848  1.00  0.00     0.008 C 
HETATM    6  C   UNL     1      -3.258   6.612 -32.883  1.00  0.00     0.020 C 
HETATM    7  C   UNL     1      -2.756   4.175 -32.643  1.00  0.00     0.128 C 
HETATM    8  C   UNL     1      -3.250   2.770 -32.323  1.00  0.00     0.033 C 
HETATM    9  C   UNL     1      -4.089   2.777 -31.056  1.00  0.00     0.013 C 
HETATM   10  C   UNL     1      -6.112   6.094 -31.681  1.00  0.00     0.054 C 
HETATM   11  C   UNL     1      -7.264   5.453 -32.363  1.00  0.00     0.010 A 
HETATM   12  C   UNL     1      -7.443   4.104 -32.566  1.00  0.00     0.054 A 
HETATM   13  N   UNL     1      -8.575   3.777 -33.289  1.00  0.00    -0.244 NA
HETATM   14  C   UNL     1      -9.282   4.861 -33.562  1.00  0.00     0.110 A 
HETATM   15  S   UNL     1      -8.568   6.332 -33.006  1.00  0.00    -0.072 SA
ENDROOT
BRANCH   1  16
HETATM   16  C   UNL     1      -7.264   1.820 -31.575  1.00  0.00     0.114 C 
BRANCH  16  17
HETATM   17  C   UNL     1      -6.838   0.483 -32.128  1.00  0.00     0.218 C 
HETATM   18  N   UNL     1      -7.600   0.023 -33.176  1.00  0.00    -0.359 N 
HETATM   19  H   UNL     1      -8.485   0.464 -33.390  1.00  0.00     0.162 HD
HETATM   20  O   UNL     1      -5.885  -0.138 -31.668  1.00  0.00    -0.274 OA
BRANCH  18  21
HETATM   21  C   UNL     1      -7.297  -1.235 -33.841  1.00  0.00     0.142 C 
BRANCH  21  22
HETATM   22  C   UNL     1      -5.978  -1.186 -34.621  1.00  0.00     0.142 C 
BRANCH  22  23
HETATM   23  N   UNL     1      -4.969  -2.080 -34.073  1.00  0.00    -0.360 N 
HETATM   24  C   UNL     1      -4.866  -3.386 -34.489  1.00  0.00     0.213 C 
HETATM   25  C   UNL     1      -3.746  -4.158 -33.845  1.00  0.00     0.117 C 
HETATM   26  O   UNL     1      -5.616  -3.892 -35.316  1.00  0.00    -0.274 OA
HETATM   27  H   UNL     1      -4.326  -1.709 -33.386  1.00  0.00     0.162 HD
ENDBRANCH  22  23
ENDBRANCH  21  22
ENDBRANCH  18  21
ENDBRANCH  16  17
ENDBRANCH   1  16
BRANCH   5  28
HETATM   28  C   UNL     1      -4.612   4.999 -34.223  1.00  0.00     0.176 C 
BRANCH  28  29
HETATM   29  O   UNL     1      -3.866   5.563 -35.300  1.00  0.00    -0.400 OA
HETATM   30  H   UNL     1      -3.569   6.444 -34.986  1.00  0.00     0.209 HD
ENDBRANCH  28  29
ENDBRANCH   5  28
BRANCH  14  31
HETATM   31  C   UNL     1     -10.546   4.855 -34.312  1.00  0.00     0.017 A 
HETATM   32  C   UNL     1     -11.420   5.939 -34.367  1.00  0.00     0.130 A 
HETATM   33  N   UNL     1     -12.594   5.954 -35.052  1.00  0.00    -0.272 NA
HETATM   34  C   UNL     1     -12.922   4.828 -35.717  1.00  0.00     0.116 A 
HETATM   35  C   UNL     1     -12.137   3.689 -35.726  1.00  0.00     0.020 A 
HETATM   36  C   UNL     1     -10.940   3.707 -35.012  1.00  0.00     0.017 A 
ENDBRANCH  14  31
BRANCH   7  37
HETATM   37  O   UNL     1      -1.919   4.080 -33.797  1.00  0.00    -0.395 OA
HETATM   38  H   UNL     1      -1.232   3.416 -33.603  1.00  0.00     0.210 HD
ENDBRANCH   7  37
TORSDOF 9
ENDMDL
MODEL 9
REMARK VINA RESULT:      -7.4     17.391     19.915
REMARK  9 active torsions:
REMARK  status: ('A' for Active; 'I' for Inactive)
REMARK       I    between atoms: C_2  and  N_3 
REMARK    1  A    between atoms: N_3  and  C_4 
REMARK    2  A    between atoms: C_4  and  C_5 
REMARK    3  A    between atoms: C_5  and  N_6 
REMARK       I    between atoms: N_6  and  C_7 
REMARK    4  A    between atoms: C_7  and  C_8 
REMARK    5  A    between atoms: C_8  and  C_9 
REMARK    6  A    between atoms: C_13  and  C_14 
REMARK    7  A    between atoms: C_14  and  O_15 
REMARK    8  A    between atoms: C_17  and  O_18 
REMARK    9  A    between atoms: C_25  and  C_26 
ROOT
HETATM    1  C   UNL     1      -3.649 -13.837 -37.844  1.00  0.00     0.056 C 
HETATM    2  C   UNL     1      -2.136 -13.718 -38.345  1.00  0.00    -0.030 C 
HETATM    3  C   UNL     1      -1.754 -12.217 -38.493  1.00  0.00     0.016 C 
HETATM    4  C   UNL     1      -1.897 -14.435 -39.754  1.00  0.00     0.012 C 
HETATM    5  C   UNL     1      -1.806 -16.024 -39.733  1.00  0.00     0.008 C 
HETATM    6  C   UNL     1      -1.169 -16.511 -41.070  1.00  0.00     0.020 C 
HETATM    7  C   UNL     1      -0.837 -16.462 -38.592  1.00  0.00     0.128 C 
HETATM    8  C   UNL     1      -1.177 -15.837 -37.246  1.00  0.00     0.033 C 
HETATM    9  C   UNL     1      -1.126 -14.321 -37.336  1.00  0.00     0.013 C 
HETATM   10  C   UNL     1      -2.838 -13.861 -40.849  1.00  0.00     0.054 C 
HETATM   11  C   UNL     1      -4.224 -13.720 -40.335  1.00  0.00     0.010 A 
HETATM   12  C   UNL     1      -4.604 -13.704 -39.013  1.00  0.00     0.054 A 
HETATM   13  N   UNL     1      -5.969 -13.627 -38.810  1.00  0.00    -0.244 NA
HETATM   14  C   UNL     1      -6.606 -13.506 -39.963  1.00  0.00     0.110 A 
HETATM   15  S   UNL     1      -5.576 -13.546 -41.349  1.00  0.00    -0.072 SA
ENDROOT
BRANCH   1  16
HETATM   16  C   UNL     1      -4.088 -12.867 -36.719  1.00  0.00     0.114 C 
BRANCH  16  17
HETATM   17  C   UNL     1      -4.462 -13.532 -35.418  1.00  0.00     0.218 C 
HETATM   18  N   UNL     1      -5.329 -12.812 -34.630  1.00  0.00    -0.359 N 
HETATM   19  H   UNL     1      -5.508 -11.838 -34.837  1.00  0.00     0.162 HD
HETATM   20  O   UNL     1      -4.020 -14.630 -35.097  1.00  0.00    -0.274 OA
BRANCH  18  21
HETATM   21  C   UNL     1      -5.812 -13.331 -33.360  1.00  0.00     0.142 C 
BRANCH  21  22
HETATM   22  C   UNL     1      -6.968 -14.322 -33.530  1.00  0.00     0.142 C 
BRANCH  22  23
HETATM   23  N   UNL     1      -7.039 -15.293 -32.450  1.00  0.00    -0.360 N 
HETATM   24  C   UNL     1      -6.497 -16.550 -32.578  1.00  0.00     0.213 C 
HETATM   25  C   UNL     1      -6.628 -17.414 -31.353  1.00  0.00     0.117 C 
HETATM   26  O   UNL     1      -5.945 -16.946 -33.599  1.00  0.00    -0.274 OA
HETATM   27  H   UNL     1      -7.485 -15.015 -31.586  1.00  0.00     0.162 HD
ENDBRANCH  22  23
ENDBRANCH  21  22
ENDBRANCH  18  21
ENDBRANCH  16  17
ENDBRANCH   1  16
BRANCH   5  28
HETATM   28  C   UNL     1      -3.184 -16.735 -39.612  1.00  0.00     0.176 C 
BRANCH  28  29
HETATM   29  O   UNL     1      -3.176 -18.039 -40.189  1.00  0.00    -0.400 OA
HETATM   30  H   UNL     1      -4.117 -18.272 -40.337  1.00  0.00     0.209 HD
ENDBRANCH  28  29
ENDBRANCH   5  28
BRANCH  14  31
HETATM   31  C   UNL     1      -8.066 -13.392 -40.092  1.00  0.00     0.017 A 
HETATM   32  C   UNL     1      -8.741 -12.178 -40.200  1.00  0.00     0.130 A 
HETATM   33  N   UNL     1     -10.089 -12.049 -40.318  1.00  0.00    -0.272 NA
HETATM   34  C   UNL     1     -10.808 -13.189 -40.326  1.00  0.00     0.116 A 
HETATM   35  C   UNL     1     -10.247 -14.449 -40.216  1.00  0.00     0.020 A 
HETATM   36  C   UNL     1      -8.861 -14.545 -40.095  1.00  0.00     0.017 A 
ENDBRANCH  14  31
BRANCH   7  37
HETATM   37  O   UNL     1      -0.832 -17.880 -38.415  1.00  0.00    -0.395 OA
HETATM   38  H   UNL     1       0.057 -18.130 -38.099  1.00  0.00     0.210 HD
ENDBRANCH   7  37
TORSDOF 9
ENDMDL
MODEL 10
REMARK VINA RESULT:      -7.3      3.633      6.988
REMARK  9 active torsions:
REMARK  status: ('A' for Active; 'I' for Inactive)
REMARK       I    between atoms: C_2  and  N_3 
REMARK    1  A    between atoms: N_3  and  C_4 
REMARK    2  A    between atoms: C_4  and  C_5 
REMARK    3  A    between atoms: C_5  and  N_6 
REMARK       I    between atoms: N_6  and  C_7 
REMARK    4  A    between atoms: C_7  and  C_8 
REMARK    5  A    between atoms: C_8  and  C_9 
REMARK    6  A    between atoms: C_13  and  C_14 
REMARK    7  A    between atoms: C_14  and  O_15 
REMARK    8  A    between atoms: C_17  and  O_18 
REMARK    9  A    between atoms: C_25  and  C_26 
ROOT
HETATM    1  C   UNL     1      -3.932   4.895 -31.287  1.00  0.00     0.056 C 
HETATM    2  C   UNL     1      -4.389   4.061 -32.571  1.00  0.00    -0.030 C 
HETATM    3  C   UNL     1      -4.457   5.006 -33.807  1.00  0.00     0.016 C 
HETATM    4  C   UNL     1      -5.824   3.381 -32.384  1.00  0.00     0.012 C 
HETATM    5  C   UNL     1      -5.875   2.077 -31.471  1.00  0.00     0.008 C 
HETATM    6  C   UNL     1      -7.216   1.329 -31.735  1.00  0.00     0.020 C 
HETATM    7  C   UNL     1      -4.732   1.109 -31.905  1.00  0.00     0.128 C 
HETATM    8  C   UNL     1      -3.366   1.781 -31.960  1.00  0.00     0.033 C 
HETATM    9  C   UNL     1      -3.384   2.941 -32.942  1.00  0.00     0.013 C 
HETATM   10  C   UNL     1      -6.913   4.438 -32.054  1.00  0.00     0.054 C 
HETATM   11  C   UNL     1      -6.427   5.397 -31.030  1.00  0.00     0.010 A 
HETATM   12  C   UNL     1      -5.116   5.616 -30.676  1.00  0.00     0.054 A 
HETATM   13  N   UNL     1      -4.943   6.519 -29.644  1.00  0.00    -0.244 NA
HETATM   14  C   UNL     1      -6.105   7.033 -29.276  1.00  0.00     0.110 A 
HETATM   15  S   UNL     1      -7.465   6.393 -30.125  1.00  0.00    -0.072 SA
ENDROOT
BRANCH   1  16
HETATM   16  C   UNL     1      -2.774   5.904 -31.488  1.00  0.00     0.114 C 
BRANCH  16  17
HETATM   17  C   UNL     1      -1.414   5.401 -31.071  1.00  0.00     0.218 C 
HETATM   18  N   UNL     1      -0.968   5.879 -29.862  1.00  0.00    -0.359 N 
HETATM   19  H   UNL     1      -1.439   6.659 -29.422  1.00  0.00     0.162 HD
HETATM   20  O   UNL     1      -0.765   4.628 -31.767  1.00  0.00    -0.274 OA
BRANCH  18  21
HETATM   21  C   UNL     1       0.309   5.463 -29.304  1.00  0.00     0.142 C 
BRANCH  21  22
HETATM   22  C   UNL     1       0.510   5.950 -27.865  1.00  0.00     0.142 C 
BRANCH  22  23
HETATM   23  N   UNL     1      -0.733   6.001 -27.111  1.00  0.00    -0.360 N 
HETATM   24  C   UNL     1      -1.021   7.053 -26.274  1.00  0.00     0.213 C 
HETATM   25  C   UNL     1      -2.363   6.963 -25.599  1.00  0.00     0.117 C 
HETATM   26  O   UNL     1      -0.259   7.995 -26.086  1.00  0.00    -0.274 OA
HETATM   27  H   UNL     1      -1.396   5.247 -27.231  1.00  0.00     0.162 HD
ENDBRANCH  22  23
ENDBRANCH  21  22
ENDBRANCH  18  21
ENDBRANCH  16  17
ENDBRANCH   1  16
BRANCH   5  28
HETATM   28  C   UNL     1      -5.821   2.371 -29.945  1.00  0.00     0.176 C 
BRANCH  28  29
HETATM   29  O   UNL     1      -6.367   1.308 -29.167  1.00  0.00    -0.400 OA
HETATM   30  H   UNL     1      -6.402   1.642 -28.245  1.00  0.00     0.209 HD
ENDBRANCH  28  29
ENDBRANCH   5  28
BRANCH  14  31
HETATM   31  C   UNL     1      -6.265   8.030 -28.207  1.00  0.00     0.017 A 
HETATM   32  C   UNL     1      -7.497   8.404 -27.674  1.00  0.00     0.130 A 
HETATM   33  N   UNL     1      -7.668   9.324 -26.689  1.00  0.00    -0.272 NA
HETATM   34  C   UNL     1      -6.553   9.910 -26.207  1.00  0.00     0.116 A 
HETATM   35  C   UNL     1      -5.279   9.624 -26.665  1.00  0.00     0.020 A 
HETATM   36  C   UNL     1      -5.140   8.676 -27.679  1.00  0.00     0.017 A 
ENDBRANCH  14  31
BRANCH   7  37
HETATM   37  O   UNL     1      -4.621  -0.011 -31.023  1.00  0.00    -0.395 OA
HETATM   38  H   UNL     1      -5.305   0.093 -30.336  1.00  0.00     0.210 HD
ENDBRANCH   7  37
TORSDOF 9
ENDMDL
