MODEL 1
REMARK VINA RESULT:      -8.5      0.000      0.000
REMARK  9 active torsions:
REMARK  status: ('A' for Active; 'I' for Inactive)
REMARK    1  A    between atoms: C_2  and  C_3 
REMARK    2  A    between atoms: C_3  and  N_4 
REMARK    3  A    between atoms: N_4  and  C_7 
REMARK    4  A    between atoms: C_7  and  C_8 
REMARK       I    between atoms: C_8  and  N_9 
REMARK    5  A    between atoms: N_9  and  C_10 
REMARK    6  A    between atoms: C_16  and  C_17 
REMARK    7  A    between atoms: C_22  and  C_23 
REMARK       I    between atoms: C_23  and  N_24 
REMARK    8  A    between atoms: N_24  and  C_25 
REMARK    9  A    between atoms: C_28  and  O_29 
ROOT
HETATM    1  C   UNL     1      -6.864   3.733 -32.028  1.00  0.00     0.093 A 
HETATM    2  S   UNL     1      -6.472   5.374 -31.928  1.00  0.00    -0.075 SA
HETATM    3  C   UNL     1      -4.810   5.039 -31.934  1.00  0.00    -0.008 A 
HETATM    4  C   UNL     1      -4.532   3.688 -32.063  1.00  0.00    -0.026 A 
HETATM    5  C   UNL     1      -3.105   3.216 -32.087  1.00  0.00     0.041 C 
HETATM    6  C   UNL     1      -2.125   4.260 -31.531  1.00  0.00     0.010 C 
HETATM    7  C   UNL     1      -2.373   5.672 -32.127  1.00  0.00    -0.002 C 
HETATM    8  C   UNL     1      -3.805   6.141 -31.754  1.00  0.00     0.052 C 
HETATM    9  C   UNL     1      -5.751   2.901 -32.132  1.00  0.00     0.073 A 
ENDROOT
BRANCH   1  10
HETATM   10  N   UNL     1      -8.182   3.303 -31.955  1.00  0.00    -0.319 N 
HETATM   11  C   UNL     1      -9.177   3.497 -32.882  1.00  0.00     0.248 C 
HETATM   12  O   UNL     1      -9.096   3.984 -34.008  1.00  0.00    -0.271 OA
HETATM   13  H   UNL     1      -8.360   2.721 -31.131  1.00  0.00     0.169 HD
BRANCH  11  14
HETATM   14  C   UNL     1     -10.533   2.936 -32.451  1.00  0.00     0.335 C 
BRANCH  14  15
HETATM   15  N   UNL     1     -10.446   1.433 -32.299  1.00  0.00    -0.067 N 
HETATM   16  H   UNL     1     -11.058   1.210 -31.493  1.00  0.00     0.277 HD
HETATM   17  H   UNL     1      -9.493   1.155 -32.039  1.00  0.00     0.277 HD
BRANCH  15  18
HETATM   18  C   UNL     1     -10.924   0.671 -33.492  1.00  0.00     0.236 C 
BRANCH  18  19
HETATM   19  C   UNL     1     -12.333   1.122 -33.892  1.00  0.00     0.003 C 
HETATM   20  C   UNL     1     -13.312  -0.039 -33.699  1.00  0.00     0.011 C 
HETATM   21  C   UNL     1     -12.400   1.620 -35.337  1.00  0.00     0.011 C 
ENDBRANCH  18  19
ENDBRANCH  15  18
ENDBRANCH  14  15
ENDBRANCH  11  14
ENDBRANCH   1  10
BRANCH   9  22
HETATM   22  C   UNL     1      -5.943   1.437 -32.252  1.00  0.00     0.259 C 
HETATM   23  N   UNL     1      -5.601   0.881 -33.466  1.00  0.00    -0.323 N 
HETATM   24  H   UNL     1      -5.380   1.517 -34.217  1.00  0.00     0.169 HD
HETATM   25  O   UNL     1      -6.450   0.822 -31.313  1.00  0.00    -0.267 OA
BRANCH  23  26
HETATM   26  C   UNL     1      -5.583  -0.488 -33.809  1.00  0.00     0.035 A 
HETATM   27  C   UNL     1      -4.477  -1.322 -33.647  1.00  0.00     0.032 A 
HETATM   28  C   UNL     1      -4.538  -2.663 -34.040  1.00  0.00     0.039 A 
HETATM   29  C   UNL     1      -5.696  -3.191 -34.611  1.00  0.00     0.068 A 
HETATM   30  C   UNL     1      -6.806  -2.366 -34.771  1.00  0.00     0.039 A 
HETATM   31  C   UNL     1      -6.749  -1.023 -34.372  1.00  0.00     0.032 A 
BRANCH  29  32
HETATM   32  O   UNL     1      -5.612  -4.509 -34.958  1.00  0.00    -0.356 OA
HETATM   33  C   UNL     1      -4.641  -5.295 -34.278  1.00  0.00     0.210 C 
ENDBRANCH  29  32
ENDBRANCH  23  26
ENDBRANCH   9  22
BRANCH   7  34
HETATM   34  C   UNL     1      -1.254   6.714 -31.749  1.00  0.00    -0.047 C 
HETATM   35  C   UNL     1      -0.080   5.988 -31.054  1.00  0.00     0.015 C 
HETATM   36  C   UNL     1      -0.685   7.398 -33.010  1.00  0.00     0.015 C 
HETATM   37  C   UNL     1      -1.769   7.814 -30.798  1.00  0.00     0.015 C 
ENDBRANCH   7  34
TORSDOF 9
ENDMDL
MODEL 2
REMARK VINA RESULT:      -8.0      1.863      5.729
REMARK  9 active torsions:
REMARK  status: ('A' for Active; 'I' for Inactive)
REMARK    1  A    between atoms: C_2  and  C_3 
REMARK    2  A    between atoms: C_3  and  N_4 
REMARK    3  A    between atoms: N_4  and  C_7 
REMARK    4  A    between atoms: C_7  and  C_8 
REMARK       I    between atoms: C_8  and  N_9 
REMARK    5  A    between atoms: N_9  and  C_10 
REMARK    6  A    between atoms: C_16  and  C_17 
REMARK    7  A    between atoms: C_22  and  C_23 
REMARK       I    between atoms: C_23  and  N_24 
REMARK    8  A    between atoms: N_24  and  C_25 
REMARK    9  A    between atoms: C_28  and  O_29 
ROOT
HETATM    1  C   UNL     1      -5.276   1.776 -32.422  1.00  0.00     0.093 A 
HETATM    2  S   UNL     1      -3.609   2.018 -32.296  1.00  0.00    -0.075 SA
HETATM    3  C   UNL     1      -3.796   3.704 -32.265  1.00  0.00    -0.008 A 
HETATM    4  C   UNL     1      -5.122   4.101 -32.299  1.00  0.00    -0.026 A 
HETATM    5  C   UNL     1      -5.467   5.564 -32.278  1.00  0.00     0.041 C 
HETATM    6  C   UNL     1      -4.278   6.459 -32.656  1.00  0.00     0.010 C 
HETATM    7  C   UNL     1      -2.983   6.066 -31.895  1.00  0.00    -0.002 C 
HETATM    8  C   UNL     1      -2.596   4.609 -32.262  1.00  0.00     0.052 C 
HETATM    9  C   UNL     1      -6.015   2.957 -32.380  1.00  0.00     0.073 A 
ENDROOT
BRANCH   1  10
HETATM   10  N   UNL     1      -5.807   0.505 -32.602  1.00  0.00    -0.319 N 
HETATM   11  C   UNL     1      -6.366  -0.012 -33.745  1.00  0.00     0.248 C 
HETATM   12  O   UNL     1      -6.418   0.484 -34.869  1.00  0.00    -0.271 OA
HETATM   13  H   UNL     1      -5.677  -0.094 -31.782  1.00  0.00     0.169 HD
BRANCH  11  14
HETATM   14  C   UNL     1      -6.906  -1.432 -33.573  1.00  0.00     0.335 C 
BRANCH  14  15
HETATM   15  N   UNL     1      -6.168  -2.381 -34.492  1.00  0.00    -0.067 N 
HETATM   16  H   UNL     1      -6.250  -1.958 -35.435  1.00  0.00     0.277 HD
HETATM   17  H   UNL     1      -6.646  -3.289 -34.527  1.00  0.00     0.277 HD
BRANCH  15  18
HETATM   18  C   UNL     1      -4.720  -2.545 -34.163  1.00  0.00     0.236 C 
BRANCH  18  19
HETATM   19  C   UNL     1      -4.265  -3.985 -34.425  1.00  0.00     0.003 C 
HETATM   20  C   UNL     1      -5.489  -4.862 -34.700  1.00  0.00     0.011 C 
HETATM   21  C   UNL     1      -3.463  -4.567 -33.261  1.00  0.00     0.011 C 
ENDBRANCH  18  19
ENDBRANCH  15  18
ENDBRANCH  14  15
ENDBRANCH  11  14
ENDBRANCH   1  10
BRANCH   9  22
HETATM   22  C   UNL     1      -7.493   2.897 -32.456  1.00  0.00     0.259 C 
HETATM   23  N   UNL     1      -8.028   2.790 -33.722  1.00  0.00    -0.323 N 
HETATM   24  H   UNL     1      -7.394   2.898 -34.499  1.00  0.00     0.169 HD
HETATM   25  O   UNL     1      -8.150   3.015 -31.421  1.00  0.00    -0.267 OA
BRANCH  23  26
HETATM   26  C   UNL     1      -9.384   2.609 -34.069  1.00  0.00     0.035 A 
HETATM   27  C   UNL     1     -10.073   1.404 -33.932  1.00  0.00     0.032 A 
HETATM   28  C   UNL     1     -11.412   1.306 -34.327  1.00  0.00     0.039 A 
HETATM   29  C   UNL     1     -12.080   2.401 -34.875  1.00  0.00     0.068 A 
HETATM   30  C   UNL     1     -11.400   3.609 -35.010  1.00  0.00     0.039 A 
HETATM   31  C   UNL     1     -10.060   3.711 -34.608  1.00  0.00     0.032 A 
BRANCH  29  32
HETATM   32  O   UNL     1     -13.378   2.161 -35.227  1.00  0.00    -0.356 OA
HETATM   33  C   UNL     1     -14.128   1.303 -34.376  1.00  0.00     0.210 C 
ENDBRANCH  29  32
ENDBRANCH  23  26
ENDBRANCH   9  22
BRANCH   7  34
HETATM   34  C   UNL     1      -1.807   7.095 -32.092  1.00  0.00    -0.047 C 
HETATM   35  C   UNL     1      -0.513   6.532 -31.462  1.00  0.00     0.015 C 
HETATM   36  C   UNL     1      -1.521   7.329 -33.590  1.00  0.00     0.015 C 
HETATM   37  C   UNL     1      -2.102   8.461 -31.440  1.00  0.00     0.015 C 
ENDBRANCH   7  34
TORSDOF 9
ENDMDL
MODEL 3
REMARK VINA RESULT:      -8.0      1.623      2.353
REMARK  9 active torsions:
REMARK  status: ('A' for Active; 'I' for Inactive)
REMARK    1  A    between atoms: C_2  and  C_3 
REMARK    2  A    between atoms: C_3  and  N_4 
REMARK    3  A    between atoms: N_4  and  C_7 
REMARK    4  A    between atoms: C_7  and  C_8 
REMARK       I    between atoms: C_8  and  N_9 
REMARK    5  A    between atoms: N_9  and  C_10 
REMARK    6  A    between atoms: C_16  and  C_17 
REMARK    7  A    between atoms: C_22  and  C_23 
REMARK       I    between atoms: C_23  and  N_24 
REMARK    8  A    between atoms: N_24  and  C_25 
REMARK    9  A    between atoms: C_28  and  O_29 
ROOT
HETATM    1  C   UNL     1      -6.383   5.161 -31.674  1.00  0.00     0.093 A 
HETATM    2  S   UNL     1      -5.661   6.389 -30.766  1.00  0.00    -0.075 SA
HETATM    3  C   UNL     1      -4.104   5.809 -31.107  1.00  0.00    -0.008 A 
HETATM    4  C   UNL     1      -4.110   4.712 -31.953  1.00  0.00    -0.026 A 
HETATM    5  C   UNL     1      -2.812   4.071 -32.359  1.00  0.00     0.041 C 
HETATM    6  C   UNL     1      -1.647   4.455 -31.435  1.00  0.00     0.010 C 
HETATM    7  C   UNL     1      -1.585   5.984 -31.173  1.00  0.00    -0.002 C 
HETATM    8  C   UNL     1      -2.895   6.437 -30.473  1.00  0.00     0.052 C 
HETATM    9  C   UNL     1      -5.465   4.325 -32.307  1.00  0.00     0.073 A 
ENDROOT
BRANCH   1  10
HETATM   10  N   UNL     1      -7.763   5.011 -31.712  1.00  0.00    -0.319 N 
HETATM   11  C   UNL     1      -8.544   4.259 -30.869  1.00  0.00     0.248 C 
HETATM   12  O   UNL     1      -8.217   3.657 -29.848  1.00  0.00    -0.271 OA
HETATM   13  H   UNL     1      -8.203   5.603 -32.422  1.00  0.00     0.169 HD
BRANCH  11  14
HETATM   14  C   UNL     1     -10.028   4.273 -31.236  1.00  0.00     0.335 C 
BRANCH  14  15
HETATM   15  N   UNL     1     -10.482   2.877 -31.604  1.00  0.00    -0.067 N 
HETATM   16  H   UNL     1     -11.517   2.913 -31.562  1.00  0.00     0.277 HD
HETATM   17  H   UNL     1     -10.175   2.202 -30.894  1.00  0.00     0.277 HD
BRANCH  15  18
HETATM   18  C   UNL     1     -10.072   2.443 -32.974  1.00  0.00     0.236 C 
BRANCH  18  19
HETATM   19  C   UNL     1      -9.708   0.954 -32.984  1.00  0.00     0.003 C 
HETATM   20  C   UNL     1     -10.980   0.122 -33.161  1.00  0.00     0.011 C 
HETATM   21  C   UNL     1      -8.979   0.521 -31.711  1.00  0.00     0.011 C 
ENDBRANCH  18  19
ENDBRANCH  15  18
ENDBRANCH  14  15
ENDBRANCH  11  14
ENDBRANCH   1  10
BRANCH   9  22
HETATM   22  C   UNL     1      -5.955   3.216 -33.159  1.00  0.00     0.259 C 
HETATM   23  N   UNL     1      -5.433   1.970 -32.885  1.00  0.00    -0.323 N 
HETATM   24  H   UNL     1      -4.668   1.926 -32.230  1.00  0.00     0.169 HD
HETATM   25  O   UNL     1      -6.725   3.469 -34.086  1.00  0.00    -0.267 OA
BRANCH  23  26
HETATM   26  C   UNL     1      -5.802   0.738 -33.466  1.00  0.00     0.035 A 
HETATM   27  C   UNL     1      -6.612   0.616 -34.596  1.00  0.00     0.032 A 
HETATM   28  C   UNL     1      -6.951  -0.648 -35.090  1.00  0.00     0.039 A 
HETATM   29  C   UNL     1      -6.500  -1.809 -34.462  1.00  0.00     0.068 A 
HETATM   30  C   UNL     1      -5.687  -1.695 -33.337  1.00  0.00     0.039 A 
HETATM   31  C   UNL     1      -5.340  -0.429 -32.844  1.00  0.00     0.032 A 
BRANCH  29  32
HETATM   32  O   UNL     1      -6.917  -2.972 -35.043  1.00  0.00    -0.356 OA
HETATM   33  C   UNL     1      -5.988  -4.050 -35.067  1.00  0.00     0.210 C 
ENDBRANCH  29  32
ENDBRANCH  23  26
ENDBRANCH   9  22
BRANCH   7  34
HETATM   34  C   UNL     1      -0.282   6.435 -30.414  1.00  0.00    -0.047 C 
HETATM   35  C   UNL     1       0.773   6.918 -31.434  1.00  0.00     0.015 C 
HETATM   36  C   UNL     1      -0.574   7.619 -29.466  1.00  0.00     0.015 C 
HETATM   37  C   UNL     1       0.341   5.297 -29.581  1.00  0.00     0.015 C 
ENDBRANCH   7  34
TORSDOF 9
ENDMDL
MODEL 4
REMARK VINA RESULT:      -8.0      2.205      7.061
REMARK  9 active torsions:
REMARK  status: ('A' for Active; 'I' for Inactive)
REMARK    1  A    between atoms: C_2  and  C_3 
REMARK    2  A    between atoms: C_3  and  N_4 
REMARK    3  A    between atoms: N_4  and  C_7 
REMARK    4  A    between atoms: C_7  and  C_8 
REMARK       I    between atoms: C_8  and  N_9 
REMARK    5  A    between atoms: N_9  and  C_10 
REMARK    6  A    between atoms: C_16  and  C_17 
REMARK    7  A    between atoms: C_22  and  C_23 
REMARK       I    between atoms: C_23  and  N_24 
REMARK    8  A    between atoms: N_24  and  C_25 
REMARK    9  A    between atoms: C_28  and  O_29 
ROOT
HETATM    1  C   UNL     1      -6.419   3.689 -33.010  1.00  0.00     0.093 A 
HETATM    2  S   UNL     1      -7.096   5.214 -33.279  1.00  0.00    -0.075 SA
HETATM    3  C   UNL     1      -8.600   4.542 -33.681  1.00  0.00    -0.008 A 
HETATM    4  C   UNL     1      -8.623   3.162 -33.568  1.00  0.00    -0.026 A 
HETATM    5  C   UNL     1      -9.881   2.404 -33.887  1.00  0.00     0.041 C 
HETATM    6  C   UNL     1     -10.875   3.228 -34.719  1.00  0.00     0.010 C 
HETATM    7  C   UNL     1     -11.081   4.655 -34.143  1.00  0.00    -0.002 C 
HETATM    8  C   UNL     1      -9.727   5.414 -34.159  1.00  0.00     0.052 C 
HETATM    9  C   UNL     1      -7.329   2.644 -33.155  1.00  0.00     0.073 A 
ENDROOT
BRANCH   1  10
HETATM   10  N   UNL     1      -5.068   3.541 -32.726  1.00  0.00    -0.319 N 
HETATM   11  C   UNL     1      -4.453   3.665 -31.504  1.00  0.00     0.248 C 
HETATM   12  O   UNL     1      -4.965   3.817 -30.397  1.00  0.00    -0.271 OA
HETATM   13  H   UNL     1      -4.527   3.238 -33.541  1.00  0.00     0.169 HD
BRANCH  11  14
HETATM   14  C   UNL     1      -2.935   3.495 -31.564  1.00  0.00     0.335 C 
BRANCH  14  15
HETATM   15  N   UNL     1      -2.434   3.807 -32.958  1.00  0.00    -0.067 N 
HETATM   16  H   UNL     1      -3.281   4.076 -33.491  1.00  0.00     0.277 HD
HETATM   17  H   UNL     1      -2.055   2.962 -33.399  1.00  0.00     0.277 HD
BRANCH  15  18
HETATM   18  C   UNL     1      -1.453   4.932 -33.015  1.00  0.00     0.236 C 
BRANCH  18  19
HETATM   19  C   UNL     1      -1.757   5.856 -34.200  1.00  0.00     0.003 C 
HETATM   20  C   UNL     1      -1.870   7.299 -33.703  1.00  0.00     0.011 C 
HETATM   21  C   UNL     1      -3.038   5.460 -34.937  1.00  0.00     0.011 C 
ENDBRANCH  18  19
ENDBRANCH  15  18
ENDBRANCH  14  15
ENDBRANCH  11  14
ENDBRANCH   1  10
BRANCH   9  22
HETATM   22  C   UNL     1      -6.883   1.250 -32.926  1.00  0.00     0.259 C 
HETATM   23  N   UNL     1      -6.665   0.492 -34.057  1.00  0.00    -0.323 N 
HETATM   24  H   UNL     1      -6.952   0.890 -34.939  1.00  0.00     0.169 HD
HETATM   25  O   UNL     1      -6.801   0.830 -31.771  1.00  0.00    -0.267 OA
BRANCH  23  26
HETATM   26  C   UNL     1      -6.140  -0.816 -34.127  1.00  0.00     0.035 A 
HETATM   27  C   UNL     1      -4.828  -1.152 -33.793  1.00  0.00     0.032 A 
HETATM   28  C   UNL     1      -4.382  -2.472 -33.918  1.00  0.00     0.039 A 
HETATM   29  C   UNL     1      -5.230  -3.474 -34.388  1.00  0.00     0.068 A 
HETATM   30  C   UNL     1      -6.543  -3.147 -34.719  1.00  0.00     0.039 A 
HETATM   31  C   UNL     1      -6.994  -1.826 -34.588  1.00  0.00     0.032 A 
BRANCH  29  32
HETATM   32  O   UNL     1      -4.661  -4.713 -34.471  1.00  0.00    -0.356 OA
HETATM   33  C   UNL     1      -3.409  -4.892 -33.819  1.00  0.00     0.210 C 
ENDBRANCH  29  32
ENDBRANCH  23  26
ENDBRANCH   9  22
BRANCH   7  34
HETATM   34  C   UNL     1     -12.251   5.447 -34.839  1.00  0.00    -0.047 C 
HETATM   35  C   UNL     1     -12.832   4.604 -35.996  1.00  0.00     0.015 C 
HETATM   36  C   UNL     1     -13.403   5.717 -33.848  1.00  0.00     0.015 C 
HETATM   37  C   UNL     1     -11.787   6.799 -35.415  1.00  0.00     0.015 C 
ENDBRANCH   7  34
TORSDOF 9
ENDMDL
MODEL 5
REMARK VINA RESULT:      -7.9      2.149      5.527
REMARK  9 active torsions:
REMARK  status: ('A' for Active; 'I' for Inactive)
REMARK    1  A    between atoms: C_2  and  C_3 
REMARK    2  A    between atoms: C_3  and  N_4 
REMARK    3  A    between atoms: N_4  and  C_7 
REMARK    4  A    between atoms: C_7  and  C_8 
REMARK       I    between atoms: C_8  and  N_9 
REMARK    5  A    between atoms: N_9  and  C_10 
REMARK    6  A    between atoms: C_16  and  C_17 
REMARK    7  A    between atoms: C_22  and  C_23 
REMARK       I    between atoms: C_23  and  N_24 
REMARK    8  A    between atoms: N_24  and  C_25 
REMARK    9  A    between atoms: C_28  and  O_29 
ROOT
HETATM    1  C   UNL     1      -4.121   2.244 -32.270  1.00  0.00     0.093 A 
HETATM    2  S   UNL     1      -2.895   3.116 -31.501  1.00  0.00    -0.075 SA
HETATM    3  C   UNL     1      -3.792   4.554 -31.569  1.00  0.00    -0.008 A 
HETATM    4  C   UNL     1      -5.047   4.381 -32.128  1.00  0.00    -0.026 A 
HETATM    5  C   UNL     1      -5.974   5.556 -32.266  1.00  0.00     0.041 C 
HETATM    6  C   UNL     1      -5.244   6.903 -32.156  1.00  0.00     0.010 C 
HETATM    7  C   UNL     1      -4.279   6.951 -30.942  1.00  0.00    -0.002 C 
HETATM    8  C   UNL     1      -3.195   5.853 -31.106  1.00  0.00     0.052 C 
HETATM    9  C   UNL     1      -5.258   3.003 -32.539  1.00  0.00     0.073 A 
ENDROOT
BRANCH   1  10
HETATM   10  N   UNL     1      -3.943   0.914 -32.627  1.00  0.00    -0.319 N 
HETATM   11  C   UNL     1      -3.865  -0.172 -31.791  1.00  0.00     0.248 C 
HETATM   12  O   UNL     1      -4.046  -0.223 -30.576  1.00  0.00    -0.271 OA
HETATM   13  H   UNL     1      -3.946   0.777 -33.643  1.00  0.00     0.169 HD
BRANCH  11  14
HETATM   14  C   UNL     1      -3.605  -1.490 -32.522  1.00  0.00     0.335 C 
BRANCH  14  15
HETATM   15  N   UNL     1      -4.413  -1.539 -33.801  1.00  0.00    -0.067 N 
HETATM   16  H   UNL     1      -3.855  -1.003 -34.490  1.00  0.00     0.277 HD
HETATM   17  H   UNL     1      -5.303  -1.042 -33.681  1.00  0.00     0.277 HD
BRANCH  15  18
HETATM   18  C   UNL     1      -4.633  -2.919 -34.330  1.00  0.00     0.236 C 
BRANCH  18  19
HETATM   19  C   UNL     1      -5.986  -3.015 -35.043  1.00  0.00     0.003 C 
HETATM   20  C   UNL     1      -6.985  -2.073 -34.367  1.00  0.00     0.011 C 
HETATM   21  C   UNL     1      -6.543  -4.440 -35.050  1.00  0.00     0.011 C 
ENDBRANCH  18  19
ENDBRANCH  15  18
ENDBRANCH  14  15
ENDBRANCH  11  14
ENDBRANCH   1  10
BRANCH   9  22
HETATM   22  C   UNL     1      -6.425   2.365 -33.191  1.00  0.00     0.259 C 
HETATM   23  N   UNL     1      -7.567   2.268 -32.424  1.00  0.00    -0.323 N 
HETATM   24  H   UNL     1      -7.486   2.508 -31.447  1.00  0.00     0.169 HD
HETATM   25  O   UNL     1      -6.298   1.903 -34.325  1.00  0.00    -0.267 OA
BRANCH  23  26
HETATM   26  C   UNL     1      -8.837   1.806 -32.829  1.00  0.00     0.035 A 
HETATM   27  C   UNL     1      -9.784   2.594 -33.484  1.00  0.00     0.032 A 
HETATM   28  C   UNL     1     -11.032   2.063 -33.826  1.00  0.00     0.039 A 
HETATM   29  C   UNL     1     -11.361   0.744 -33.512  1.00  0.00     0.068 A 
HETATM   30  C   UNL     1     -10.419  -0.050 -32.863  1.00  0.00     0.039 A 
HETATM   31  C   UNL     1      -9.165   0.479 -32.525  1.00  0.00     0.032 A 
BRANCH  29  32
HETATM   32  O   UNL     1     -12.615   0.360 -33.893  1.00  0.00    -0.356 OA
HETATM   33  C   UNL     1     -13.441   1.355 -34.486  1.00  0.00     0.210 C 
ENDBRANCH  29  32
ENDBRANCH  23  26
ENDBRANCH   9  22
BRANCH   7  34
HETATM   34  C   UNL     1      -3.684   8.384 -30.673  1.00  0.00    -0.047 C 
HETATM   35  C   UNL     1      -2.472   8.625 -31.600  1.00  0.00     0.015 C 
HETATM   36  C   UNL     1      -4.722   9.483 -30.984  1.00  0.00     0.015 C 
HETATM   37  C   UNL     1      -3.216   8.565 -29.215  1.00  0.00     0.015 C 
ENDBRANCH   7  34
TORSDOF 9
ENDMDL
MODEL 6
REMARK VINA RESULT:      -7.8      2.552      8.169
REMARK  9 active torsions:
REMARK  status: ('A' for Active; 'I' for Inactive)
REMARK    1  A    between atoms: C_2  and  C_3 
REMARK    2  A    between atoms: C_3  and  N_4 
REMARK    3  A    between atoms: N_4  and  C_7 
REMARK    4  A    between atoms: C_7  and  C_8 
REMARK       I    between atoms: C_8  and  N_9 
REMARK    5  A    between atoms: N_9  and  C_10 
REMARK    6  A    between atoms: C_16  and  C_17 
REMARK    7  A    between atoms: C_22  and  C_23 
REMARK       I    between atoms: C_23  and  N_24 
REMARK    8  A    between atoms: N_24  and  C_25 
REMARK    9  A    between atoms: C_28  and  O_29 
ROOT
HETATM    1  C   UNL     1      -6.711   1.342 -33.754  1.00  0.00     0.093 A 
HETATM    2  S   UNL     1      -8.160   0.818 -34.447  1.00  0.00    -0.075 SA
HETATM    3  C   UNL     1      -8.910   2.310 -34.155  1.00  0.00    -0.008 A 
HETATM    4  C   UNL     1      -8.060   3.238 -33.577  1.00  0.00    -0.026 A 
HETATM    5  C   UNL     1      -8.565   4.616 -33.250  1.00  0.00     0.041 C 
HETATM    6  C   UNL     1     -10.098   4.691 -33.208  1.00  0.00     0.010 C 
HETATM    7  C   UNL     1     -10.753   4.013 -34.441  1.00  0.00    -0.002 C 
HETATM    8  C   UNL     1     -10.367   2.510 -34.464  1.00  0.00     0.052 C 
HETATM    9  C   UNL     1      -6.741   2.674 -33.345  1.00  0.00     0.073 A 
ENDROOT
BRANCH   1  10
HETATM   10  N   UNL     1      -5.640   0.475 -33.583  1.00  0.00    -0.319 N 
HETATM   11  C   UNL     1      -5.409  -0.368 -32.524  1.00  0.00     0.248 C 
HETATM   12  O   UNL     1      -6.140  -0.621 -31.568  1.00  0.00    -0.271 OA
HETATM   13  H   UNL     1      -5.021   0.451 -34.399  1.00  0.00     0.169 HD
BRANCH  11  14
HETATM   14  C   UNL     1      -4.096  -1.142 -32.634  1.00  0.00     0.335 C 
BRANCH  14  15
HETATM   15  N   UNL     1      -4.020  -1.844 -33.973  1.00  0.00    -0.067 N 
HETATM   16  H   UNL     1      -3.007  -1.922 -34.177  1.00  0.00     0.277 HD
HETATM   17  H   UNL     1      -4.431  -1.256 -34.708  1.00  0.00     0.277 HD
BRANCH  15  18
HETATM   18  C   UNL     1      -4.618  -3.213 -33.979  1.00  0.00     0.236 C 
BRANCH  18  19
HETATM   19  C   UNL     1      -5.763  -3.299 -34.994  1.00  0.00     0.003 C 
HETATM   20  C   UNL     1      -7.040  -2.735 -34.369  1.00  0.00     0.011 C 
HETATM   21  C   UNL     1      -6.010  -4.729 -35.477  1.00  0.00     0.011 C 
ENDBRANCH  18  19
ENDBRANCH  15  18
ENDBRANCH  14  15
ENDBRANCH  11  14
ENDBRANCH   1  10
BRANCH   9  22
HETATM   22  C   UNL     1      -5.532   3.279 -32.739  1.00  0.00     0.259 C 
HETATM   23  N   UNL     1      -4.763   4.059 -33.577  1.00  0.00    -0.323 N 
HETATM   24  H   UNL     1      -4.999   4.049 -34.558  1.00  0.00     0.169 HD
HETATM   25  O   UNL     1      -5.246   3.005 -31.573  1.00  0.00    -0.267 OA
BRANCH  23  26
HETATM   26  C   UNL     1      -3.632   4.829 -33.235  1.00  0.00     0.035 A 
HETATM   27  C   UNL     1      -2.336   4.320 -33.142  1.00  0.00     0.032 A 
HETATM   28  C   UNL     1      -1.274   5.151 -32.769  1.00  0.00     0.039 A 
HETATM   29  C   UNL     1      -1.487   6.497 -32.472  1.00  0.00     0.068 A 
HETATM   30  C   UNL     1      -2.777   7.014 -32.568  1.00  0.00     0.039 A 
HETATM   31  C   UNL     1      -3.841   6.184 -32.948  1.00  0.00     0.032 A 
BRANCH  29  32
HETATM   32  O   UNL     1      -0.365   7.188 -32.111  1.00  0.00    -0.356 OA
HETATM   33  C   UNL     1       0.436   6.622 -31.081  1.00  0.00     0.210 C 
ENDBRANCH  29  32
ENDBRANCH  23  26
ENDBRANCH   9  22
BRANCH   7  34
HETATM   34  C   UNL     1     -12.305   4.263 -34.540  1.00  0.00    -0.047 C 
HETATM   35  C   UNL     1     -13.012   2.967 -34.997  1.00  0.00     0.015 C 
HETATM   36  C   UNL     1     -12.894   4.643 -33.164  1.00  0.00     0.015 C 
HETATM   37  C   UNL     1     -12.660   5.382 -35.539  1.00  0.00     0.015 C 
ENDBRANCH   7  34
TORSDOF 9
ENDMDL
MODEL 7
REMARK VINA RESULT:      -7.8      1.200      1.999
REMARK  9 active torsions:
REMARK  status: ('A' for Active; 'I' for Inactive)
REMARK    1  A    between atoms: C_2  and  C_3 
REMARK    2  A    between atoms: C_3  and  N_4 
REMARK    3  A    between atoms: N_4  and  C_7 
REMARK    4  A    between atoms: C_7  and  C_8 
REMARK       I    between atoms: C_8  and  N_9 
REMARK    5  A    between atoms: N_9  and  C_10 
REMARK    6  A    between atoms: C_16  and  C_17 
REMARK    7  A    between atoms: C_22  and  C_23 
REMARK       I    between atoms: C_23  and  N_24 
REMARK    8  A    between atoms: N_24  and  C_25 
REMARK    9  A    between atoms: C_28  and  O_29 
ROOT
HETATM    1  C   UNL     1      -6.888   3.758 -31.815  1.00  0.00     0.093 A 
HETATM    2  S   UNL     1      -6.594   5.416 -31.677  1.00  0.00    -0.075 SA
HETATM    3  C   UNL     1      -4.915   5.179 -31.667  1.00  0.00    -0.008 A 
HETATM    4  C   UNL     1      -4.556   3.850 -31.819  1.00  0.00    -0.026 A 
HETATM    5  C   UNL     1      -3.104   3.462 -31.833  1.00  0.00     0.041 C 
HETATM    6  C   UNL     1      -2.195   4.551 -31.244  1.00  0.00     0.010 C 
HETATM    7  C   UNL     1      -2.517   5.958 -31.814  1.00  0.00    -0.002 C 
HETATM    8  C   UNL     1      -3.979   6.334 -31.452  1.00  0.00     0.052 C 
HETATM    9  C   UNL     1      -5.727   2.995 -31.921  1.00  0.00     0.073 A 
ENDROOT
BRANCH   1  10
HETATM   10  N   UNL     1      -8.179   3.250 -31.769  1.00  0.00    -0.319 N 
HETATM   11  C   UNL     1      -8.923   2.761 -32.816  1.00  0.00     0.248 C 
HETATM   12  O   UNL     1      -8.578   2.564 -33.979  1.00  0.00    -0.271 OA
HETATM   13  H   UNL     1      -8.543   3.190 -30.813  1.00  0.00     0.169 HD
BRANCH  11  14
HETATM   14  C   UNL     1     -10.336   2.335 -32.415  1.00  0.00     0.335 C 
BRANCH  14  15
HETATM   15  N   UNL     1     -11.348   2.952 -33.357  1.00  0.00    -0.067 N 
HETATM   16  H   UNL     1     -12.269   2.640 -32.999  1.00  0.00     0.277 HD
HETATM   17  H   UNL     1     -11.243   2.560 -34.300  1.00  0.00     0.277 HD
BRANCH  15  18
HETATM   18  C   UNL     1     -11.323   4.445 -33.386  1.00  0.00     0.236 C 
BRANCH  18  19
HETATM   19  C   UNL     1     -11.424   4.960 -34.826  1.00  0.00     0.003 C 
HETATM   20  C   UNL     1     -11.755   3.794 -35.760  1.00  0.00     0.011 C 
HETATM   21  C   UNL     1     -10.141   5.649 -35.293  1.00  0.00     0.011 C 
ENDBRANCH  18  19
ENDBRANCH  15  18
ENDBRANCH  14  15
ENDBRANCH  11  14
ENDBRANCH   1  10
BRANCH   9  22
HETATM   22  C   UNL     1      -5.830   1.525 -32.073  1.00  0.00     0.259 C 
HETATM   23  N   UNL     1      -5.765   1.045 -33.364  1.00  0.00    -0.323 N 
HETATM   24  H   UNL     1      -5.790   1.725 -34.108  1.00  0.00     0.169 HD
HETATM   25  O   UNL     1      -6.035   0.834 -31.074  1.00  0.00    -0.267 OA
BRANCH  23  26
HETATM   26  C   UNL     1      -5.731  -0.304 -33.778  1.00  0.00     0.035 A 
HETATM   27  C   UNL     1      -6.819  -0.981 -34.330  1.00  0.00     0.032 A 
HETATM   28  C   UNL     1      -6.705  -2.328 -34.689  1.00  0.00     0.039 A 
HETATM   29  C   UNL     1      -5.513  -3.025 -34.493  1.00  0.00     0.068 A 
HETATM   30  C   UNL     1      -4.421  -2.354 -33.947  1.00  0.00     0.039 A 
HETATM   31  C   UNL     1      -4.531  -1.002 -33.593  1.00  0.00     0.032 A 
BRANCH  29  32
HETATM   32  O   UNL     1      -5.546  -4.335 -34.876  1.00  0.00    -0.356 OA
HETATM   33  C   UNL     1      -4.611  -5.211 -34.259  1.00  0.00     0.210 C 
ENDBRANCH  29  32
ENDBRANCH  23  26
ENDBRANCH   9  22
BRANCH   7  34
HETATM   34  C   UNL     1      -1.466   7.055 -31.400  1.00  0.00    -0.047 C 
HETATM   35  C   UNL     1      -1.820   8.396 -32.080  1.00  0.00     0.015 C 
HETATM   36  C   UNL     1      -1.490   7.297 -29.875  1.00  0.00     0.015 C 
HETATM   37  C   UNL     1      -0.027   6.677 -31.804  1.00  0.00     0.015 C 
ENDBRANCH   7  34
TORSDOF 9
ENDMDL
MODEL 8
REMARK VINA RESULT:      -7.7      2.762      9.361
REMARK  9 active torsions:
REMARK  status: ('A' for Active; 'I' for Inactive)
REMARK    1  A    between atoms: C_2  and  C_3 
REMARK    2  A    between atoms: C_3  and  N_4 
REMARK    3  A    between atoms: N_4  and  C_7 
REMARK    4  A    between atoms: C_7  and  C_8 
REMARK       I    between atoms: C_8  and  N_9 
REMARK    5  A    between atoms: N_9  and  C_10 
REMARK    6  A    between atoms: C_16  and  C_17 
REMARK    7  A    between atoms: C_22  and  C_23 
REMARK       I    between atoms: C_23  and  N_24 
REMARK    8  A    between atoms: N_24  and  C_25 
REMARK    9  A    between atoms: C_28  and  O_29 
ROOT
HETATM    1  C   UNL     1      -4.798   1.974 -32.602  1.00  0.00     0.093 A 
HETATM    2  S   UNL     1      -3.908   0.547 -32.435  1.00  0.00    -0.075 SA
HETATM    3  C   UNL     1      -5.010  -0.323 -33.385  1.00  0.00    -0.008 A 
HETATM    4  C   UNL     1      -6.036   0.466 -33.881  1.00  0.00    -0.026 A 
HETATM    5  C   UNL     1      -7.103  -0.148 -34.745  1.00  0.00     0.041 C 
HETATM    6  C   UNL     1      -7.159  -1.678 -34.620  1.00  0.00     0.010 C 
HETATM    7  C   UNL     1      -5.754  -2.327 -34.730  1.00  0.00    -0.002 C 
HETATM    8  C   UNL     1      -4.857  -1.805 -33.576  1.00  0.00     0.052 C 
HETATM    9  C   UNL     1      -5.911   1.841 -33.429  1.00  0.00     0.073 A 
ENDROOT
BRANCH   1  10
HETATM   10  N   UNL     1      -4.442   3.128 -31.916  1.00  0.00    -0.319 N 
HETATM   11  C   UNL     1      -3.363   3.943 -32.156  1.00  0.00     0.248 C 
HETATM   12  O   UNL     1      -2.554   3.897 -33.081  1.00  0.00    -0.271 OA
HETATM   13  H   UNL     1      -5.134   3.393 -31.209  1.00  0.00     0.169 HD
BRANCH  11  14
HETATM   14  C   UNL     1      -3.240   5.102 -31.167  1.00  0.00     0.335 C 
BRANCH  14  15
HETATM   15  N   UNL     1      -1.794   5.280 -30.756  1.00  0.00    -0.067 N 
HETATM   16  H   UNL     1      -1.281   4.531 -31.255  1.00  0.00     0.277 HD
HETATM   17  H   UNL     1      -1.684   5.101 -29.751  1.00  0.00     0.277 HD
BRANCH  15  18
HETATM   18  C   UNL     1      -1.210   6.601 -31.137  1.00  0.00     0.236 C 
BRANCH  18  19
HETATM   19  C   UNL     1       0.277   6.661 -30.770  1.00  0.00     0.003 C 
HETATM   20  C   UNL     1       0.861   5.246 -30.784  1.00  0.00     0.011 C 
HETATM   21  C   UNL     1       0.518   7.307 -29.405  1.00  0.00     0.011 C 
ENDBRANCH  18  19
ENDBRANCH  15  18
ENDBRANCH  14  15
ENDBRANCH  11  14
ENDBRANCH   1  10
BRANCH   9  22
HETATM   22  C   UNL     1      -6.774   3.017 -33.687  1.00  0.00     0.259 C 
HETATM   23  N   UNL     1      -8.106   2.871 -33.363  1.00  0.00    -0.323 N 
HETATM   24  H   UNL     1      -8.418   1.946 -33.109  1.00  0.00     0.169 HD
HETATM   25  O   UNL     1      -6.285   4.011 -34.228  1.00  0.00    -0.267 OA
BRANCH  23  26
HETATM   26  C   UNL     1      -9.113   3.858 -33.407  1.00  0.00     0.035 A 
HETATM   27  C   UNL     1      -9.405   4.727 -32.354  1.00  0.00     0.032 A 
HETATM   28  C   UNL     1     -10.440   5.660 -32.473  1.00  0.00     0.039 A 
HETATM   29  C   UNL     1     -11.210   5.734 -33.634  1.00  0.00     0.068 A 
HETATM   30  C   UNL     1     -10.922   4.873 -34.690  1.00  0.00     0.039 A 
HETATM   31  C   UNL     1      -9.880   3.942 -34.576  1.00  0.00     0.032 A 
BRANCH  29  32
HETATM   32  O   UNL     1     -12.194   6.680 -33.608  1.00  0.00    -0.356 OA
HETATM   33  C   UNL     1     -12.575   7.180 -32.332  1.00  0.00     0.210 C 
ENDBRANCH  29  32
ENDBRANCH  23  26
ENDBRANCH   9  22
BRANCH   7  34
HETATM   34  C   UNL     1      -5.798  -3.899 -34.827  1.00  0.00    -0.047 C 
HETATM   35  C   UNL     1      -7.104  -4.422 -34.189  1.00  0.00     0.015 C 
HETATM   36  C   UNL     1      -5.791  -4.363 -36.299  1.00  0.00     0.015 C 
HETATM   37  C   UNL     1      -4.610  -4.568 -34.107  1.00  0.00     0.015 C 
ENDBRANCH   7  34
TORSDOF 9
ENDMDL
MODEL 9
REMARK VINA RESULT:      -7.6      3.106      8.229
REMARK  9 active torsions:
REMARK  status: ('A' for Active; 'I' for Inactive)
REMARK    1  A    between atoms: C_2  and  C_3 
REMARK    2  A    between atoms: C_3  and  N_4 
REMARK    3  A    between atoms: N_4  and  C_7 
REMARK    4  A    between atoms: C_7  and  C_8 
REMARK       I    between atoms: C_8  and  N_9 
REMARK    5  A    between atoms: N_9  and  C_10 
REMARK    6  A    between atoms: C_16  and  C_17 
REMARK    7  A    between atoms: C_22  and  C_23 
REMARK       I    between atoms: C_23  and  N_24 
REMARK    8  A    between atoms: N_24  and  C_25 
REMARK    9  A    between atoms: C_28  and  O_29 
ROOT
HETATM    1  C   UNL     1      -6.960   2.282 -33.037  1.00  0.00     0.093 A 
HETATM    2  S   UNL     1      -7.905   1.065 -33.730  1.00  0.00    -0.075 SA
HETATM    3  C   UNL     1      -6.615  -0.035 -33.704  1.00  0.00    -0.008 A 
HETATM    4  C   UNL     1      -5.470   0.488 -33.126  1.00  0.00    -0.026 A 
HETATM    5  C   UNL     1      -4.230  -0.355 -33.022  1.00  0.00     0.041 C 
HETATM    6  C   UNL     1      -4.256  -1.567 -33.966  1.00  0.00     0.010 C 
HETATM    7  C   UNL     1      -5.600  -2.341 -33.891  1.00  0.00    -0.002 C 
HETATM    8  C   UNL     1      -6.757  -1.400 -34.319  1.00  0.00     0.052 C 
HETATM    9  C   UNL     1      -5.670   1.867 -32.713  1.00  0.00     0.073 A 
ENDROOT
BRANCH   1  10
HETATM   10  N   UNL     1      -7.451   3.570 -32.876  1.00  0.00    -0.319 N 
HETATM   11  C   UNL     1      -7.084   4.697 -33.572  1.00  0.00     0.248 C 
HETATM   12  O   UNL     1      -6.340   4.792 -34.545  1.00  0.00    -0.271 OA
HETATM   13  H   UNL     1      -8.220   3.616 -32.200  1.00  0.00     0.169 HD
BRANCH  11  14
HETATM   14  C   UNL     1      -7.789   5.967 -33.093  1.00  0.00     0.335 C 
BRANCH  14  15
HETATM   15  N   UNL     1      -6.777   6.931 -32.511  1.00  0.00    -0.067 N 
HETATM   16  H   UNL     1      -7.075   7.070 -31.529  1.00  0.00     0.277 HD
HETATM   17  H   UNL     1      -6.844   7.843 -32.978  1.00  0.00     0.277 HD
BRANCH  15  18
HETATM   18  C   UNL     1      -5.373   6.421 -32.521  1.00  0.00     0.236 C 
BRANCH  18  19
HETATM   19  C   UNL     1      -4.653   6.791 -31.220  1.00  0.00     0.003 C 
HETATM   20  C   UNL     1      -5.690   7.089 -30.134  1.00  0.00     0.011 C 
HETATM   21  C   UNL     1      -3.721   7.992 -31.388  1.00  0.00     0.011 C 
ENDBRANCH  18  19
ENDBRANCH  15  18
ENDBRANCH  14  15
ENDBRANCH  11  14
ENDBRANCH   1  10
BRANCH   9  22
HETATM   22  C   UNL     1      -4.734   2.822 -32.076  1.00  0.00     0.259 C 
HETATM   23  N   UNL     1      -3.575   3.088 -32.774  1.00  0.00    -0.323 N 
HETATM   24  H   UNL     1      -3.388   2.520 -33.586  1.00  0.00     0.169 HD
HETATM   25  O   UNL     1      -4.998   3.261 -30.955  1.00  0.00    -0.267 OA
BRANCH  23  26
HETATM   26  C   UNL     1      -2.575   4.030 -32.450  1.00  0.00     0.035 A 
HETATM   27  C   UNL     1      -2.021   4.178 -31.178  1.00  0.00     0.032 A 
HETATM   28  C   UNL     1      -1.051   5.157 -30.939  1.00  0.00     0.039 A 
HETATM   29  C   UNL     1      -0.627   6.011 -31.957  1.00  0.00     0.068 A 
HETATM   30  C   UNL     1      -1.172   5.866 -33.231  1.00  0.00     0.039 A 
HETATM   31  C   UNL     1      -2.139   4.880 -33.474  1.00  0.00     0.032 A 
BRANCH  29  32
HETATM   32  O   UNL     1       0.314   6.926 -31.581  1.00  0.00    -0.356 OA
HETATM   33  C   UNL     1       0.451   7.175 -30.187  1.00  0.00     0.210 C 
ENDBRANCH  29  32
ENDBRANCH  23  26
ENDBRANCH   9  22
BRANCH   7  34
HETATM   34  C   UNL     1      -5.579  -3.706 -34.676  1.00  0.00    -0.047 C 
HETATM   35  C   UNL     1      -5.228  -3.447 -36.158  1.00  0.00     0.015 C 
HETATM   36  C   UNL     1      -4.500  -4.654 -34.110  1.00  0.00     0.015 C 
HETATM   37  C   UNL     1      -6.935  -4.437 -34.624  1.00  0.00     0.015 C 
ENDBRANCH   7  34
TORSDOF 9
ENDMDL
MODEL 10
REMARK VINA RESULT:      -7.5      4.716      7.710
REMARK  9 active torsions:
REMARK  status: ('A' for Active; 'I' for Inactive)
REMARK    1  A    between atoms: C_2  and  C_3 
REMARK    2  A    between atoms: C_3  and  N_4 
REMARK    3  A    between atoms: N_4  and  C_7 
REMARK    4  A    between atoms: C_7  and  C_8 
REMARK       I    between atoms: C_8  and  N_9 
REMARK    5  A    between atoms: N_9  and  C_10 
REMARK    6  A    between atoms: C_16  and  C_17 
REMARK    7  A    between atoms: C_22  and  C_23 
REMARK       I    between atoms: C_23  and  N_24 
REMARK    8  A    between atoms: N_24  and  C_25 
REMARK    9  A    between atoms: C_28  and  O_29 
ROOT
HETATM    1  C   UNL     1      -1.022   6.362 -31.172  1.00  0.00     0.093 A 
HETATM    2  S   UNL     1       0.528   6.729 -30.608  1.00  0.00    -0.075 SA
HETATM    3  C   UNL     1      -0.090   7.488 -29.223  1.00  0.00    -0.008 A 
HETATM    4  C   UNL     1      -1.471   7.429 -29.146  1.00  0.00    -0.026 A 
HETATM    5  C   UNL     1      -2.185   8.053 -27.979  1.00  0.00     0.041 C 
HETATM    6  C   UNL     1      -1.310   9.064 -27.222  1.00  0.00     0.010 C 
HETATM    7  C   UNL     1       0.105   8.503 -26.919  1.00  0.00    -0.002 C 
HETATM    8  C   UNL     1       0.826   8.183 -28.256  1.00  0.00     0.052 C 
HETATM    9  C   UNL     1      -2.037   6.747 -30.299  1.00  0.00     0.073 A 
ENDROOT
BRANCH   1  10
HETATM   10  N   UNL     1      -1.215   5.781 -32.418  1.00  0.00    -0.319 N 
HETATM   11  C   UNL     1      -1.378   6.421 -33.623  1.00  0.00     0.248 C 
HETATM   12  O   UNL     1      -1.279   7.619 -33.877  1.00  0.00    -0.271 OA
HETATM   13  H   UNL     1      -1.149   4.759 -32.388  1.00  0.00     0.169 HD
BRANCH  11  14
HETATM   14  C   UNL     1      -1.629   5.468 -34.792  1.00  0.00     0.335 C 
BRANCH  14  15
HETATM   15  N   UNL     1      -2.814   4.577 -34.488  1.00  0.00    -0.067 N 
HETATM   16  H   UNL     1      -2.729   4.354 -33.480  1.00  0.00     0.277 HD
HETATM   17  H   UNL     1      -2.736   3.691 -35.001  1.00  0.00     0.277 HD
BRANCH  15  18
HETATM   18  C   UNL     1      -4.140   5.224 -34.728  1.00  0.00     0.236 C 
BRANCH  18  19
HETATM   19  C   UNL     1      -5.270   4.376 -34.135  1.00  0.00     0.003 C 
HETATM   20  C   UNL     1      -6.357   5.298 -33.577  1.00  0.00     0.011 C 
HETATM   21  C   UNL     1      -4.779   3.431 -33.036  1.00  0.00     0.011 C 
ENDBRANCH  18  19
ENDBRANCH  15  18
ENDBRANCH  14  15
ENDBRANCH  11  14
ENDBRANCH   1  10
BRANCH   9  22
HETATM   22  C   UNL     1      -3.448   6.468 -30.651  1.00  0.00     0.259 C 
HETATM   23  N   UNL     1      -4.131   5.633 -29.793  1.00  0.00    -0.323 N 
HETATM   24  H   UNL     1      -3.591   5.170 -29.077  1.00  0.00     0.169 HD
HETATM   25  O   UNL     1      -3.905   6.926 -31.700  1.00  0.00    -0.267 OA
BRANCH  23  26
HETATM   26  C   UNL     1      -5.499   5.292 -29.833  1.00  0.00     0.035 A 
HETATM   27  C   UNL     1      -5.982   3.983 -29.800  1.00  0.00     0.032 A 
HETATM   28  C   UNL     1      -7.356   3.733 -29.872  1.00  0.00     0.039 A 
HETATM   29  C   UNL     1      -8.270   4.781 -29.991  1.00  0.00     0.068 A 
HETATM   30  C   UNL     1      -7.796   6.090 -30.021  1.00  0.00     0.039 A 
HETATM   31  C   UNL     1      -6.419   6.342 -29.942  1.00  0.00     0.032 A 
BRANCH  29  32
HETATM   32  O   UNL     1      -9.578   4.393 -30.064  1.00  0.00    -0.356 OA
HETATM   33  C   UNL     1      -9.857   3.201 -30.788  1.00  0.00     0.210 C 
ENDBRANCH  29  32
ENDBRANCH  23  26
ENDBRANCH   9  22
BRANCH   7  34
HETATM   34  C   UNL     1       0.948   9.423 -25.958  1.00  0.00    -0.047 C 
HETATM   35  C   UNL     1       0.193   9.610 -24.623  1.00  0.00     0.015 C 
HETATM   36  C   UNL     1       2.309   8.775 -25.625  1.00  0.00     0.015 C 
HETATM   37  C   UNL     1       1.214  10.818 -26.558  1.00  0.00     0.015 C 
ENDBRANCH   7  34
TORSDOF 9
ENDMDL
