MODEL 1
REMARK VINA RESULT:      -9.4      0.000      0.000
REMARK  9 active torsions:
REMARK  status: ('A' for Active; 'I' for Inactive)
REMARK    1  A    between atoms: C_4  and  C_5 
REMARK    2  A    between atoms: C_5  and  N_6 
REMARK    3  A    between atoms: C_11  and  C_12 
REMARK       I    between atoms: C_12  and  N_13 
REMARK    4  A    between atoms: C_15  and  N_16 
REMARK       I    between atoms: N_16  and  C_17 
REMARK    5  A    between atoms: C_17  and  C_18 
REMARK    6  A    between atoms: C_18  and  C_19 
REMARK    7  A    between atoms: C_19  and  C_20 
REMARK    8  A    between atoms: C_20  and  S_21 
REMARK    9  A    between atoms: S_21  and  C_22 
ROOT
HETATM    1  N   UNL     1      -6.787  -0.367 -32.988  1.00  0.00    -0.063 N 
HETATM    2  H   UNL     1      -7.264  -1.198 -32.626  1.00  0.00     0.280 HD
HETATM    3  C   UNL     1      -5.885   0.115 -31.854  1.00  0.00     0.282 C 
HETATM    4  C   UNL     1      -5.472   1.530 -32.063  1.00  0.00     0.018 C 
HETATM    5  C   UNL     1      -6.047   2.409 -32.959  1.00  0.00    -0.023 C 
HETATM    6  C   UNL     1      -5.320   3.656 -33.017  1.00  0.00     0.073 C 
HETATM    7  C   UNL     1      -4.436   3.744 -31.949  1.00  0.00     0.093 C 
HETATM    8  S   UNL     1      -4.246   2.253 -31.148  1.00  0.00    -0.074 SA
HETATM    9  C   UNL     1      -7.237   2.008 -33.789  1.00  0.00     0.068 C 
HETATM   10  C   UNL     1      -7.855   0.679 -33.299  1.00  0.00     0.240 C 
ENDROOT
BRANCH   7  11
HETATM   11  N   UNL     1      -3.708   4.858 -31.556  1.00  0.00    -0.320 N 
HETATM   12  C   UNL     1      -2.463   5.225 -32.056  1.00  0.00     0.222 C 
HETATM   13  O   UNL     1      -1.810   4.622 -32.899  1.00  0.00    -0.273 OA
HETATM   14  H   UNL     1      -3.958   5.249 -30.655  1.00  0.00     0.169 HD
BRANCH  12  15
HETATM   15  C   UNL     1      -1.964   6.515 -31.422  1.00  0.00     0.104 C 
BRANCH  15  16
HETATM   16  C   UNL     1      -0.599   6.963 -31.946  1.00  0.00     0.020 C 
BRANCH  16  17
HETATM   17  C   UNL     1       0.638   6.606 -31.113  1.00  0.00     0.080 C 
BRANCH  17  18
HETATM   18  S   UNL     1       0.368   5.621 -29.596  1.00  0.00    -0.130 SA
BRANCH  18  19
HETATM   19  C   UNL     1       0.377   6.841 -28.298  1.00  0.00     0.000 A 
HETATM   20  C   UNL     1       1.157   8.001 -28.326  1.00  0.00     0.020 A 
HETATM   21  C   UNL     1       1.122   8.905 -27.258  1.00  0.00     0.025 A 
HETATM   22  C   UNL     1       0.288   8.661 -26.169  1.00  0.00     0.034 A 
HETATM   23 CL   UNL     1       0.252   9.768 -24.852  1.00  0.00    -0.084 Cl
HETATM   24  C   UNL     1      -0.518   7.528 -26.141  1.00  0.00     0.025 A 
HETATM   25  C   UNL     1      -0.475   6.624 -27.206  1.00  0.00     0.020 A 
ENDBRANCH  18  19
ENDBRANCH  17  18
ENDBRANCH  16  17
ENDBRANCH  15  16
ENDBRANCH  12  15
ENDBRANCH   7  11
BRANCH   6  26
HETATM   26  C   UNL     1      -5.560   4.710 -33.998  1.00  0.00     0.252 C 
HETATM   27  N   UNL     1      -6.510   5.636 -33.656  1.00  0.00    -0.366 N 
HETATM   28  H   UNL     1      -6.714   5.804 -32.678  1.00  0.00     0.159 HD
HETATM   29  H   UNL     1      -6.535   6.455 -34.256  1.00  0.00     0.159 HD
HETATM   30  O   UNL     1      -4.903   4.829 -35.024  1.00  0.00    -0.268 OA
ENDBRANCH   6  26
BRANCH   1  31
HETATM   31  C   UNL     1      -6.058  -0.812 -34.237  1.00  0.00     0.273 C 
BRANCH  31  32
HETATM   32  C   UNL     1      -5.738  -2.278 -34.328  1.00  0.00    -0.033 A 
HETATM   33  C   UNL     1      -6.679  -3.215 -34.775  1.00  0.00     0.009 A 
HETATM   34  C   UNL     1      -6.337  -4.566 -34.870  1.00  0.00     0.001 A 
HETATM   35  C   UNL     1      -5.051  -4.989 -34.538  1.00  0.00     0.000 A 
HETATM   36  C   UNL     1      -4.103  -4.066 -34.108  1.00  0.00     0.001 A 
HETATM   37  C   UNL     1      -4.444  -2.718 -34.001  1.00  0.00     0.009 A 
ENDBRANCH  31  32
ENDBRANCH   1  31
TORSDOF 9
ENDMDL
MODEL 2
REMARK VINA RESULT:      -9.3      2.679      3.748
REMARK  9 active torsions:
REMARK  status: ('A' for Active; 'I' for Inactive)
REMARK    1  A    between atoms: C_4  and  C_5 
REMARK    2  A    between atoms: C_5  and  N_6 
REMARK    3  A    between atoms: C_11  and  C_12 
REMARK       I    between atoms: C_12  and  N_13 
REMARK    4  A    between atoms: C_15  and  N_16 
REMARK       I    between atoms: N_16  and  C_17 
REMARK    5  A    between atoms: C_17  and  C_18 
REMARK    6  A    between atoms: C_18  and  C_19 
REMARK    7  A    between atoms: C_19  and  C_20 
REMARK    8  A    between atoms: C_20  and  S_21 
REMARK    9  A    between atoms: S_21  and  C_22 
ROOT
HETATM    1  N   UNL     1      -6.742  -0.356 -32.804  1.00  0.00    -0.063 N 
HETATM    2  H   UNL     1      -7.170  -1.238 -32.509  1.00  0.00     0.280 HD
HETATM    3  C   UNL     1      -6.169   0.268 -31.533  1.00  0.00     0.282 C 
HETATM    4  C   UNL     1      -5.913   1.722 -31.719  1.00  0.00     0.018 C 
HETATM    5  C   UNL     1      -6.399   2.496 -32.753  1.00  0.00    -0.023 C 
HETATM    6  C   UNL     1      -5.847   3.831 -32.719  1.00  0.00     0.073 C 
HETATM    7  C   UNL     1      -5.226   4.061 -31.499  1.00  0.00     0.093 C 
HETATM    8  S   UNL     1      -5.012   2.626 -30.607  1.00  0.00    -0.074 SA
HETATM    9  C   UNL     1      -7.326   1.919 -33.789  1.00  0.00     0.068 C 
HETATM   10  C   UNL     1      -7.851   0.526 -33.375  1.00  0.00     0.240 C 
ENDROOT
BRANCH   7  11
HETATM   11  N   UNL     1      -4.750   5.272 -31.018  1.00  0.00    -0.320 N 
HETATM   12  C   UNL     1      -5.536   6.332 -30.581  1.00  0.00     0.222 C 
HETATM   13  O   UNL     1      -6.760   6.374 -30.569  1.00  0.00    -0.273 OA
HETATM   14  H   UNL     1      -3.797   5.503 -31.279  1.00  0.00     0.169 HD
BRANCH  12  15
HETATM   15  C   UNL     1      -4.686   7.497 -30.094  1.00  0.00     0.104 C 
BRANCH  15  16
HETATM   16  C   UNL     1      -3.663   7.101 -29.030  1.00  0.00     0.020 C 
BRANCH  16  17
HETATM   17  C   UNL     1      -2.452   8.019 -28.827  1.00  0.00     0.080 C 
BRANCH  17  18
HETATM   18  S   UNL     1      -0.816   7.363 -29.318  1.00  0.00    -0.130 SA
BRANCH  18  19
HETATM   19  C   UNL     1      -1.083   6.775 -30.979  1.00  0.00     0.000 A 
HETATM   20  C   UNL     1      -1.188   7.613 -32.093  1.00  0.00     0.020 A 
HETATM   21  C   UNL     1      -1.415   7.076 -33.366  1.00  0.00     0.025 A 
HETATM   22  C   UNL     1      -1.515   5.696 -33.529  1.00  0.00     0.034 A 
HETATM   23 CL   UNL     1      -1.803   5.036 -35.091  1.00  0.00    -0.084 Cl
HETATM   24  C   UNL     1      -1.381   4.848 -32.435  1.00  0.00     0.025 A 
HETATM   25  C   UNL     1      -1.161   5.388 -31.165  1.00  0.00     0.020 A 
ENDBRANCH  18  19
ENDBRANCH  17  18
ENDBRANCH  16  17
ENDBRANCH  15  16
ENDBRANCH  12  15
ENDBRANCH   7  11
BRANCH   6  26
HETATM   26  C   UNL     1      -6.015   4.824 -33.777  1.00  0.00     0.252 C 
HETATM   27  N   UNL     1      -7.125   5.620 -33.676  1.00  0.00    -0.366 N 
HETATM   28  H   UNL     1      -7.545   5.777 -32.767  1.00  0.00     0.159 HD
HETATM   29  H   UNL     1      -7.132   6.416 -34.306  1.00  0.00     0.159 HD
HETATM   30  O   UNL     1      -5.183   5.010 -34.655  1.00  0.00    -0.268 OA
ENDBRANCH   6  26
BRANCH   1  31
HETATM   31  C   UNL     1      -5.716  -0.717 -33.855  1.00  0.00     0.273 C 
BRANCH  31  32
HETATM   32  C   UNL     1      -5.590  -2.180 -34.179  1.00  0.00    -0.033 A 
HETATM   33  C   UNL     1      -4.392  -2.881 -33.983  1.00  0.00     0.009 A 
HETATM   34  C   UNL     1      -4.322  -4.246 -34.271  1.00  0.00     0.001 A 
HETATM   35  C   UNL     1      -5.446  -4.924 -34.737  1.00  0.00     0.000 A 
HETATM   36  C   UNL     1      -6.645  -4.243 -34.920  1.00  0.00     0.001 A 
HETATM   37  C   UNL     1      -6.717  -2.878 -34.644  1.00  0.00     0.009 A 
ENDBRANCH  31  32
ENDBRANCH   1  31
TORSDOF 9
ENDMDL
MODEL 3
REMARK VINA RESULT:      -8.8      1.343      1.578
REMARK  9 active torsions:
REMARK  status: ('A' for Active; 'I' for Inactive)
REMARK    1  A    between atoms: C_4  and  C_5 
REMARK    2  A    between atoms: C_5  and  N_6 
REMARK    3  A    between atoms: C_11  and  C_12 
REMARK       I    between atoms: C_12  and  N_13 
REMARK    4  A    between atoms: C_15  and  N_16 
REMARK       I    between atoms: N_16  and  C_17 
REMARK    5  A    between atoms: C_17  and  C_18 
REMARK    6  A    between atoms: C_18  and  C_19 
REMARK    7  A    between atoms: C_19  and  C_20 
REMARK    8  A    between atoms: C_20  and  S_21 
REMARK    9  A    between atoms: S_21  and  C_22 
ROOT
HETATM    1  N   UNL     1      -6.425  -0.160 -32.805  1.00  0.00    -0.063 N 
HETATM    2  H   UNL     1      -6.870  -0.977 -32.378  1.00  0.00     0.280 HD
HETATM    3  C   UNL     1      -5.370   0.305 -31.804  1.00  0.00     0.282 C 
HETATM    4  C   UNL     1      -4.956   1.709 -32.076  1.00  0.00     0.018 C 
HETATM    5  C   UNL     1      -5.624   2.598 -32.894  1.00  0.00    -0.023 C 
HETATM    6  C   UNL     1      -4.882   3.827 -33.056  1.00  0.00     0.073 C 
HETATM    7  C   UNL     1      -3.863   3.898 -32.115  1.00  0.00     0.093 C 
HETATM    8  S   UNL     1      -3.603   2.406 -31.336  1.00  0.00    -0.074 SA
HETATM    9  C   UNL     1      -6.923   2.223 -33.556  1.00  0.00     0.068 C 
HETATM   10  C   UNL     1      -7.501   0.911 -32.980  1.00  0.00     0.240 C 
ENDROOT
BRANCH   7  11
HETATM   11  N   UNL     1      -3.063   4.995 -31.830  1.00  0.00    -0.320 N 
HETATM   12  C   UNL     1      -1.957   5.401 -32.568  1.00  0.00     0.222 C 
HETATM   13  O   UNL     1      -1.505   4.851 -33.565  1.00  0.00    -0.273 OA
HETATM   14  H   UNL     1      -3.110   5.335 -30.875  1.00  0.00     0.169 HD
BRANCH  12  15
HETATM   15  C   UNL     1      -1.328   6.659 -31.988  1.00  0.00     0.104 C 
BRANCH  15  16
HETATM   16  C   UNL     1       0.012   6.407 -31.297  1.00  0.00     0.020 C 
BRANCH  16  17
HETATM   17  C   UNL     1      -0.008   6.062 -29.803  1.00  0.00     0.080 C 
BRANCH  17  18
HETATM   18  S   UNL     1       0.635   7.324 -28.646  1.00  0.00    -0.130 SA
BRANCH  18  19
HETATM   19  C   UNL     1      -0.751   7.653 -27.574  1.00  0.00     0.000 A 
HETATM   20  C   UNL     1      -0.628   8.174 -26.283  1.00  0.00     0.020 A 
HETATM   21  C   UNL     1      -1.764   8.390 -25.494  1.00  0.00     0.025 A 
HETATM   22  C   UNL     1      -3.029   8.106 -26.007  1.00  0.00     0.034 A 
HETATM   23 CL   UNL     1      -4.424   8.363 -25.035  1.00  0.00    -0.084 Cl
HETATM   24  C   UNL     1      -3.168   7.618 -27.302  1.00  0.00     0.025 A 
HETATM   25  C   UNL     1      -2.031   7.397 -28.083  1.00  0.00     0.020 A 
ENDBRANCH  18  19
ENDBRANCH  17  18
ENDBRANCH  16  17
ENDBRANCH  15  16
ENDBRANCH  12  15
ENDBRANCH   7  11
BRANCH   6  26
HETATM   26  C   UNL     1      -5.226   4.883 -34.004  1.00  0.00     0.252 C 
HETATM   27  N   UNL     1      -6.140   5.803 -33.564  1.00  0.00    -0.366 N 
HETATM   28  H   UNL     1      -6.245   5.967 -32.570  1.00  0.00     0.159 HD
HETATM   29  H   UNL     1      -6.231   6.624 -34.155  1.00  0.00     0.159 HD
HETATM   30  O   UNL     1      -4.677   5.008 -35.091  1.00  0.00    -0.268 OA
ENDBRANCH   6  26
BRANCH   1  31
HETATM   31  C   UNL     1      -5.879  -0.626 -34.137  1.00  0.00     0.273 C 
BRANCH  31  32
HETATM   32  C   UNL     1      -5.723  -2.112 -34.302  1.00  0.00    -0.033 A 
HETATM   33  C   UNL     1      -6.771  -2.921 -34.761  1.00  0.00     0.009 A 
HETATM   34  C   UNL     1      -6.579  -4.295 -34.925  1.00  0.00     0.001 A 
HETATM   35  C   UNL     1      -5.339  -4.869 -34.651  1.00  0.00     0.000 A 
HETATM   36  C   UNL     1      -4.286  -4.074 -34.211  1.00  0.00     0.001 A 
HETATM   37  C   UNL     1      -4.476  -2.703 -34.035  1.00  0.00     0.009 A 
ENDBRANCH  31  32
ENDBRANCH   1  31
TORSDOF 9
ENDMDL
MODEL 4
REMARK VINA RESULT:      -8.6      1.500      1.893
REMARK  9 active torsions:
REMARK  status: ('A' for Active; 'I' for Inactive)
REMARK    1  A    between atoms: C_4  and  C_5 
REMARK    2  A    between atoms: C_5  and  N_6 
REMARK    3  A    between atoms: C_11  and  C_12 
REMARK       I    between atoms: C_12  and  N_13 
REMARK    4  A    between atoms: C_15  and  N_16 
REMARK       I    between atoms: N_16  and  C_17 
REMARK    5  A    between atoms: C_17  and  C_18 
REMARK    6  A    between atoms: C_18  and  C_19 
REMARK    7  A    between atoms: C_19  and  C_20 
REMARK    8  A    between atoms: C_20  and  S_21 
REMARK    9  A    between atoms: S_21  and  C_22 
ROOT
HETATM    1  N   UNL     1      -7.399  -0.539 -33.441  1.00  0.00    -0.063 N 
HETATM    2  H   UNL     1      -7.945  -1.371 -33.200  1.00  0.00     0.280 HD
HETATM    3  C   UNL     1      -6.619  -0.178 -32.179  1.00  0.00     0.282 C 
HETATM    4  C   UNL     1      -6.133   1.228 -32.234  1.00  0.00     0.018 C 
HETATM    5  C   UNL     1      -6.566   2.192 -33.122  1.00  0.00    -0.023 C 
HETATM    6  C   UNL     1      -5.792   3.406 -33.003  1.00  0.00     0.073 C 
HETATM    7  C   UNL     1      -5.038   3.380 -31.838  1.00  0.00     0.093 C 
HETATM    8  S   UNL     1      -4.998   1.830 -31.133  1.00  0.00    -0.074 SA
HETATM    9  C   UNL     1      -7.664   1.904 -34.110  1.00  0.00     0.068 C 
HETATM   10  C   UNL     1      -8.384   0.573 -33.795  1.00  0.00     0.240 C 
ENDROOT
BRANCH   7  11
HETATM   11  N   UNL     1      -4.320   4.429 -31.282  1.00  0.00    -0.320 N 
HETATM   12  C   UNL     1      -4.872   5.558 -30.688  1.00  0.00     0.222 C 
HETATM   13  O   UNL     1      -6.064   5.815 -30.577  1.00  0.00    -0.273 OA
HETATM   14  H   UNL     1      -3.358   4.516 -31.593  1.00  0.00     0.169 HD
BRANCH  12  15
HETATM   15  C   UNL     1      -3.796   6.496 -30.160  1.00  0.00     0.104 C 
BRANCH  15  16
HETATM   16  C   UNL     1      -2.397   6.176 -30.686  1.00  0.00     0.020 C 
BRANCH  16  17
HETATM   17  C   UNL     1      -1.224   7.004 -30.149  1.00  0.00     0.080 C 
BRANCH  17  18
HETATM   18  S   UNL     1      -1.631   8.562 -29.281  1.00  0.00    -0.130 SA
BRANCH  18  19
HETATM   19  C   UNL     1      -0.376   8.679 -28.021  1.00  0.00     0.000 A 
HETATM   20  C   UNL     1      -0.169   9.815 -27.233  1.00  0.00     0.020 A 
HETATM   21  C   UNL     1       0.850   9.837 -26.274  1.00  0.00     0.025 A 
HETATM   22  C   UNL     1       1.651   8.712 -26.086  1.00  0.00     0.034 A 
HETATM   23 CL   UNL     1       2.909   8.742 -24.914  1.00  0.00    -0.084 Cl
HETATM   24  C   UNL     1       1.436   7.563 -26.841  1.00  0.00     0.025 A 
HETATM   25  C   UNL     1       0.423   7.548 -27.803  1.00  0.00     0.020 A 
ENDBRANCH  18  19
ENDBRANCH  17  18
ENDBRANCH  16  17
ENDBRANCH  15  16
ENDBRANCH  12  15
ENDBRANCH   7  11
BRANCH   6  26
HETATM   26  C   UNL     1      -5.876   4.535 -33.925  1.00  0.00     0.252 C 
HETATM   27  N   UNL     1      -6.849   5.459 -33.647  1.00  0.00    -0.366 N 
HETATM   28  H   UNL     1      -7.185   5.559 -32.696  1.00  0.00     0.159 HD
HETATM   29  H   UNL     1      -6.778   6.320 -34.180  1.00  0.00     0.159 HD
HETATM   30  O   UNL     1      -5.081   4.712 -34.838  1.00  0.00    -0.268 OA
ENDBRANCH   6  26
BRANCH   1  31
HETATM   31  C   UNL     1      -6.545  -0.928 -34.628  1.00  0.00     0.273 C 
BRANCH  31  32
HETATM   32  C   UNL     1      -5.962  -2.314 -34.595  1.00  0.00    -0.033 A 
HETATM   33  C   UNL     1      -4.634  -2.550 -34.215  1.00  0.00     0.009 A 
HETATM   34  C   UNL     1      -4.136  -3.854 -34.173  1.00  0.00     0.001 A 
HETATM   35  C   UNL     1      -4.961  -4.932 -34.489  1.00  0.00     0.000 A 
HETATM   36  C   UNL     1      -6.286  -4.711 -34.852  1.00  0.00     0.001 A 
HETATM   37  C   UNL     1      -6.784  -3.410 -34.907  1.00  0.00     0.009 A 
ENDBRANCH  31  32
ENDBRANCH   1  31
TORSDOF 9
ENDMDL
MODEL 5
REMARK VINA RESULT:      -8.6      2.429      3.274
REMARK  9 active torsions:
REMARK  status: ('A' for Active; 'I' for Inactive)
REMARK    1  A    between atoms: C_4  and  C_5 
REMARK    2  A    between atoms: C_5  and  N_6 
REMARK    3  A    between atoms: C_11  and  C_12 
REMARK       I    between atoms: C_12  and  N_13 
REMARK    4  A    between atoms: C_15  and  N_16 
REMARK       I    between atoms: N_16  and  C_17 
REMARK    5  A    between atoms: C_17  and  C_18 
REMARK    6  A    between atoms: C_18  and  C_19 
REMARK    7  A    between atoms: C_19  and  C_20 
REMARK    8  A    between atoms: C_20  and  S_21 
REMARK    9  A    between atoms: S_21  and  C_22 
ROOT
HETATM    1  N   UNL     1      -7.326  -0.503 -33.432  1.00  0.00    -0.063 N 
HETATM    2  H   UNL     1      -7.842  -1.369 -33.256  1.00  0.00     0.280 HD
HETATM    3  C   UNL     1      -6.771  -0.071 -32.076  1.00  0.00     0.282 C 
HETATM    4  C   UNL     1      -6.383   1.366 -32.090  1.00  0.00     0.018 C 
HETATM    5  C   UNL     1      -6.746   2.285 -33.053  1.00  0.00    -0.023 C 
HETATM    6  C   UNL     1      -6.086   3.554 -32.848  1.00  0.00     0.073 C 
HETATM    7  C   UNL     1      -5.514   3.597 -31.583  1.00  0.00     0.093 C 
HETATM    8  S   UNL     1      -5.470   2.062 -30.846  1.00  0.00    -0.074 SA
HETATM    9  C   UNL     1      -7.661   1.907 -34.186  1.00  0.00     0.068 C 
HETATM   10  C   UNL     1      -8.324   0.530 -33.952  1.00  0.00     0.240 C 
ENDROOT
BRANCH   7  11
HETATM   11  N   UNL     1      -4.964   4.702 -30.951  1.00  0.00    -0.320 N 
HETATM   12  C   UNL     1      -5.646   5.572 -30.108  1.00  0.00     0.222 C 
HETATM   13  O   UNL     1      -6.831   5.515 -29.806  1.00  0.00    -0.273 OA
HETATM   14  H   UNL     1      -4.107   5.060 -31.360  1.00  0.00     0.169 HD
BRANCH  12  15
HETATM   15  C   UNL     1      -4.730   6.661 -29.567  1.00  0.00     0.104 C 
BRANCH  15  16
HETATM   16  C   UNL     1      -5.019   8.044 -30.149  1.00  0.00     0.020 C 
BRANCH  16  17
HETATM   17  C   UNL     1      -4.306   9.247 -29.519  1.00  0.00     0.080 C 
BRANCH  17  18
HETATM   18  S   UNL     1      -2.860   9.922 -30.413  1.00  0.00    -0.130 SA
BRANCH  18  19
HETATM   19  C   UNL     1      -1.733   8.543 -30.487  1.00  0.00     0.000 A 
HETATM   20  C   UNL     1      -1.036   8.049 -29.380  1.00  0.00     0.020 A 
HETATM   21  C   UNL     1      -0.154   6.971 -29.522  1.00  0.00     0.025 A 
HETATM   22  C   UNL     1       0.015   6.371 -30.768  1.00  0.00     0.034 A 
HETATM   23 CL   UNL     1       1.105   5.053 -30.944  1.00  0.00    -0.084 Cl
HETATM   24  C   UNL     1      -0.697   6.831 -31.871  1.00  0.00     0.025 A 
HETATM   25  C   UNL     1      -1.571   7.912 -31.728  1.00  0.00     0.020 A 
ENDBRANCH  18  19
ENDBRANCH  17  18
ENDBRANCH  16  17
ENDBRANCH  15  16
ENDBRANCH  12  15
ENDBRANCH   7  11
BRANCH   6  26
HETATM   26  C   UNL     1      -6.112   4.664 -33.796  1.00  0.00     0.252 C 
HETATM   27  N   UNL     1      -7.071   5.616 -33.572  1.00  0.00    -0.366 N 
HETATM   28  H   UNL     1      -7.436   5.746 -32.636  1.00  0.00     0.159 HD
HETATM   29  H   UNL     1      -6.961   6.463 -34.121  1.00  0.00     0.159 HD
HETATM   30  O   UNL     1      -5.283   4.801 -34.686  1.00  0.00    -0.268 OA
ENDBRANCH   6  26
BRANCH   1  31
HETATM   31  C   UNL     1      -6.279  -0.841 -34.471  1.00  0.00     0.273 C 
BRANCH  31  32
HETATM   32  C   UNL     1      -5.815  -2.271 -34.498  1.00  0.00    -0.033 A 
HETATM   33  C   UNL     1      -4.498  -2.629 -34.178  1.00  0.00     0.009 A 
HETATM   34  C   UNL     1      -4.112  -3.971 -34.190  1.00  0.00     0.001 A 
HETATM   35  C   UNL     1      -5.037  -4.966 -34.501  1.00  0.00     0.000 A 
HETATM   36  C   UNL     1      -6.351  -4.624 -34.805  1.00  0.00     0.001 A 
HETATM   37  C   UNL     1      -6.739  -3.285 -34.805  1.00  0.00     0.009 A 
ENDBRANCH  31  32
ENDBRANCH   1  31
TORSDOF 9
ENDMDL
MODEL 6
REMARK VINA RESULT:      -8.6      3.266      9.808
REMARK  9 active torsions:
REMARK  status: ('A' for Active; 'I' for Inactive)
REMARK    1  A    between atoms: C_4  and  C_5 
REMARK    2  A    between atoms: C_5  and  N_6 
REMARK    3  A    between atoms: C_11  and  C_12 
REMARK       I    between atoms: C_12  and  N_13 
REMARK    4  A    between atoms: C_15  and  N_16 
REMARK       I    between atoms: N_16  and  C_17 
REMARK    5  A    between atoms: C_17  and  C_18 
REMARK    6  A    between atoms: C_18  and  C_19 
REMARK    7  A    between atoms: C_19  and  C_20 
REMARK    8  A    between atoms: C_20  and  S_21 
REMARK    9  A    between atoms: S_21  and  C_22 
ROOT
HETATM    1  N   UNL     1      -0.559   6.941 -30.851  1.00  0.00    -0.063 N 
HETATM    2  H   UNL     1       0.183   7.593 -31.122  1.00  0.00     0.280 HD
HETATM    3  C   UNL     1      -0.897   6.155 -32.116  1.00  0.00     0.282 C 
HETATM    4  C   UNL     1      -2.227   5.497 -31.997  1.00  0.00     0.018 C 
HETATM    5  C   UNL     1      -3.182   5.785 -31.043  1.00  0.00    -0.023 C 
HETATM    6  C   UNL     1      -4.297   4.869 -31.118  1.00  0.00     0.073 C 
HETATM    7  C   UNL     1      -4.249   4.153 -32.307  1.00  0.00     0.093 C 
HETATM    8  S   UNL     1      -2.751   4.323 -33.099  1.00  0.00    -0.074 SA
HETATM    9  C   UNL     1      -2.973   6.885 -30.038  1.00  0.00     0.068 C 
HETATM   10  C   UNL     1      -1.761   7.772 -30.404  1.00  0.00     0.240 C 
ENDROOT
BRANCH   7  11
HETATM   11  N   UNL     1      -5.234   3.325 -32.825  1.00  0.00    -0.320 N 
HETATM   12  C   UNL     1      -6.183   3.695 -33.772  1.00  0.00     0.222 C 
HETATM   13  O   UNL     1      -6.312   4.801 -34.280  1.00  0.00    -0.273 OA
HETATM   14  H   UNL     1      -5.458   2.507 -32.268  1.00  0.00     0.169 HD
BRANCH  12  15
HETATM   15  C   UNL     1      -7.094   2.531 -34.136  1.00  0.00     0.104 C 
BRANCH  15  16
HETATM   16  C   UNL     1      -8.518   2.682 -33.600  1.00  0.00     0.020 C 
BRANCH  16  17
HETATM   17  C   UNL     1      -8.786   2.248 -32.154  1.00  0.00     0.080 C 
BRANCH  17  18
HETATM   18  S   UNL     1      -8.722   0.456 -31.794  1.00  0.00    -0.130 SA
BRANCH  18  19
HETATM   19  C   UNL     1      -6.976   0.108 -31.710  1.00  0.00     0.000 A 
HETATM   20  C   UNL     1      -6.138   0.580 -30.695  1.00  0.00     0.020 A 
HETATM   21  C   UNL     1      -4.772   0.278 -30.707  1.00  0.00     0.025 A 
HETATM   22  C   UNL     1      -4.245  -0.516 -31.723  1.00  0.00     0.034 A 
HETATM   23 CL   UNL     1      -2.564  -0.880 -31.743  1.00  0.00    -0.084 Cl
HETATM   24  C   UNL     1      -5.073  -1.019 -32.722  1.00  0.00     0.025 A 
HETATM   25  C   UNL     1      -6.435  -0.710 -32.711  1.00  0.00     0.020 A 
ENDBRANCH  18  19
ENDBRANCH  17  18
ENDBRANCH  16  17
ENDBRANCH  15  16
ENDBRANCH  12  15
ENDBRANCH   7  11
BRANCH   6  26
HETATM   26  C   UNL     1      -5.372   4.790 -30.132  1.00  0.00     0.252 C 
HETATM   27  N   UNL     1      -5.275   3.767 -29.227  1.00  0.00    -0.366 N 
HETATM   28  H   UNL     1      -4.365   3.375 -29.012  1.00  0.00     0.159 HD
HETATM   29  H   UNL     1      -5.920   3.833 -28.445  1.00  0.00     0.159 HD
HETATM   30  O   UNL     1      -6.260   5.627 -30.046  1.00  0.00    -0.268 OA
ENDBRANCH   6  26
BRANCH   1  31
HETATM   31  C   UNL     1       0.001   6.113 -29.716  1.00  0.00     0.273 C 
BRANCH  31  32
HETATM   32  C   UNL     1       0.412   6.873 -28.486  1.00  0.00    -0.033 A 
HETATM   33  C   UNL     1       0.051   6.451 -27.199  1.00  0.00     0.009 A 
HETATM   34  C   UNL     1       0.474   7.169 -26.078  1.00  0.00     0.001 A 
HETATM   35  C   UNL     1       1.273   8.301 -26.230  1.00  0.00     0.000 A 
HETATM   36  C   UNL     1       1.653   8.720 -27.501  1.00  0.00     0.001 A 
HETATM   37  C   UNL     1       1.224   8.012 -28.624  1.00  0.00     0.009 A 
ENDBRANCH  31  32
ENDBRANCH   1  31
TORSDOF 9
ENDMDL
MODEL 7
REMARK VINA RESULT:      -8.5      2.529      3.161
REMARK  9 active torsions:
REMARK  status: ('A' for Active; 'I' for Inactive)
REMARK    1  A    between atoms: C_4  and  C_5 
REMARK    2  A    between atoms: C_5  and  N_6 
REMARK    3  A    between atoms: C_11  and  C_12 
REMARK       I    between atoms: C_12  and  N_13 
REMARK    4  A    between atoms: C_15  and  N_16 
REMARK       I    between atoms: N_16  and  C_17 
REMARK    5  A    between atoms: C_17  and  C_18 
REMARK    6  A    between atoms: C_18  and  C_19 
REMARK    7  A    between atoms: C_19  and  C_20 
REMARK    8  A    between atoms: C_20  and  S_21 
REMARK    9  A    between atoms: S_21  and  C_22 
ROOT
HETATM    1  N   UNL     1      -6.855   0.028 -33.155  1.00  0.00    -0.063 N 
HETATM    2  H   UNL     1      -7.531  -0.740 -33.191  1.00  0.00     0.280 HD
HETATM    3  C   UNL     1      -6.807   0.465 -31.692  1.00  0.00     0.282 C 
HETATM    4  C   UNL     1      -6.219   1.826 -31.560  1.00  0.00     0.018 C 
HETATM    5  C   UNL     1      -6.030   2.722 -32.593  1.00  0.00    -0.023 C 
HETATM    6  C   UNL     1      -5.307   3.893 -32.152  1.00  0.00     0.073 C 
HETATM    7  C   UNL     1      -5.269   3.937 -30.765  1.00  0.00     0.093 C 
HETATM    8  S   UNL     1      -5.759   2.465 -30.062  1.00  0.00    -0.074 SA
HETATM    9  C   UNL     1      -6.484   2.405 -33.992  1.00  0.00     0.068 C 
HETATM   10  C   UNL     1      -7.396   1.158 -34.029  1.00  0.00     0.240 C 
ENDROOT
BRANCH   7  11
HETATM   11  N   UNL     1      -4.837   4.991 -29.973  1.00  0.00    -0.320 N 
HETATM   12  C   UNL     1      -5.634   6.031 -29.509  1.00  0.00     0.222 C 
HETATM   13  O   UNL     1      -6.826   6.193 -29.737  1.00  0.00    -0.273 OA
HETATM   14  H   UNL     1      -3.838   5.168 -29.986  1.00  0.00     0.169 HD
BRANCH  12  15
HETATM   15  C   UNL     1      -4.841   7.002 -28.645  1.00  0.00     0.104 C 
BRANCH  15  16
HETATM   16  C   UNL     1      -4.663   6.528 -27.202  1.00  0.00     0.020 C 
BRANCH  16  17
HETATM   17  C   UNL     1      -3.337   6.848 -26.504  1.00  0.00     0.080 C 
BRANCH  17  18
HETATM   18  S   UNL     1      -2.270   8.116 -27.278  1.00  0.00    -0.130 SA
BRANCH  18  19
HETATM   19  C   UNL     1      -1.231   7.174 -28.379  1.00  0.00     0.000 A 
HETATM   20  C   UNL     1      -1.376   7.169 -29.770  1.00  0.00     0.020 A 
HETATM   21  C   UNL     1      -0.531   6.389 -30.567  1.00  0.00     0.025 A 
HETATM   22  C   UNL     1       0.476   5.629 -29.975  1.00  0.00     0.034 A 
HETATM   23 CL   UNL     1       1.509   4.663 -30.955  1.00  0.00    -0.084 Cl
HETATM   24  C   UNL     1       0.652   5.649 -28.595  1.00  0.00     0.025 A 
HETATM   25  C   UNL     1      -0.198   6.423 -27.802  1.00  0.00     0.020 A 
ENDBRANCH  18  19
ENDBRANCH  17  18
ENDBRANCH  16  17
ENDBRANCH  15  16
ENDBRANCH  12  15
ENDBRANCH   7  11
BRANCH   6  26
HETATM   26  C   UNL     1      -4.787   4.928 -33.041  1.00  0.00     0.252 C 
HETATM   27  N   UNL     1      -3.655   4.601 -33.739  1.00  0.00    -0.366 N 
HETATM   28  H   UNL     1      -3.450   3.627 -33.928  1.00  0.00     0.159 HD
HETATM   29  H   UNL     1      -3.413   5.251 -34.480  1.00  0.00     0.159 HD
HETATM   30  O   UNL     1      -5.361   5.992 -33.233  1.00  0.00    -0.268 OA
ENDBRANCH   6  26
BRANCH   1  31
HETATM   31  C   UNL     1      -5.557  -0.528 -33.698  1.00  0.00     0.273 C 
BRANCH  31  32
HETATM   32  C   UNL     1      -5.565  -1.986 -34.060  1.00  0.00    -0.033 A 
HETATM   33  C   UNL     1      -6.699  -2.611 -34.597  1.00  0.00     0.009 A 
HETATM   34  C   UNL     1      -6.660  -3.963 -34.945  1.00  0.00     0.001 A 
HETATM   35  C   UNL     1      -5.487  -4.697 -34.779  1.00  0.00     0.000 A 
HETATM   36  C   UNL     1      -4.350  -4.084 -34.262  1.00  0.00     0.001 A 
HETATM   37  C   UNL     1      -4.388  -2.738 -33.903  1.00  0.00     0.009 A 
ENDBRANCH  31  32
ENDBRANCH   1  31
TORSDOF 9
ENDMDL
MODEL 8
REMARK VINA RESULT:      -8.5      3.817     10.831
REMARK  9 active torsions:
REMARK  status: ('A' for Active; 'I' for Inactive)
REMARK    1  A    between atoms: C_4  and  C_5 
REMARK    2  A    between atoms: C_5  and  N_6 
REMARK    3  A    between atoms: C_11  and  C_12 
REMARK       I    between atoms: C_12  and  N_13 
REMARK    4  A    between atoms: C_15  and  N_16 
REMARK       I    between atoms: N_16  and  C_17 
REMARK    5  A    between atoms: C_17  and  C_18 
REMARK    6  A    between atoms: C_18  and  C_19 
REMARK    7  A    between atoms: C_19  and  C_20 
REMARK    8  A    between atoms: C_20  and  S_21 
REMARK    9  A    between atoms: S_21  and  C_22 
ROOT
HETATM    1  N   UNL     1      -0.780   7.429 -30.709  1.00  0.00    -0.063 N 
HETATM    2  H   UNL     1      -0.084   8.128 -30.984  1.00  0.00     0.280 HD
HETATM    3  C   UNL     1      -1.254   6.787 -32.011  1.00  0.00     0.282 C 
HETATM    4  C   UNL     1      -2.551   6.082 -31.818  1.00  0.00     0.018 C 
HETATM    5  C   UNL     1      -3.390   6.229 -30.732  1.00  0.00    -0.023 C 
HETATM    6  C   UNL     1      -4.493   5.297 -30.786  1.00  0.00     0.073 C 
HETATM    7  C   UNL     1      -4.576   4.727 -32.049  1.00  0.00     0.093 C 
HETATM    8  S   UNL     1      -3.185   5.031 -32.983  1.00  0.00    -0.074 SA
HETATM    9  C   UNL     1      -3.078   7.210 -29.634  1.00  0.00     0.068 C 
HETATM   10  C   UNL     1      -1.932   8.167 -30.029  1.00  0.00     0.240 C 
ENDROOT
BRANCH   7  11
HETATM   11  N   UNL     1      -5.603   3.938 -32.545  1.00  0.00    -0.320 N 
HETATM   12  C   UNL     1      -5.721   2.563 -32.370  1.00  0.00     0.222 C 
HETATM   13  O   UNL     1      -4.938   1.835 -31.774  1.00  0.00    -0.273 OA
HETATM   14  H   UNL     1      -6.126   4.334 -33.319  1.00  0.00     0.169 HD
BRANCH  12  15
HETATM   15  C   UNL     1      -6.984   2.022 -33.025  1.00  0.00     0.104 C 
BRANCH  15  16
HETATM   16  C   UNL     1      -6.917   2.001 -34.552  1.00  0.00     0.020 C 
BRANCH  16  17
HETATM   17  C   UNL     1      -7.055   0.645 -35.254  1.00  0.00     0.080 C 
BRANCH  17  18
HETATM   18  S   UNL     1      -7.815  -0.717 -34.299  1.00  0.00    -0.130 SA
BRANCH  18  19
HETATM   19  C   UNL     1      -6.545  -1.967 -34.268  1.00  0.00     0.000 A 
HETATM   20  C   UNL     1      -6.720  -3.266 -34.755  1.00  0.00     0.020 A 
HETATM   21  C   UNL     1      -5.678  -4.197 -34.680  1.00  0.00     0.025 A 
HETATM   22  C   UNL     1      -4.450  -3.823 -34.138  1.00  0.00     0.034 A 
HETATM   23 CL   UNL     1      -3.173  -4.971 -34.037  1.00  0.00    -0.084 Cl
HETATM   24  C   UNL     1      -4.251  -2.525 -33.679  1.00  0.00     0.025 A 
HETATM   25  C   UNL     1      -5.296  -1.600 -33.749  1.00  0.00     0.020 A 
ENDBRANCH  18  19
ENDBRANCH  17  18
ENDBRANCH  16  17
ENDBRANCH  15  16
ENDBRANCH  12  15
ENDBRANCH   7  11
BRANCH   6  26
HETATM   26  C   UNL     1      -5.442   5.073 -29.699  1.00  0.00     0.252 C 
HETATM   27  N   UNL     1      -5.243   3.937 -28.959  1.00  0.00    -0.366 N 
HETATM   28  H   UNL     1      -4.317   3.530 -28.911  1.00  0.00     0.159 HD
HETATM   29  H   UNL     1      -5.789   3.889 -28.105  1.00  0.00     0.159 HD
HETATM   30  O   UNL     1      -6.309   5.881 -29.393  1.00  0.00    -0.268 OA
ENDBRANCH   6  26
BRANCH   1  31
HETATM   31  C   UNL     1      -0.077   6.489 -29.753  1.00  0.00     0.273 C 
BRANCH  31  32
HETATM   32  C   UNL     1       0.439   7.106 -28.483  1.00  0.00    -0.033 A 
HETATM   33  C   UNL     1       1.284   8.224 -28.492  1.00  0.00     0.009 A 
HETATM   34  C   UNL     1       1.723   8.784 -27.290  1.00  0.00     0.001 A 
HETATM   35  C   UNL     1       1.308   8.247 -26.073  1.00  0.00     0.000 A 
HETATM   36  C   UNL     1       0.457   7.147 -26.051  1.00  0.00     0.001 A 
HETATM   37  C   UNL     1       0.025   6.578 -27.248  1.00  0.00     0.009 A 
ENDBRANCH  31  32
ENDBRANCH   1  31
TORSDOF 9
ENDMDL
MODEL 9
REMARK VINA RESULT:      -8.4      2.641      3.578
REMARK  9 active torsions:
REMARK  status: ('A' for Active; 'I' for Inactive)
REMARK    1  A    between atoms: C_4  and  C_5 
REMARK    2  A    between atoms: C_5  and  N_6 
REMARK    3  A    between atoms: C_11  and  C_12 
REMARK       I    between atoms: C_12  and  N_13 
REMARK    4  A    between atoms: C_15  and  N_16 
REMARK       I    between atoms: N_16  and  C_17 
REMARK    5  A    between atoms: C_17  and  C_18 
REMARK    6  A    between atoms: C_18  and  C_19 
REMARK    7  A    between atoms: C_19  and  C_20 
REMARK    8  A    between atoms: C_20  and  S_21 
REMARK    9  A    between atoms: S_21  and  C_22 
ROOT
HETATM    1  N   UNL     1      -4.128  -0.655 -32.305  1.00  0.00    -0.063 N 
HETATM    2  H   UNL     1      -3.494  -1.453 -32.201  1.00  0.00     0.280 HD
HETATM    3  C   UNL     1      -3.267   0.586 -32.084  1.00  0.00     0.282 C 
HETATM    4  C   UNL     1      -4.110   1.773 -31.772  1.00  0.00     0.018 C 
HETATM    5  C   UNL     1      -5.442   1.739 -31.411  1.00  0.00    -0.023 C 
HETATM    6  C   UNL     1      -5.999   3.068 -31.319  1.00  0.00     0.073 C 
HETATM    7  C   UNL     1      -4.982   4.014 -31.317  1.00  0.00     0.093 C 
HETATM    8  S   UNL     1      -3.482   3.345 -31.768  1.00  0.00    -0.074 SA
HETATM    9  C   UNL     1      -6.167   0.432 -31.234  1.00  0.00     0.068 C 
HETATM   10  C   UNL     1      -5.191  -0.766 -31.214  1.00  0.00     0.240 C 
ENDROOT
BRANCH   7  11
HETATM   11  N   UNL     1      -5.102   5.371 -31.053  1.00  0.00    -0.320 N 
HETATM   12  C   UNL     1      -5.190   6.374 -32.012  1.00  0.00     0.222 C 
HETATM   13  O   UNL     1      -5.157   6.226 -33.227  1.00  0.00    -0.273 OA
HETATM   14  H   UNL     1      -4.810   5.665 -30.127  1.00  0.00     0.169 HD
BRANCH  12  15
HETATM   15  C   UNL     1      -5.338   7.747 -31.373  1.00  0.00     0.104 C 
BRANCH  15  16
HETATM   16  C   UNL     1      -5.236   7.724 -29.848  1.00  0.00     0.020 C 
BRANCH  16  17
HETATM   17  C   UNL     1      -4.151   8.585 -29.191  1.00  0.00     0.080 C 
BRANCH  17  18
HETATM   18  S   UNL     1      -2.867   9.290 -30.287  1.00  0.00    -0.130 SA
BRANCH  18  19
HETATM   19  C   UNL     1      -1.637   8.003 -30.371  1.00  0.00     0.000 A 
HETATM   20  C   UNL     1      -0.910   7.550 -29.267  1.00  0.00     0.020 A 
HETATM   21  C   UNL     1       0.054   6.546 -29.416  1.00  0.00     0.025 A 
HETATM   22  C   UNL     1       0.276   5.977 -30.669  1.00  0.00     0.034 A 
HETATM   23 CL   UNL     1       1.466   4.750 -30.854  1.00  0.00    -0.084 Cl
HETATM   24  C   UNL     1      -0.463   6.396 -31.771  1.00  0.00     0.025 A 
HETATM   25  C   UNL     1      -1.418   7.404 -31.619  1.00  0.00     0.020 A 
ENDBRANCH  18  19
ENDBRANCH  17  18
ENDBRANCH  16  17
ENDBRANCH  15  16
ENDBRANCH  12  15
ENDBRANCH   7  11
BRANCH   6  26
HETATM   26  C   UNL     1      -7.419   3.361 -31.147  1.00  0.00     0.252 C 
HETATM   27  N   UNL     1      -7.947   3.048 -29.922  1.00  0.00    -0.366 N 
HETATM   28  H   UNL     1      -7.339   3.010 -29.112  1.00  0.00     0.159 HD
HETATM   29  H   UNL     1      -8.876   3.421 -29.755  1.00  0.00     0.159 HD
HETATM   30  O   UNL     1      -8.090   3.932 -31.996  1.00  0.00    -0.268 OA
ENDBRANCH   6  26
BRANCH   1  31
HETATM   31  C   UNL     1      -4.731  -0.775 -33.688  1.00  0.00     0.273 C 
BRANCH  31  32
HETATM   32  C   UNL     1      -5.165  -2.154 -34.101  1.00  0.00    -0.033 A 
HETATM   33  C   UNL     1      -4.281  -3.241 -34.097  1.00  0.00     0.009 A 
HETATM   34  C   UNL     1      -4.728  -4.513 -34.462  1.00  0.00     0.001 A 
HETATM   35  C   UNL     1      -6.061  -4.714 -34.816  1.00  0.00     0.000 A 
HETATM   36  C   UNL     1      -6.952  -3.646 -34.807  1.00  0.00     0.001 A 
HETATM   37  C   UNL     1      -6.508  -2.372 -34.454  1.00  0.00     0.009 A 
ENDBRANCH  31  32
ENDBRANCH   1  31
TORSDOF 9
ENDMDL
MODEL 10
REMARK VINA RESULT:      -8.1      6.043      8.265
REMARK  9 active torsions:
REMARK  status: ('A' for Active; 'I' for Inactive)
REMARK    1  A    between atoms: C_4  and  C_5 
REMARK    2  A    between atoms: C_5  and  N_6 
REMARK    3  A    between atoms: C_11  and  C_12 
REMARK       I    between atoms: C_12  and  N_13 
REMARK    4  A    between atoms: C_15  and  N_16 
REMARK       I    between atoms: N_16  and  C_17 
REMARK    5  A    between atoms: C_17  and  C_18 
REMARK    6  A    between atoms: C_18  and  C_19 
REMARK    7  A    between atoms: C_19  and  C_20 
REMARK    8  A    between atoms: C_20  and  S_21 
REMARK    9  A    between atoms: S_21  and  C_22 
ROOT
HETATM    1  N   UNL     1      -4.926  -0.135 -32.654  1.00  0.00    -0.063 N 
HETATM    2  H   UNL     1      -4.028  -0.623 -32.598  1.00  0.00     0.280 HD
HETATM    3  C   UNL     1      -4.589   1.354 -32.612  1.00  0.00     0.282 C 
HETATM    4  C   UNL     1      -5.784   2.162 -32.246  1.00  0.00     0.018 C 
HETATM    5  C   UNL     1      -6.954   1.666 -31.706  1.00  0.00    -0.023 C 
HETATM    6  C   UNL     1      -7.965   2.693 -31.603  1.00  0.00     0.073 C 
HETATM    7  C   UNL     1      -7.395   3.946 -31.785  1.00  0.00     0.093 C 
HETATM    8  S   UNL     1      -5.812   3.847 -32.403  1.00  0.00    -0.074 SA
HETATM    9  C   UNL     1      -7.098   0.207 -31.368  1.00  0.00     0.068 C 
HETATM   10  C   UNL     1      -5.742  -0.531 -31.424  1.00  0.00     0.240 C 
ENDROOT
BRANCH   7  11
HETATM   11  N   UNL     1      -7.998   5.178 -31.574  1.00  0.00    -0.320 N 
HETATM   12  C   UNL     1      -8.039   5.858 -30.362  1.00  0.00     0.222 C 
HETATM   13  O   UNL     1      -7.574   5.476 -29.295  1.00  0.00    -0.273 OA
HETATM   14  H   UNL     1      -8.695   5.448 -32.259  1.00  0.00     0.169 HD
BRANCH  12  15
HETATM   15  C   UNL     1      -8.757   7.193 -30.493  1.00  0.00     0.104 C 
BRANCH  15  16
HETATM   16  C   UNL     1      -8.960   7.636 -31.942  1.00  0.00     0.020 C 
BRANCH  16  17
HETATM   17  C   UNL     1     -10.383   7.592 -32.511  1.00  0.00     0.080 C 
BRANCH  17  18
HETATM   18  S   UNL     1     -10.553   7.472 -34.328  1.00  0.00    -0.130 SA
BRANCH  18  19
HETATM   19  C   UNL     1     -10.986   5.764 -34.596  1.00  0.00     0.000 A 
HETATM   20  C   UNL     1     -10.061   4.717 -34.585  1.00  0.00     0.020 A 
HETATM   21  C   UNL     1     -10.477   3.401 -34.821  1.00  0.00     0.025 A 
HETATM   22  C   UNL     1     -11.825   3.129 -35.047  1.00  0.00     0.034 A 
HETATM   23 CL   UNL     1     -12.334   1.514 -35.346  1.00  0.00    -0.084 Cl
HETATM   24  C   UNL     1     -12.761   4.157 -35.029  1.00  0.00     0.025 A 
HETATM   25  C   UNL     1     -12.341   5.470 -34.800  1.00  0.00     0.020 A 
ENDBRANCH  18  19
ENDBRANCH  17  18
ENDBRANCH  16  17
ENDBRANCH  15  16
ENDBRANCH  12  15
ENDBRANCH   7  11
BRANCH   6  26
HETATM   26  C   UNL     1      -9.362   2.447 -31.253  1.00  0.00     0.252 C 
HETATM   27  N   UNL     1      -9.996   1.475 -31.980  1.00  0.00    -0.366 N 
HETATM   28  H   UNL     1      -9.449   0.741 -32.414  1.00  0.00     0.159 HD
HETATM   29  H   UNL     1     -10.896   1.191 -31.609  1.00  0.00     0.159 HD
HETATM   30  O   UNL     1      -9.920   2.998 -30.314  1.00  0.00    -0.268 OA
ENDBRANCH   6  26
BRANCH   1  31
HETATM   31  C   UNL     1      -5.582  -0.605 -33.934  1.00  0.00     0.273 C 
BRANCH  31  32
HETATM   32  C   UNL     1      -5.592  -2.091 -34.162  1.00  0.00    -0.033 A 
HETATM   33  C   UNL     1      -6.742  -2.766 -34.596  1.00  0.00     0.009 A 
HETATM   34  C   UNL     1      -6.705  -4.144 -34.822  1.00  0.00     0.001 A 
HETATM   35  C   UNL     1      -5.521  -4.855 -34.636  1.00  0.00     0.000 A 
HETATM   36  C   UNL     1      -4.370  -4.193 -34.222  1.00  0.00     0.001 A 
HETATM   37  C   UNL     1      -4.404  -2.820 -33.984  1.00  0.00     0.009 A 
ENDBRANCH  31  32
ENDBRANCH   1  31
TORSDOF 9
ENDMDL
