MODEL 1
REMARK VINA RESULT:      -8.9      0.000      0.000
REMARK  8 active torsions:
REMARK  status: ('A' for Active; 'I' for Inactive)
REMARK    1  A    between atoms: C_7  and  C_8 
REMARK    2  A    between atoms: C_9  and  O_10 
REMARK    3  A    between atoms: C_12  and  N_13 
REMARK    4  A    between atoms: C_14  and  N_15 
REMARK       I    between atoms: N_15  and  C_16 
REMARK    5  A    between atoms: C_16  and  C_17 
REMARK    6  A    between atoms: C_19  and  O_20 
REMARK    7  A    between atoms: O_20  and  C_21 
REMARK    8  A    between atoms: C_21  and  C_22 
ROOT
HETATM    1  C   UNL     1      -7.761   1.881 -32.742  1.00  0.00     0.050 A 
HETATM    2  C   UNL     1      -8.676   1.983 -31.685  1.00  0.00     0.082 A 
HETATM    3  C   UNL     1      -9.130   3.223 -31.237  1.00  0.00     0.067 A 
HETATM    4  C   UNL     1      -8.721   4.395 -31.879  1.00  0.00     0.036 A 
HETATM    5  C   UNL     1      -7.806   4.313 -32.930  1.00  0.00     0.030 A 
HETATM    6  C   UNL     1      -7.325   3.065 -33.353  1.00  0.00     0.021 A 
ENDROOT
BRANCH   4   7
HETATM    7  N   UNL     1      -9.215   5.612 -31.371  1.00  0.00    -0.337 N 
HETATM    8  C   UNL     1      -8.756   6.391 -30.368  1.00  0.00     0.157 C 
HETATM    9  S   UNL     1      -9.854   7.263 -29.451  1.00  0.00    -0.047 SA
HETATM   10  H   UNL     1     -10.152   5.847 -31.682  1.00  0.00     0.168 HD
BRANCH   8  11
HETATM   11  N   UNL     1      -7.433   6.591 -30.120  1.00  0.00    -0.201 NA
HETATM   12  C   UNL     1      -6.684   5.727 -29.327  1.00  0.00     0.237 C 
HETATM   13  O   UNL     1      -6.867   5.497 -28.138  1.00  0.00    -0.274 OA
HETATM   14  H   UNL     1      -7.005   6.800 -31.011  1.00  0.00     0.139 HD
BRANCH  12  15
HETATM   15  C   UNL     1      -5.531   5.062 -29.997  1.00  0.00     0.029 A 
HETATM   16  C   UNL     1      -4.447   5.771 -30.537  1.00  0.00     0.053 A 
HETATM   17  C   UNL     1      -3.438   5.081 -31.214  1.00  0.00     0.069 A 
HETATM   18  C   UNL     1      -3.497   3.688 -31.312  1.00  0.00     0.037 A 
HETATM   19  C   UNL     1      -4.555   2.977 -30.749  1.00  0.00     0.004 A 
HETATM   20  C   UNL     1      -5.572   3.663 -30.092  1.00  0.00     0.017 A 
BRANCH  17  21
HETATM   21  O   UNL     1      -2.348   5.640 -31.819  1.00  0.00    -0.351 OA
BRANCH  21  22
HETATM   22  C   UNL     1      -1.745   4.928 -32.899  1.00  0.00     0.179 C 
BRANCH  22  23
HETATM   23  C   UNL     1      -1.889   5.739 -34.197  1.00  0.00     0.002 C 
HETATM   24  C   UNL     1      -3.168   5.373 -34.951  1.00  0.00     0.011 C 
HETATM   25  C   UNL     1      -1.864   7.242 -33.910  1.00  0.00     0.011 C 
ENDBRANCH  22  23
ENDBRANCH  21  22
ENDBRANCH  17  21
ENDBRANCH  12  15
ENDBRANCH   8  11
ENDBRANCH   4   7
BRANCH   2  26
HETATM   26  O   UNL     1      -9.182   0.886 -31.031  1.00  0.00    -0.360 OA
HETATM   27  H   UNL     1      -8.717   0.088 -31.364  1.00  0.00     0.217 HD
ENDBRANCH   2  26
BRANCH   1  28
HETATM   28  C   UNL     1      -7.300   0.576 -33.198  1.00  0.00     0.183 A 
HETATM   29  O   UNL     1      -5.981   0.266 -32.994  1.00  0.00    -0.288 OA
HETATM   30  C   UNL     1      -5.856  -0.996 -33.504  1.00  0.00     0.112 A 
HETATM   31  C   UNL     1      -7.095  -1.373 -33.995  1.00  0.00     0.094 A 
HETATM   32  C   UNL     1      -4.706  -1.783 -33.543  1.00  0.00    -0.025 A 
HETATM   33  C   UNL     1      -7.232  -2.620 -34.620  1.00  0.00     0.041 A 
HETATM   34  N   UNL     1      -8.017  -0.384 -33.759  1.00  0.00    -0.221 NA
HETATM   35  C   UNL     1      -6.100  -3.446 -34.722  1.00  0.00    -0.059 A 
HETATM   36  C   UNL     1      -6.192  -4.773 -35.421  1.00  0.00     0.048 C 
HETATM   37  C   UNL     1      -4.868  -3.027 -34.185  1.00  0.00     0.016 A 
HETATM   38  C   UNL     1      -3.384  -1.370 -32.979  1.00  0.00     0.051 C 
ENDBRANCH   1  28
TORSDOF 8
ENDMDL
MODEL 2
REMARK VINA RESULT:      -8.8      2.281      7.204
REMARK  8 active torsions:
REMARK  status: ('A' for Active; 'I' for Inactive)
REMARK    1  A    between atoms: C_7  and  C_8 
REMARK    2  A    between atoms: C_9  and  O_10 
REMARK    3  A    between atoms: C_12  and  N_13 
REMARK    4  A    between atoms: C_14  and  N_15 
REMARK       I    between atoms: N_15  and  C_16 
REMARK    5  A    between atoms: C_16  and  C_17 
REMARK    6  A    between atoms: C_19  and  O_20 
REMARK    7  A    between atoms: O_20  and  C_21 
REMARK    8  A    between atoms: C_21  and  C_22 
ROOT
HETATM    1  C   UNL     1      -6.352   4.743 -31.815  1.00  0.00     0.050 A 
HETATM    2  C   UNL     1      -7.097   4.853 -32.997  1.00  0.00     0.082 A 
HETATM    3  C   UNL     1      -8.445   4.498 -33.039  1.00  0.00     0.067 A 
HETATM    4  C   UNL     1      -9.098   4.077 -31.877  1.00  0.00     0.036 A 
HETATM    5  C   UNL     1      -8.370   3.957 -30.692  1.00  0.00     0.030 A 
HETATM    6  C   UNL     1      -7.006   4.281 -30.663  1.00  0.00     0.021 A 
ENDROOT
BRANCH   4   7
HETATM    7  N   UNL     1     -10.458   3.730 -31.994  1.00  0.00    -0.337 N 
HETATM    8  C   UNL     1     -11.041   2.667 -32.587  1.00  0.00     0.157 C 
HETATM    9  S   UNL     1     -12.550   2.856 -33.289  1.00  0.00    -0.047 SA
HETATM   10  H   UNL     1     -11.103   4.477 -31.756  1.00  0.00     0.168 HD
BRANCH   8  11
HETATM   11  N   UNL     1     -10.514   1.412 -32.561  1.00  0.00    -0.201 NA
HETATM   12  C   UNL     1      -9.581   0.975 -33.497  1.00  0.00     0.237 C 
HETATM   13  O   UNL     1      -9.765   0.868 -34.703  1.00  0.00    -0.274 OA
HETATM   14  H   UNL     1     -10.242   1.238 -31.604  1.00  0.00     0.139 HD
BRANCH  12  15
HETATM   15  C   UNL     1      -8.255   0.565 -32.954  1.00  0.00     0.029 A 
HETATM   16  C   UNL     1      -7.204   0.112 -33.766  1.00  0.00     0.053 A 
HETATM   17  C   UNL     1      -6.014  -0.323 -33.177  1.00  0.00     0.069 A 
HETATM   18  C   UNL     1      -5.867  -0.266 -31.788  1.00  0.00     0.037 A 
HETATM   19  C   UNL     1      -6.897   0.215 -30.980  1.00  0.00     0.004 A 
HETATM   20  C   UNL     1      -8.091   0.629 -31.563  1.00  0.00     0.017 A 
BRANCH  17  21
HETATM   21  O   UNL     1      -4.926  -0.822 -33.835  1.00  0.00    -0.351 OA
BRANCH  21  22
HETATM   22  C   UNL     1      -4.345  -2.030 -33.346  1.00  0.00     0.179 C 
BRANCH  22  23
HETATM   23  C   UNL     1      -4.427  -3.117 -34.430  1.00  0.00     0.002 C 
HETATM   24  C   UNL     1      -3.758  -4.416 -33.976  1.00  0.00     0.011 C 
HETATM   25  C   UNL     1      -5.880  -3.390 -34.826  1.00  0.00     0.011 C 
ENDBRANCH  22  23
ENDBRANCH  21  22
ENDBRANCH  17  21
ENDBRANCH  12  15
ENDBRANCH   8  11
ENDBRANCH   4   7
BRANCH   2  26
HETATM   26  O   UNL     1      -6.560   5.313 -34.175  1.00  0.00    -0.360 OA
HETATM   27  H   UNL     1      -6.211   6.217 -34.021  1.00  0.00     0.217 HD
ENDBRANCH   2  26
BRANCH   1  28
HETATM   28  C   UNL     1      -4.945   5.121 -31.788  1.00  0.00     0.183 A 
HETATM   29  O   UNL     1      -4.226   4.957 -32.943  1.00  0.00    -0.288 OA
HETATM   30  C   UNL     1      -2.975   5.401 -32.618  1.00  0.00     0.112 A 
HETATM   31  C   UNL     1      -3.003   5.796 -31.290  1.00  0.00     0.094 A 
HETATM   32  C   UNL     1      -1.853   5.453 -33.445  1.00  0.00    -0.025 A 
HETATM   33  C   UNL     1      -1.823   6.253 -30.688  1.00  0.00     0.041 A 
HETATM   34  N   UNL     1      -4.270   5.654 -30.783  1.00  0.00    -0.221 NA
HETATM   35  C   UNL     1      -0.649   6.296 -31.460  1.00  0.00    -0.059 A 
HETATM   36  C   UNL     1       0.647   6.740 -30.844  1.00  0.00     0.048 C 
HETATM   37  C   UNL     1      -0.679   5.907 -32.813  1.00  0.00     0.016 A 
HETATM   38  C   UNL     1      -1.851   5.052 -34.885  1.00  0.00     0.051 C 
ENDBRANCH   1  28
TORSDOF 8
ENDMDL
MODEL 3
REMARK VINA RESULT:      -8.6      1.034      1.428
REMARK  8 active torsions:
REMARK  status: ('A' for Active; 'I' for Inactive)
REMARK    1  A    between atoms: C_7  and  C_8 
REMARK    2  A    between atoms: C_9  and  O_10 
REMARK    3  A    between atoms: C_12  and  N_13 
REMARK    4  A    between atoms: C_14  and  N_15 
REMARK       I    between atoms: N_15  and  C_16 
REMARK    5  A    between atoms: C_16  and  C_17 
REMARK    6  A    between atoms: C_19  and  O_20 
REMARK    7  A    between atoms: O_20  and  C_21 
REMARK    8  A    between atoms: C_21  and  C_22 
ROOT
HETATM    1  C   UNL     1      -7.714   1.884 -32.698  1.00  0.00     0.050 A 
HETATM    2  C   UNL     1      -8.600   1.979 -31.616  1.00  0.00     0.082 A 
HETATM    3  C   UNL     1      -9.050   3.216 -31.155  1.00  0.00     0.067 A 
HETATM    4  C   UNL     1      -8.668   4.391 -31.807  1.00  0.00     0.036 A 
HETATM    5  C   UNL     1      -7.782   4.316 -32.884  1.00  0.00     0.030 A 
HETATM    6  C   UNL     1      -7.304   3.072 -33.321  1.00  0.00     0.021 A 
ENDROOT
BRANCH   4   7
HETATM    7  N   UNL     1      -9.156   5.605 -31.286  1.00  0.00    -0.337 N 
HETATM    8  C   UNL     1      -8.681   6.382 -30.290  1.00  0.00     0.157 C 
HETATM    9  S   UNL     1      -9.763   7.246 -29.348  1.00  0.00    -0.047 SA
HETATM   10  H   UNL     1     -10.100   5.837 -31.577  1.00  0.00     0.168 HD
BRANCH   8  11
HETATM   11  N   UNL     1      -7.353   6.587 -30.068  1.00  0.00    -0.201 NA
HETATM   12  C   UNL     1      -6.583   5.718 -29.301  1.00  0.00     0.237 C 
HETATM   13  O   UNL     1      -6.739   5.472 -28.112  1.00  0.00    -0.274 OA
HETATM   14  H   UNL     1      -6.946   6.808 -30.965  1.00  0.00     0.139 HD
BRANCH  12  15
HETATM   15  C   UNL     1      -5.441   5.067 -30.003  1.00  0.00     0.029 A 
HETATM   16  C   UNL     1      -4.377   5.789 -30.564  1.00  0.00     0.053 A 
HETATM   17  C   UNL     1      -3.379   5.112 -31.271  1.00  0.00     0.069 A 
HETATM   18  C   UNL     1      -3.428   3.720 -31.378  1.00  0.00     0.037 A 
HETATM   19  C   UNL     1      -4.466   2.995 -30.793  1.00  0.00     0.004 A 
HETATM   20  C   UNL     1      -5.473   3.669 -30.107  1.00  0.00     0.017 A 
BRANCH  17  21
HETATM   21  O   UNL     1      -2.308   5.685 -31.898  1.00  0.00    -0.351 OA
BRANCH  21  22
HETATM   22  C   UNL     1      -1.034   5.060 -31.748  1.00  0.00     0.179 C 
BRANCH  22  23
HETATM   23  C   UNL     1      -0.258   5.738 -30.607  1.00  0.00     0.002 C 
HETATM   24  C   UNL     1       0.769   4.791 -29.985  1.00  0.00     0.011 C 
HETATM   25  C   UNL     1       0.437   7.011 -31.097  1.00  0.00     0.011 C 
ENDBRANCH  22  23
ENDBRANCH  21  22
ENDBRANCH  17  21
ENDBRANCH  12  15
ENDBRANCH   8  11
ENDBRANCH   4   7
BRANCH   2  26
HETATM   26  O   UNL     1      -9.080   0.879 -30.948  1.00  0.00    -0.360 OA
HETATM   27  H   UNL     1      -8.778   0.930 -30.016  1.00  0.00     0.217 HD
ENDBRANCH   2  26
BRANCH   1  28
HETATM   28  C   UNL     1      -7.256   0.583 -33.167  1.00  0.00     0.183 A 
HETATM   29  O   UNL     1      -5.951   0.246 -32.920  1.00  0.00    -0.288 OA
HETATM   30  C   UNL     1      -5.827  -1.006 -33.454  1.00  0.00     0.112 A 
HETATM   31  C   UNL     1      -7.052  -1.351 -34.002  1.00  0.00     0.094 A 
HETATM   32  C   UNL     1      -4.689  -1.811 -33.468  1.00  0.00    -0.025 A 
HETATM   33  C   UNL     1      -7.184  -2.580 -34.661  1.00  0.00     0.041 A 
HETATM   34  N   UNL     1      -7.966  -0.352 -33.778  1.00  0.00    -0.221 NA
HETATM   35  C   UNL     1      -6.062  -3.422 -34.740  1.00  0.00    -0.059 A 
HETATM   36  C   UNL     1      -6.148  -4.731 -35.473  1.00  0.00     0.048 C 
HETATM   37  C   UNL     1      -4.845  -3.036 -34.145  1.00  0.00     0.016 A 
HETATM   38  C   UNL     1      -3.384  -1.434 -32.843  1.00  0.00     0.051 C 
ENDBRANCH   1  28
TORSDOF 8
ENDMDL
MODEL 4
REMARK VINA RESULT:      -8.5      2.296      7.287
REMARK  8 active torsions:
REMARK  status: ('A' for Active; 'I' for Inactive)
REMARK    1  A    between atoms: C_7  and  C_8 
REMARK    2  A    between atoms: C_9  and  O_10 
REMARK    3  A    between atoms: C_12  and  N_13 
REMARK    4  A    between atoms: C_14  and  N_15 
REMARK       I    between atoms: N_15  and  C_16 
REMARK    5  A    between atoms: C_16  and  C_17 
REMARK    6  A    between atoms: C_19  and  O_20 
REMARK    7  A    between atoms: O_20  and  C_21 
REMARK    8  A    between atoms: C_21  and  C_22 
ROOT
HETATM    1  C   UNL     1      -6.496   4.808 -31.436  1.00  0.00     0.050 A 
HETATM    2  C   UNL     1      -7.457   5.588 -32.095  1.00  0.00     0.082 A 
HETATM    3  C   UNL     1      -8.815   5.283 -32.014  1.00  0.00     0.067 A 
HETATM    4  C   UNL     1      -9.252   4.220 -31.219  1.00  0.00     0.036 A 
HETATM    5  C   UNL     1      -8.308   3.430 -30.560  1.00  0.00     0.030 A 
HETATM    6  C   UNL     1      -6.941   3.718 -30.673  1.00  0.00     0.021 A 
ENDROOT
BRANCH   4   7
HETATM    7  N   UNL     1     -10.637   3.967 -31.187  1.00  0.00    -0.337 N 
HETATM    8  C   UNL     1     -11.422   3.292 -32.053  1.00  0.00     0.157 C 
HETATM    9  S   UNL     1     -13.010   3.782 -32.261  1.00  0.00    -0.047 SA
HETATM   10  H   UNL     1     -11.150   4.524 -30.512  1.00  0.00     0.168 HD
BRANCH   8  11
HETATM   11  N   UNL     1     -11.025   2.161 -32.700  1.00  0.00    -0.201 NA
HETATM   12  C   UNL     1     -10.395   2.194 -33.940  1.00  0.00     0.237 C 
HETATM   13  O   UNL     1     -10.876   2.616 -34.984  1.00  0.00    -0.274 OA
HETATM   14  H   UNL     1     -10.545   1.595 -32.014  1.00  0.00     0.139 HD
BRANCH  12  15
HETATM   15  C   UNL     1      -9.021   1.619 -33.989  1.00  0.00     0.029 A 
HETATM   16  C   UNL     1      -8.762   0.245 -33.868  1.00  0.00     0.053 A 
HETATM   17  C   UNL     1      -7.442  -0.211 -33.850  1.00  0.00     0.069 A 
HETATM   18  C   UNL     1      -6.392   0.700 -33.993  1.00  0.00     0.037 A 
HETATM   19  C   UNL     1      -6.645   2.062 -34.146  1.00  0.00     0.004 A 
HETATM   20  C   UNL     1      -7.959   2.522 -34.143  1.00  0.00     0.017 A 
BRANCH  17  21
HETATM   21  O   UNL     1      -7.040  -1.509 -33.702  1.00  0.00    -0.351 OA
BRANCH  21  22
HETATM   22  C   UNL     1      -5.642  -1.786 -33.757  1.00  0.00     0.179 C 
BRANCH  22  23
HETATM   23  C   UNL     1      -5.386  -2.967 -34.708  1.00  0.00     0.002 C 
HETATM   24  C   UNL     1      -4.235  -3.846 -34.216  1.00  0.00     0.011 C 
HETATM   25  C   UNL     1      -6.650  -3.813 -34.884  1.00  0.00     0.011 C 
ENDBRANCH  22  23
ENDBRANCH  21  22
ENDBRANCH  17  21
ENDBRANCH  12  15
ENDBRANCH   8  11
ENDBRANCH   4   7
BRANCH   2  26
HETATM   26  O   UNL     1      -7.131   6.687 -32.851  1.00  0.00    -0.360 OA
HETATM   27  H   UNL     1      -6.187   6.615 -33.107  1.00  0.00     0.217 HD
ENDBRANCH   2  26
BRANCH   1  28
HETATM   28  C   UNL     1      -5.081   5.142 -31.529  1.00  0.00     0.183 A 
HETATM   29  O   UNL     1      -4.474   4.984 -32.747  1.00  0.00    -0.288 OA
HETATM   30  C   UNL     1      -3.185   5.381 -32.528  1.00  0.00     0.112 A 
HETATM   31  C   UNL     1      -3.080   5.745 -31.195  1.00  0.00     0.094 A 
HETATM   32  C   UNL     1      -2.141   5.418 -33.452  1.00  0.00    -0.025 A 
HETATM   33  C   UNL     1      -1.837   6.152 -30.693  1.00  0.00     0.041 A 
HETATM   34  N   UNL     1      -4.301   5.630 -30.578  1.00  0.00    -0.221 NA
HETATM   35  C   UNL     1      -0.737   6.177 -31.567  1.00  0.00    -0.059 A 
HETATM   36  C   UNL     1       0.623   6.567 -31.061  1.00  0.00     0.048 C 
HETATM   37  C   UNL     1      -0.900   5.821 -32.919  1.00  0.00     0.016 A 
HETATM   38  C   UNL     1      -2.281   5.051 -34.894  1.00  0.00     0.051 C 
ENDBRANCH   1  28
TORSDOF 8
ENDMDL
MODEL 5
REMARK VINA RESULT:      -8.5      2.538      6.777
REMARK  8 active torsions:
REMARK  status: ('A' for Active; 'I' for Inactive)
REMARK    1  A    between atoms: C_7  and  C_8 
REMARK    2  A    between atoms: C_9  and  O_10 
REMARK    3  A    between atoms: C_12  and  N_13 
REMARK    4  A    between atoms: C_14  and  N_15 
REMARK       I    between atoms: N_15  and  C_16 
REMARK    5  A    between atoms: C_16  and  C_17 
REMARK    6  A    between atoms: C_19  and  O_20 
REMARK    7  A    between atoms: O_20  and  C_21 
REMARK    8  A    between atoms: C_21  and  C_22 
ROOT
HETATM    1  C   UNL     1      -6.554   4.816 -31.674  1.00  0.00     0.050 A 
HETATM    2  C   UNL     1      -7.347   5.067 -32.802  1.00  0.00     0.082 A 
HETATM    3  C   UNL     1      -8.714   4.791 -32.801  1.00  0.00     0.067 A 
HETATM    4  C   UNL     1      -9.334   4.310 -31.645  1.00  0.00     0.036 A 
HETATM    5  C   UNL     1      -8.558   4.049 -30.514  1.00  0.00     0.030 A 
HETATM    6  C   UNL     1      -7.178   4.294 -30.531  1.00  0.00     0.021 A 
ENDROOT
BRANCH   4   7
HETATM    7  N   UNL     1     -10.716   4.049 -31.716  1.00  0.00    -0.337 N 
HETATM    8  C   UNL     1     -11.396   3.124 -32.427  1.00  0.00     0.157 C 
HETATM    9  S   UNL     1     -12.933   3.494 -32.980  1.00  0.00    -0.047 SA
HETATM   10  H   UNL     1     -11.301   4.776 -31.318  1.00  0.00     0.168 HD
BRANCH   8  11
HETATM   11  N   UNL     1     -10.941   1.859 -32.638  1.00  0.00    -0.201 NA
HETATM   12  C   UNL     1     -10.371   1.462 -33.844  1.00  0.00     0.237 C 
HETATM   13  O   UNL     1     -10.930   1.437 -34.933  1.00  0.00    -0.274 OA
HETATM   14  H   UNL     1     -10.388   1.617 -31.828  1.00  0.00     0.139 HD
BRANCH  12  15
HETATM   15  C   UNL     1      -8.959   0.988 -33.773  1.00  0.00     0.029 A 
HETATM   16  C   UNL     1      -8.167   1.115 -32.623  1.00  0.00     0.053 A 
HETATM   17  C   UNL     1      -6.829   0.713 -32.657  1.00  0.00     0.069 A 
HETATM   18  C   UNL     1      -6.304   0.152 -33.824  1.00  0.00     0.037 A 
HETATM   19  C   UNL     1      -7.097  -0.006 -34.959  1.00  0.00     0.004 A 
HETATM   20  C   UNL     1      -8.424   0.413 -34.935  1.00  0.00     0.017 A 
BRANCH  17  21
HETATM   21  O   UNL     1      -5.934   0.810 -31.629  1.00  0.00    -0.351 OA
BRANCH  21  22
HETATM   22  C   UNL     1      -5.121  -0.327 -31.343  1.00  0.00     0.179 C 
BRANCH  22  23
HETATM   23  C   UNL     1      -3.672   0.124 -31.093  1.00  0.00     0.002 C 
HETATM   24  C   UNL     1      -2.672  -0.744 -31.859  1.00  0.00     0.011 C 
HETATM   25  C   UNL     1      -3.482   1.595 -31.470  1.00  0.00     0.011 C 
ENDBRANCH  22  23
ENDBRANCH  21  22
ENDBRANCH  17  21
ENDBRANCH  12  15
ENDBRANCH   8  11
ENDBRANCH   4   7
BRANCH   2  26
HETATM   26  O   UNL     1      -6.842   5.595 -33.965  1.00  0.00    -0.360 OA
HETATM   27  H   UNL     1      -6.343   4.890 -34.431  1.00  0.00     0.217 HD
ENDBRANCH   2  26
BRANCH   1  28
HETATM   28  C   UNL     1      -5.127   5.112 -31.692  1.00  0.00     0.183 A 
HETATM   29  O   UNL     1      -4.460   4.935 -32.876  1.00  0.00    -0.288 OA
HETATM   30  C   UNL     1      -3.175   5.298 -32.588  1.00  0.00     0.112 A 
HETATM   31  C   UNL     1      -3.132   5.662 -31.252  1.00  0.00     0.094 A 
HETATM   32  C   UNL     1      -2.083   5.306 -33.455  1.00  0.00    -0.025 A 
HETATM   33  C   UNL     1      -1.907   6.037 -30.684  1.00  0.00     0.041 A 
HETATM   34  N   UNL     1      -4.386   5.581 -30.701  1.00  0.00    -0.221 NA
HETATM   35  C   UNL     1      -0.762   6.031 -31.498  1.00  0.00    -0.059 A 
HETATM   36  C   UNL     1       0.580   6.386 -30.921  1.00  0.00     0.048 C 
HETATM   37  C   UNL     1      -0.862   5.676 -32.857  1.00  0.00     0.016 A 
HETATM   38  C   UNL     1      -2.155   4.940 -34.903  1.00  0.00     0.051 C 
ENDBRANCH   1  28
TORSDOF 8
ENDMDL
MODEL 6
REMARK VINA RESULT:      -8.5      3.552      7.115
REMARK  8 active torsions:
REMARK  status: ('A' for Active; 'I' for Inactive)
REMARK    1  A    between atoms: C_7  and  C_8 
REMARK    2  A    between atoms: C_9  and  O_10 
REMARK    3  A    between atoms: C_12  and  N_13 
REMARK    4  A    between atoms: C_14  and  N_15 
REMARK       I    between atoms: N_15  and  C_16 
REMARK    5  A    between atoms: C_16  and  C_17 
REMARK    6  A    between atoms: C_19  and  O_20 
REMARK    7  A    between atoms: O_20  and  C_21 
REMARK    8  A    between atoms: C_21  and  C_22 
ROOT
HETATM    1  C   UNL     1     -10.017   4.216 -32.459  1.00  0.00     0.050 A 
HETATM    2  C   UNL     1      -9.452   4.842 -31.339  1.00  0.00     0.082 A 
HETATM    3  C   UNL     1      -8.129   5.281 -31.346  1.00  0.00     0.067 A 
HETATM    4  C   UNL     1      -7.352   5.157 -32.501  1.00  0.00     0.036 A 
HETATM    5  C   UNL     1      -7.897   4.531 -33.624  1.00  0.00     0.030 A 
HETATM    6  C   UNL     1      -9.217   4.059 -33.600  1.00  0.00     0.021 A 
ENDROOT
BRANCH   4   7
HETATM    7  N   UNL     1      -6.023   5.617 -32.436  1.00  0.00    -0.337 N 
HETATM    8  C   UNL     1      -4.938   5.074 -31.845  1.00  0.00     0.157 C 
HETATM    9  S   UNL     1      -3.765   6.088 -31.212  1.00  0.00    -0.047 SA
HETATM   10  H   UNL     1      -5.901   6.585 -32.716  1.00  0.00     0.168 HD
BRANCH   8  11
HETATM   11  N   UNL     1      -4.689   3.735 -31.822  1.00  0.00    -0.201 NA
HETATM   12  C   UNL     1      -5.376   2.863 -30.983  1.00  0.00     0.237 C 
HETATM   13  O   UNL     1      -5.366   2.881 -29.759  1.00  0.00    -0.274 OA
HETATM   14  H   UNL     1      -4.660   3.435 -32.786  1.00  0.00     0.139 HD
BRANCH  12  15
HETATM   15  C   UNL     1      -6.158   1.789 -31.659  1.00  0.00     0.029 A 
HETATM   16  C   UNL     1      -5.639   1.006 -32.701  1.00  0.00     0.053 A 
HETATM   17  C   UNL     1      -6.458   0.068 -33.334  1.00  0.00     0.069 A 
HETATM   18  C   UNL     1      -7.773  -0.111 -32.897  1.00  0.00     0.037 A 
HETATM   19  C   UNL     1      -8.282   0.641 -31.839  1.00  0.00     0.004 A 
HETATM   20  C   UNL     1      -7.475   1.592 -31.221  1.00  0.00     0.017 A 
BRANCH  17  21
HETATM   21  O   UNL     1      -6.102  -0.734 -34.381  1.00  0.00    -0.351 OA
BRANCH  21  22
HETATM   22  C   UNL     1      -6.827  -1.949 -34.569  1.00  0.00     0.179 C 
BRANCH  22  23
HETATM   23  C   UNL     1      -5.882  -3.037 -35.106  1.00  0.00     0.002 C 
HETATM   24  C   UNL     1      -4.560  -3.062 -34.339  1.00  0.00     0.011 C 
HETATM   25  C   UNL     1      -6.545  -4.415 -35.050  1.00  0.00     0.011 C 
ENDBRANCH  22  23
ENDBRANCH  21  22
ENDBRANCH  17  21
ENDBRANCH  12  15
ENDBRANCH   8  11
ENDBRANCH   4   7
BRANCH   2  26
HETATM   26  O   UNL     1     -10.153   5.064 -30.179  1.00  0.00    -0.360 OA
HETATM   27  H   UNL     1     -10.606   5.931 -30.255  1.00  0.00     0.217 HD
ENDBRANCH   2  26
BRANCH   1  28
HETATM   28  C   UNL     1     -11.402   3.765 -32.436  1.00  0.00     0.183 A 
HETATM   29  O   UNL     1     -11.693   2.582 -33.063  1.00  0.00    -0.288 OA
HETATM   30  C   UNL     1     -13.035   2.423 -32.863  1.00  0.00     0.112 A 
HETATM   31  C   UNL     1     -13.483   3.517 -32.140  1.00  0.00     0.094 A 
HETATM   32  C   UNL     1     -13.837   1.369 -33.299  1.00  0.00    -0.025 A 
HETATM   33  C   UNL     1     -14.846   3.624 -31.837  1.00  0.00     0.041 A 
HETATM   34  N   UNL     1     -12.431   4.344 -31.836  1.00  0.00    -0.221 NA
HETATM   35  C   UNL     1     -15.713   2.610 -32.280  1.00  0.00    -0.059 A 
HETATM   36  C   UNL     1     -17.189   2.706 -32.013  1.00  0.00     0.048 C 
HETATM   37  C   UNL     1     -15.205   1.506 -32.991  1.00  0.00     0.016 A 
HETATM   38  C   UNL     1     -13.329   0.181 -34.051  1.00  0.00     0.051 C 
ENDBRANCH   1  28
TORSDOF 8
ENDMDL
MODEL 7
REMARK VINA RESULT:      -8.3      3.208      7.660
REMARK  8 active torsions:
REMARK  status: ('A' for Active; 'I' for Inactive)
REMARK    1  A    between atoms: C_7  and  C_8 
REMARK    2  A    between atoms: C_9  and  O_10 
REMARK    3  A    between atoms: C_12  and  N_13 
REMARK    4  A    between atoms: C_14  and  N_15 
REMARK       I    between atoms: N_15  and  C_16 
REMARK    5  A    between atoms: C_16  and  C_17 
REMARK    6  A    between atoms: C_19  and  O_20 
REMARK    7  A    between atoms: O_20  and  C_21 
REMARK    8  A    between atoms: C_21  and  C_22 
ROOT
HETATM    1  C   UNL     1      -4.724   6.448 -28.828  1.00  0.00     0.050 A 
HETATM    2  C   UNL     1      -5.410   5.620 -27.928  1.00  0.00     0.082 A 
HETATM    3  C   UNL     1      -6.712   5.192 -28.187  1.00  0.00     0.067 A 
HETATM    4  C   UNL     1      -7.340   5.536 -29.388  1.00  0.00     0.036 A 
HETATM    5  C   UNL     1      -6.673   6.364 -30.292  1.00  0.00     0.030 A 
HETATM    6  C   UNL     1      -5.378   6.821 -30.011  1.00  0.00     0.021 A 
ENDROOT
BRANCH   4   7
HETATM    7  N   UNL     1      -8.656   5.074 -29.581  1.00  0.00    -0.337 N 
HETATM    8  C   UNL     1      -9.117   4.021 -30.290  1.00  0.00     0.157 C 
HETATM    9  S   UNL     1     -10.620   4.131 -31.022  1.00  0.00    -0.047 SA
HETATM   10  H   UNL     1      -9.377   5.729 -29.298  1.00  0.00     0.168 HD
BRANCH   8  11
HETATM   11  N   UNL     1      -8.470   2.826 -30.363  1.00  0.00    -0.201 NA
HETATM   12  C   UNL     1      -7.806   2.405 -31.512  1.00  0.00     0.237 C 
HETATM   13  O   UNL     1      -8.319   2.189 -32.603  1.00  0.00    -0.274 OA
HETATM   14  H   UNL     1      -7.915   2.751 -29.522  1.00  0.00     0.139 HD
BRANCH  12  15
HETATM   15  C   UNL     1      -6.343   2.162 -31.368  1.00  0.00     0.029 A 
HETATM   16  C   UNL     1      -5.377   3.149 -31.613  1.00  0.00     0.053 A 
HETATM   17  C   UNL     1      -4.020   2.825 -31.527  1.00  0.00     0.069 A 
HETATM   18  C   UNL     1      -3.639   1.532 -31.160  1.00  0.00     0.037 A 
HETATM   19  C   UNL     1      -4.596   0.557 -30.884  1.00  0.00     0.004 A 
HETATM   20  C   UNL     1      -5.948   0.871 -30.989  1.00  0.00     0.017 A 
BRANCH  17  21
HETATM   21  O   UNL     1      -2.974   3.669 -31.773  1.00  0.00    -0.351 OA
BRANCH  21  22
HETATM   22  C   UNL     1      -3.246   4.882 -32.473  1.00  0.00     0.179 C 
BRANCH  22  23
HETATM   23  C   UNL     1      -2.689   4.789 -33.903  1.00  0.00     0.002 C 
HETATM   24  C   UNL     1      -3.736   5.193 -34.942  1.00  0.00     0.011 C 
HETATM   25  C   UNL     1      -1.435   5.652 -34.062  1.00  0.00     0.011 C 
ENDBRANCH  22  23
ENDBRANCH  21  22
ENDBRANCH  17  21
ENDBRANCH  12  15
ENDBRANCH   8  11
ENDBRANCH   4   7
BRANCH   2  26
HETATM   26  O   UNL     1      -4.856   5.179 -26.752  1.00  0.00    -0.360 OA
HETATM   27  H   UNL     1      -5.407   4.443 -26.409  1.00  0.00     0.217 HD
ENDBRANCH   2  26
BRANCH   1  28
HETATM   28  C   UNL     1      -3.363   6.883 -28.542  1.00  0.00     0.183 A 
HETATM   29  O   UNL     1      -2.428   6.722 -29.531  1.00  0.00    -0.288 OA
HETATM   30  C   UNL     1      -1.280   7.223 -28.984  1.00  0.00     0.112 A 
HETATM   31  C   UNL     1      -1.579   7.646 -27.699  1.00  0.00     0.094 A 
HETATM   32  C   UNL     1      -0.022   7.301 -29.581  1.00  0.00    -0.025 A 
HETATM   33  C   UNL     1      -0.555   8.164 -26.895  1.00  0.00     0.041 A 
HETATM   34  N   UNL     1      -2.914   7.465 -27.442  1.00  0.00    -0.221 NA
HETATM   35  C   UNL     1       0.743   8.237 -27.427  1.00  0.00    -0.059 A 
HETATM   36  C   UNL     1       1.879   8.747 -26.586  1.00  0.00     0.048 C 
HETATM   37  C   UNL     1       0.991   7.816 -28.748  1.00  0.00     0.016 A 
HETATM   38  C   UNL     1       0.274   6.868 -30.981  1.00  0.00     0.051 C 
ENDBRANCH   1  28
TORSDOF 8
ENDMDL
MODEL 8
REMARK VINA RESULT:      -8.0      3.397      7.121
REMARK  8 active torsions:
REMARK  status: ('A' for Active; 'I' for Inactive)
REMARK    1  A    between atoms: C_7  and  C_8 
REMARK    2  A    between atoms: C_9  and  O_10 
REMARK    3  A    between atoms: C_12  and  N_13 
REMARK    4  A    between atoms: C_14  and  N_15 
REMARK       I    between atoms: N_15  and  C_16 
REMARK    5  A    between atoms: C_16  and  C_17 
REMARK    6  A    between atoms: C_19  and  O_20 
REMARK    7  A    between atoms: O_20  and  C_21 
REMARK    8  A    between atoms: C_21  and  C_22 
ROOT
HETATM    1  C   UNL     1      -8.527   3.982 -32.693  1.00  0.00     0.050 A 
HETATM    2  C   UNL     1      -7.750   3.877 -31.530  1.00  0.00     0.082 A 
HETATM    3  C   UNL     1      -6.401   4.230 -31.526  1.00  0.00     0.067 A 
HETATM    4  C   UNL     1      -5.808   4.754 -32.678  1.00  0.00     0.036 A 
HETATM    5  C   UNL     1      -6.564   4.861 -33.846  1.00  0.00     0.030 A 
HETATM    6  C   UNL     1      -7.911   4.471 -33.855  1.00  0.00     0.021 A 
ENDROOT
BRANCH   4   7
HETATM    7  N   UNL     1      -4.441   5.085 -32.603  1.00  0.00    -0.337 N 
HETATM    8  C   UNL     1      -3.374   4.324 -32.278  1.00  0.00     0.157 C 
HETATM    9  S   UNL     1      -2.076   5.039 -31.496  1.00  0.00    -0.047 SA
HETATM   10  H   UNL     1      -4.249   6.081 -32.620  1.00  0.00     0.168 HD
BRANCH   8  11
HETATM   11  N   UNL     1      -3.247   3.018 -32.640  1.00  0.00    -0.201 NA
HETATM   12  C   UNL     1      -3.406   1.974 -31.735  1.00  0.00     0.237 C 
HETATM   13  O   UNL     1      -2.712   1.762 -30.748  1.00  0.00    -0.274 OA
HETATM   14  H   UNL     1      -3.782   2.906 -33.490  1.00  0.00     0.139 HD
BRANCH  12  15
HETATM   15  C   UNL     1      -4.502   1.011 -32.036  1.00  0.00     0.029 A 
HETATM   16  C   UNL     1      -4.670   0.412 -33.294  1.00  0.00     0.053 A 
HETATM   17  C   UNL     1      -5.765  -0.425 -33.521  1.00  0.00     0.069 A 
HETATM   18  C   UNL     1      -6.661  -0.690 -32.482  1.00  0.00     0.037 A 
HETATM   19  C   UNL     1      -6.481  -0.123 -31.221  1.00  0.00     0.004 A 
HETATM   20  C   UNL     1      -5.402   0.728 -30.999  1.00  0.00     0.017 A 
BRANCH  17  21
HETATM   21  O   UNL     1      -6.074  -1.044 -34.699  1.00  0.00    -0.351 OA
BRANCH  21  22
HETATM   22  C   UNL     1      -6.655  -2.346 -34.636  1.00  0.00     0.179 C 
BRANCH  22  23
HETATM   23  C   UNL     1      -5.671  -3.378 -35.213  1.00  0.00     0.002 C 
HETATM   24  C   UNL     1      -4.462  -3.576 -34.298  1.00  0.00     0.011 C 
HETATM   25  C   UNL     1      -6.365  -4.720 -35.458  1.00  0.00     0.011 C 
ENDBRANCH  22  23
ENDBRANCH  21  22
ENDBRANCH  17  21
ENDBRANCH  12  15
ENDBRANCH   8  11
ENDBRANCH   4   7
BRANCH   2  26
HETATM   26  O   UNL     1      -8.258   3.429 -30.335  1.00  0.00    -0.360 OA
HETATM   27  H   UNL     1      -7.508   3.145 -29.770  1.00  0.00     0.217 HD
ENDBRANCH   2  26
BRANCH   1  28
HETATM   28  C   UNL     1      -9.935   3.611 -32.679  1.00  0.00     0.183 A 
HETATM   29  O   UNL     1     -10.735   4.206 -31.738  1.00  0.00    -0.288 OA
HETATM   30  C   UNL     1     -11.974   3.680 -31.978  1.00  0.00     0.112 A 
HETATM   31  C   UNL     1     -11.854   2.794 -33.036  1.00  0.00     0.094 A 
HETATM   32  C   UNL     1     -13.158   3.959 -31.296  1.00  0.00    -0.025 A 
HETATM   33  C   UNL     1     -12.982   2.077 -33.458  1.00  0.00     0.041 A 
HETATM   34  N   UNL     1     -10.564   2.788 -33.503  1.00  0.00    -0.221 NA
HETATM   35  C   UNL     1     -14.199   2.287 -32.787  1.00  0.00    -0.059 A 
HETATM   36  C   UNL     1     -15.423   1.509 -33.179  1.00  0.00     0.048 C 
HETATM   37  C   UNL     1     -14.274   3.217 -31.733  1.00  0.00     0.016 A 
HETATM   38  C   UNL     1     -13.273   4.942 -30.176  1.00  0.00     0.051 C 
ENDBRANCH   1  28
TORSDOF 8
ENDMDL
MODEL 9
REMARK VINA RESULT:      -7.7     16.884     19.953
REMARK  8 active torsions:
REMARK  status: ('A' for Active; 'I' for Inactive)
REMARK    1  A    between atoms: C_7  and  C_8 
REMARK    2  A    between atoms: C_9  and  O_10 
REMARK    3  A    between atoms: C_12  and  N_13 
REMARK    4  A    between atoms: C_14  and  N_15 
REMARK       I    between atoms: N_15  and  C_16 
REMARK    5  A    between atoms: C_16  and  C_17 
REMARK    6  A    between atoms: C_19  and  O_20 
REMARK    7  A    between atoms: O_20  and  C_21 
REMARK    8  A    between atoms: C_21  and  C_22 
ROOT
HETATM    1  C   UNL     1      -5.141 -13.007 -39.605  1.00  0.00     0.050 A 
HETATM    2  C   UNL     1      -5.854 -12.734 -38.430  1.00  0.00     0.082 A 
HETATM    3  C   UNL     1      -7.187 -12.329 -38.469  1.00  0.00     0.067 A 
HETATM    4  C   UNL     1      -7.861 -12.244 -39.691  1.00  0.00     0.036 A 
HETATM    5  C   UNL     1      -7.165 -12.506 -40.872  1.00  0.00     0.030 A 
HETATM    6  C   UNL     1      -5.813 -12.879 -40.830  1.00  0.00     0.021 A 
ENDROOT
BRANCH   4   7
HETATM    7  N   UNL     1      -9.204 -11.824 -39.657  1.00  0.00    -0.337 N 
HETATM    8  C   UNL     1     -10.333 -12.478 -40.006  1.00  0.00     0.157 C 
HETATM    9  S   UNL     1     -11.615 -11.604 -40.637  1.00  0.00    -0.047 SA
HETATM   10  H   UNL     1      -9.329 -10.826 -39.524  1.00  0.00     0.168 HD
BRANCH   8  11
HETATM   11  N   UNL     1     -10.530 -13.806 -39.779  1.00  0.00    -0.201 NA
HETATM   12  C   UNL     1     -10.459 -14.755 -40.794  1.00  0.00     0.237 C 
HETATM   13  O   UNL     1     -11.189 -14.819 -41.775  1.00  0.00    -0.274 OA
HETATM   14  H   UNL     1      -9.981 -14.040 -38.964  1.00  0.00     0.139 HD
BRANCH  12  15
HETATM   15  C   UNL     1      -9.415 -15.806 -40.632  1.00  0.00     0.029 A 
HETATM   16  C   UNL     1      -8.358 -15.980 -41.539  1.00  0.00     0.053 A 
HETATM   17  C   UNL     1      -7.460 -17.035 -41.359  1.00  0.00     0.069 A 
HETATM   18  C   UNL     1      -7.598 -17.882 -40.256  1.00  0.00     0.037 A 
HETATM   19  C   UNL     1      -8.627 -17.693 -39.335  1.00  0.00     0.004 A 
HETATM   20  C   UNL     1      -9.536 -16.656 -39.524  1.00  0.00     0.017 A 
BRANCH  17  21
HETATM   21  O   UNL     1      -6.411 -17.347 -42.177  1.00  0.00    -0.351 OA
BRANCH  21  22
HETATM   22  C   UNL     1      -5.332 -16.417 -42.262  1.00  0.00     0.179 C 
BRANCH  22  23
HETATM   23  C   UNL     1      -5.438 -15.621 -43.573  1.00  0.00     0.002 C 
HETATM   24  C   UNL     1      -4.173 -14.804 -43.840  1.00  0.00     0.011 C 
HETATM   25  C   UNL     1      -5.720 -16.549 -44.757  1.00  0.00     0.011 C 
ENDBRANCH  22  23
ENDBRANCH  21  22
ENDBRANCH  17  21
ENDBRANCH  12  15
ENDBRANCH   8  11
ENDBRANCH   4   7
BRANCH   2  26
HETATM   26  O   UNL     1      -5.297 -12.848 -37.179  1.00  0.00    -0.360 OA
HETATM   27  H   UNL     1      -5.047 -11.950 -36.871  1.00  0.00     0.217 HD
ENDBRANCH   2  26
BRANCH   1  28
HETATM   28  C   UNL     1      -3.748 -13.431 -39.545  1.00  0.00     0.183 A 
HETATM   29  O   UNL     1      -3.360 -14.443 -40.383  1.00  0.00    -0.288 OA
HETATM   30  C   UNL     1      -2.030 -14.604 -40.112  1.00  0.00     0.112 A 
HETATM   31  C   UNL     1      -1.692 -13.695 -39.123  1.00  0.00     0.094 A 
HETATM   32  C   UNL     1      -1.150 -15.513 -40.700  1.00  0.00    -0.025 A 
HETATM   33  C   UNL     1      -0.383 -13.684 -38.624  1.00  0.00     0.041 A 
HETATM   34  N   UNL     1      -2.780 -12.925 -38.798  1.00  0.00    -0.221 NA
HETATM   35  C   UNL     1       0.544 -14.600 -39.151  1.00  0.00    -0.059 A 
HETATM   36  C   UNL     1       1.947 -14.651 -38.617  1.00  0.00     0.048 C 
HETATM   37  C   UNL     1       0.157 -15.488 -40.173  1.00  0.00     0.016 A 
HETATM   38  C   UNL     1      -1.527 -16.465 -41.788  1.00  0.00     0.051 C 
ENDBRANCH   1  28
TORSDOF 8
ENDMDL
MODEL 10
REMARK VINA RESULT:      -7.7     17.421     19.536
REMARK  8 active torsions:
REMARK  status: ('A' for Active; 'I' for Inactive)
REMARK    1  A    between atoms: C_7  and  C_8 
REMARK    2  A    between atoms: C_9  and  O_10 
REMARK    3  A    between atoms: C_12  and  N_13 
REMARK    4  A    between atoms: C_14  and  N_15 
REMARK       I    between atoms: N_15  and  C_16 
REMARK    5  A    between atoms: C_16  and  C_17 
REMARK    6  A    between atoms: C_19  and  O_20 
REMARK    7  A    between atoms: O_20  and  C_21 
REMARK    8  A    between atoms: C_21  and  C_22 
ROOT
HETATM    1  C   UNL     1      -5.048 -13.909 -37.221  1.00  0.00     0.050 A 
HETATM    2  C   UNL     1      -4.927 -14.908 -36.245  1.00  0.00     0.082 A 
HETATM    3  C   UNL     1      -3.712 -15.154 -35.607  1.00  0.00     0.067 A 
HETATM    4  C   UNL     1      -2.596 -14.363 -35.891  1.00  0.00     0.036 A 
HETATM    5  C   UNL     1      -2.696 -13.367 -36.864  1.00  0.00     0.030 A 
HETATM    6  C   UNL     1      -3.912 -13.147 -37.528  1.00  0.00     0.021 A 
ENDROOT
BRANCH   4   7
HETATM    7  N   UNL     1      -1.400 -14.670 -35.214  1.00  0.00    -0.337 N 
HETATM    8  C   UNL     1      -0.386 -15.492 -35.559  1.00  0.00     0.157 C 
HETATM    9  S   UNL     1       0.454 -16.296 -34.353  1.00  0.00    -0.047 SA
HETATM   10  H   UNL     1      -1.379 -14.372 -34.244  1.00  0.00     0.168 HD
BRANCH   8  11
HETATM   11  N   UNL     1       0.064 -15.630 -36.837  1.00  0.00    -0.201 NA
HETATM   12  C   UNL     1      -0.599 -16.407 -37.781  1.00  0.00     0.237 C 
HETATM   13  O   UNL     1      -0.784 -17.617 -37.721  1.00  0.00    -0.274 OA
HETATM   14  H   UNL     1       0.290 -14.701 -37.161  1.00  0.00     0.139 HD
BRANCH  12  15
HETATM   15  C   UNL     1      -1.087 -15.688 -38.992  1.00  0.00     0.029 A 
HETATM   16  C   UNL     1      -2.249 -16.059 -39.686  1.00  0.00     0.053 A 
HETATM   17  C   UNL     1      -2.602 -15.380 -40.855  1.00  0.00     0.069 A 
HETATM   18  C   UNL     1      -1.817 -14.313 -41.300  1.00  0.00     0.037 A 
HETATM   19  C   UNL     1      -0.680 -13.920 -40.596  1.00  0.00     0.004 A 
HETATM   20  C   UNL     1      -0.315 -14.608 -39.443  1.00  0.00     0.017 A 
BRANCH  17  21
HETATM   21  O   UNL     1      -3.679 -15.654 -41.650  1.00  0.00    -0.351 OA
BRANCH  21  22
HETATM   22  C   UNL     1      -4.051 -14.684 -42.628  1.00  0.00     0.179 C 
BRANCH  22  23
HETATM   23  C   UNL     1      -5.439 -14.116 -42.289  1.00  0.00     0.002 C 
HETATM   24  C   UNL     1      -6.352 -15.183 -41.683  1.00  0.00     0.011 C 
HETATM   25  C   UNL     1      -5.327 -12.923 -41.337  1.00  0.00     0.011 C 
ENDBRANCH  22  23
ENDBRANCH  21  22
ENDBRANCH  17  21
ENDBRANCH  12  15
ENDBRANCH   8  11
ENDBRANCH   4   7
BRANCH   2  26
HETATM   26  O   UNL     1      -5.981 -15.698 -35.855  1.00  0.00    -0.360 OA
HETATM   27  H   UNL     1      -6.770 -15.437 -36.377  1.00  0.00     0.217 HD
ENDBRANCH   2  26
BRANCH   1  28
HETATM   28  C   UNL     1      -6.327 -13.664 -37.875  1.00  0.00     0.183 A 
HETATM   29  O   UNL     1      -7.098 -14.754 -38.183  1.00  0.00    -0.288 OA
HETATM   30  C   UNL     1      -8.213 -14.216 -38.761  1.00  0.00     0.112 A 
HETATM   31  C   UNL     1      -8.052 -12.841 -38.781  1.00  0.00     0.094 A 
HETATM   32  C   UNL     1      -9.323 -14.900 -39.256  1.00  0.00    -0.025 A 
HETATM   33  C   UNL     1      -9.044 -12.045 -39.370  1.00  0.00     0.041 A 
HETATM   34  N   UNL     1      -6.869 -12.495 -38.178  1.00  0.00    -0.221 NA
HETATM   35  C   UNL     1     -10.173 -12.678 -39.918  1.00  0.00    -0.059 A 
HETATM   36  C   UNL     1     -11.241 -11.867 -40.596  1.00  0.00     0.048 C 
HETATM   37  C   UNL     1     -10.301 -14.078 -39.851  1.00  0.00     0.016 A 
HETATM   38  C   UNL     1      -9.493 -16.384 -39.197  1.00  0.00     0.051 C 
ENDBRANCH   1  28
TORSDOF 8
ENDMDL
