MODEL 1
REMARK VINA RESULT:      -8.4      0.000      0.000
REMARK  7 active torsions:
REMARK  status: ('A' for Active; 'I' for Inactive)
REMARK    1  A    between atoms: C_2  and  C_3 
REMARK    2  A    between atoms: C_3  and  N_4 
REMARK    3  A    between atoms: C_3  and  C_20 
REMARK       I    between atoms: N_4  and  C_5 
REMARK       I    between atoms: C_5  and  N_6 
REMARK    4  A    between atoms: N_6  and  C_7 
REMARK    5  A    between atoms: C_7  and  C_8 
REMARK    6  A    between atoms: C_10  and  O_11 
REMARK    7  A    between atoms: O_11  and  C_12 
ROOT
HETATM    1  N   UNL     1      -4.982  -0.073 -33.548  1.00  0.00    -0.334 N 
HETATM    2  C   UNL     1      -5.073   0.932 -32.624  1.00  0.00     0.316 C 
HETATM    3  N   UNL     1      -3.843   1.485 -32.372  1.00  0.00    -0.339 N 
HETATM    4  O   UNL     1      -6.114   1.302 -32.101  1.00  0.00    -0.247 OA
HETATM    5  H   UNL     1      -4.067  -0.453 -33.721  1.00  0.00     0.165 HD
HETATM    6  H   UNL     1      -3.155   1.368 -33.097  1.00  0.00     0.164 HD
ENDROOT
BRANCH   3   7
HETATM    7  C   UNL     1      -3.722   2.684 -31.571  1.00  0.00     0.163 C 
BRANCH   7   8
HETATM    8  C   UNL     1      -2.824   3.677 -32.259  1.00  0.00    -0.035 A 
HETATM    9  C   UNL     1      -1.785   4.297 -31.558  1.00  0.00     0.066 A 
HETATM   10  C   UNL     1      -1.045   5.274 -32.201  1.00  0.00     0.164 A 
HETATM   11  N   UNL     1      -1.251   5.664 -33.477  1.00  0.00    -0.237 NA
HETATM   12  C   UNL     1      -2.249   5.043 -34.139  1.00  0.00     0.120 A 
HETATM   13  C   UNL     1      -3.057   4.063 -33.582  1.00  0.00     0.028 A 
BRANCH  10  14
HETATM   14  O   UNL     1      -0.044   5.879 -31.467  1.00  0.00    -0.329 OA
BRANCH  14  15
HETATM   15  C   UNL     1      -0.282   5.976 -30.046  1.00  0.00     0.130 C 
HETATM   16  C   UNL     1       0.731   5.244 -29.125  1.00  0.00     0.032 C 
HETATM   17  C   UNL     1       0.657   6.455 -28.180  1.00  0.00     0.005 C 
HETATM   18  C   UNL     1       0.214   7.292 -29.392  1.00  0.00     0.032 C 
ENDBRANCH  14  15
ENDBRANCH  10  14
ENDBRANCH   7   8
ENDBRANCH   3   7
BRANCH   1  19
HETATM   19  C   UNL     1      -6.134  -0.866 -33.952  1.00  0.00     0.119 C 
BRANCH  19  20
HETATM   20  C   UNL     1      -6.834  -0.220 -35.166  1.00  0.00     0.025 C 
HETATM   21  C   UNL     1      -8.152   0.480 -34.852  1.00  0.00     0.007 C 
ENDBRANCH  19  20
BRANCH  19  22
HETATM   22  C   UNL     1      -5.802  -2.333 -34.186  1.00  0.00    -0.033 A 
HETATM   23  C   UNL     1      -6.794  -3.185 -34.691  1.00  0.00     0.028 A 
HETATM   24  C   UNL     1      -6.485  -4.514 -34.935  1.00  0.00     0.116 A 
HETATM   25  N   UNL     1      -5.268  -5.054 -34.716  1.00  0.00    -0.273 NA
HETATM   26  C   UNL     1      -4.325  -4.227 -34.222  1.00  0.00     0.116 A 
HETATM   27  C   UNL     1      -4.538  -2.883 -33.947  1.00  0.00     0.028 A 
ENDBRANCH  19  22
ENDBRANCH   1  19
TORSDOF 7
ENDMDL
MODEL 2
REMARK VINA RESULT:      -8.1      1.600      2.024
REMARK  7 active torsions:
REMARK  status: ('A' for Active; 'I' for Inactive)
REMARK    1  A    between atoms: C_2  and  C_3 
REMARK    2  A    between atoms: C_3  and  N_4 
REMARK    3  A    between atoms: C_3  and  C_20 
REMARK       I    between atoms: N_4  and  C_5 
REMARK       I    between atoms: C_5  and  N_6 
REMARK    4  A    between atoms: N_6  and  C_7 
REMARK    5  A    between atoms: C_7  and  C_8 
REMARK    6  A    between atoms: C_10  and  O_11 
REMARK    7  A    between atoms: O_11  and  C_12 
ROOT
HETATM    1  N   UNL     1      -6.769   1.447 -34.108  1.00  0.00    -0.334 N 
HETATM    2  C   UNL     1      -6.222   2.508 -33.440  1.00  0.00     0.316 C 
HETATM    3  N   UNL     1      -5.866   3.509 -34.308  1.00  0.00    -0.339 N 
HETATM    4  O   UNL     1      -6.080   2.567 -32.227  1.00  0.00    -0.247 OA
HETATM    5  H   UNL     1      -6.611   1.401 -35.100  1.00  0.00     0.165 HD
HETATM    6  H   UNL     1      -6.348   3.513 -35.192  1.00  0.00     0.164 HD
ENDROOT
BRANCH   3   7
HETATM    7  C   UNL     1      -5.440   4.801 -33.814  1.00  0.00     0.163 C 
BRANCH   7   8
HETATM    8  C   UNL     1      -3.937   4.887 -33.821  1.00  0.00    -0.035 A 
HETATM    9  C   UNL     1      -3.208   4.633 -32.655  1.00  0.00     0.066 A 
HETATM   10  C   UNL     1      -1.836   4.817 -32.682  1.00  0.00     0.164 A 
HETATM   11  N   UNL     1      -1.146   5.217 -33.770  1.00  0.00    -0.237 NA
HETATM   12  C   UNL     1      -1.867   5.442 -34.888  1.00  0.00     0.120 A 
HETATM   13  C   UNL     1      -3.245   5.301 -34.962  1.00  0.00     0.028 A 
BRANCH  10  14
HETATM   14  O   UNL     1      -1.155   4.580 -31.504  1.00  0.00    -0.329 OA
BRANCH  14  15
HETATM   15  C   UNL     1      -0.139   5.548 -31.164  1.00  0.00     0.130 C 
HETATM   16  C   UNL     1      -0.635   6.979 -30.822  1.00  0.00     0.032 C 
HETATM   17  C   UNL     1       0.413   7.011 -29.697  1.00  0.00     0.005 C 
HETATM   18  C   UNL     1       0.367   5.473 -29.700  1.00  0.00     0.032 C 
ENDBRANCH  14  15
ENDBRANCH  10  14
ENDBRANCH   7   8
ENDBRANCH   3   7
BRANCH   1  19
HETATM   19  C   UNL     1      -7.179   0.226 -33.428  1.00  0.00     0.119 C 
BRANCH  19  20
HETATM   20  C   UNL     1      -8.677  -0.050 -33.674  1.00  0.00     0.025 C 
HETATM   21  C   UNL     1      -9.585   0.211 -32.477  1.00  0.00     0.007 C 
ENDBRANCH  19  20
BRANCH  19  22
HETATM   22  C   UNL     1      -6.304  -0.972 -33.765  1.00  0.00    -0.033 A 
HETATM   23  C   UNL     1      -6.829  -1.997 -34.565  1.00  0.00     0.028 A 
HETATM   24  C   UNL     1      -6.023  -3.075 -34.900  1.00  0.00     0.116 A 
HETATM   25  N   UNL     1      -4.741  -3.205 -34.502  1.00  0.00    -0.273 NA
HETATM   26  C   UNL     1      -4.250  -2.217 -33.726  1.00  0.00     0.116 A 
HETATM   27  C   UNL     1      -4.977  -1.100 -33.340  1.00  0.00     0.028 A 
ENDBRANCH  19  22
ENDBRANCH   1  19
TORSDOF 7
ENDMDL
MODEL 3
REMARK VINA RESULT:      -7.6      4.930      8.184
REMARK  7 active torsions:
REMARK  status: ('A' for Active; 'I' for Inactive)
REMARK    1  A    between atoms: C_2  and  C_3 
REMARK    2  A    between atoms: C_3  and  N_4 
REMARK    3  A    between atoms: C_3  and  C_20 
REMARK       I    between atoms: N_4  and  C_5 
REMARK       I    between atoms: C_5  and  N_6 
REMARK    4  A    between atoms: N_6  and  C_7 
REMARK    5  A    between atoms: C_7  and  C_8 
REMARK    6  A    between atoms: C_10  and  O_11 
REMARK    7  A    between atoms: O_11  and  C_12 
ROOT
HETATM    1  N   UNL     1      -5.785  -0.744 -32.594  1.00  0.00    -0.334 N 
HETATM    2  C   UNL     1      -6.213   0.554 -32.512  1.00  0.00     0.316 C 
HETATM    3  N   UNL     1      -7.104   0.718 -31.482  1.00  0.00    -0.339 N 
HETATM    4  O   UNL     1      -5.841   1.455 -33.250  1.00  0.00    -0.247 OA
HETATM    5  H   UNL     1      -6.332  -1.435 -32.110  1.00  0.00     0.165 HD
HETATM    6  H   UNL     1      -7.050   0.034 -30.745  1.00  0.00     0.164 HD
ENDROOT
BRANCH   3   7
HETATM    7  C   UNL     1      -7.545   2.038 -31.089  1.00  0.00     0.163 C 
BRANCH   7   8
HETATM    8  C   UNL     1      -8.719   2.463 -31.931  1.00  0.00    -0.035 A 
HETATM    9  C   UNL     1      -9.581   1.506 -32.477  1.00  0.00     0.066 A 
HETATM   10  C   UNL     1     -10.589   1.933 -33.323  1.00  0.00     0.164 A 
HETATM   11  N   UNL     1     -10.809   3.224 -33.651  1.00  0.00    -0.237 NA
HETATM   12  C   UNL     1      -9.975   4.131 -33.102  1.00  0.00     0.120 A 
HETATM   13  C   UNL     1      -8.926   3.806 -32.254  1.00  0.00     0.028 A 
BRANCH  10  14
HETATM   14  O   UNL     1     -11.404   0.956 -33.862  1.00  0.00    -0.329 OA
BRANCH  14  15
HETATM   15  C   UNL     1     -12.806   1.061 -33.536  1.00  0.00     0.130 C 
HETATM   16  C   UNL     1     -13.733   1.628 -34.645  1.00  0.00     0.032 C 
HETATM   17  C   UNL     1     -14.771   0.568 -34.238  1.00  0.00     0.005 C 
HETATM   18  C   UNL     1     -13.606  -0.261 -33.671  1.00  0.00     0.032 C 
ENDBRANCH  14  15
ENDBRANCH  10  14
ENDBRANCH   7   8
ENDBRANCH   3   7
BRANCH   1  19
HETATM   19  C   UNL     1      -4.880  -1.201 -33.637  1.00  0.00     0.119 C 
BRANCH  19  20
HETATM   20  C   UNL     1      -3.413  -0.988 -33.209  1.00  0.00     0.025 C 
HETATM   21  C   UNL     1      -3.178  -0.967 -31.702  1.00  0.00     0.007 C 
ENDBRANCH  19  20
BRANCH  19  22
HETATM   22  C   UNL     1      -5.153  -2.629 -34.087  1.00  0.00    -0.033 A 
HETATM   23  C   UNL     1      -6.372  -2.925 -34.714  1.00  0.00     0.028 A 
HETATM   24  C   UNL     1      -6.609  -4.219 -35.153  1.00  0.00     0.116 A 
HETATM   25  N   UNL     1      -5.729  -5.231 -35.016  1.00  0.00    -0.273 NA
HETATM   26  C   UNL     1      -4.564  -4.936 -34.404  1.00  0.00     0.116 A 
HETATM   27  C   UNL     1      -4.234  -3.673 -33.933  1.00  0.00     0.028 A 
ENDBRANCH  19  22
ENDBRANCH   1  19
TORSDOF 7
ENDMDL
MODEL 4
REMARK VINA RESULT:      -7.6      2.339      9.208
REMARK  7 active torsions:
REMARK  status: ('A' for Active; 'I' for Inactive)
REMARK    1  A    between atoms: C_2  and  C_3 
REMARK    2  A    between atoms: C_3  and  N_4 
REMARK    3  A    between atoms: C_3  and  C_20 
REMARK       I    between atoms: N_4  and  C_5 
REMARK       I    between atoms: C_5  and  N_6 
REMARK    4  A    between atoms: N_6  and  C_7 
REMARK    5  A    between atoms: C_7  and  C_8 
REMARK    6  A    between atoms: C_10  and  O_11 
REMARK    7  A    between atoms: O_11  and  C_12 
ROOT
HETATM    1  N   UNL     1      -3.602   3.745 -31.657  1.00  0.00    -0.334 N 
HETATM    2  C   UNL     1      -3.728   2.398 -31.453  1.00  0.00     0.316 C 
HETATM    3  N   UNL     1      -4.816   2.116 -30.667  1.00  0.00    -0.339 N 
HETATM    4  O   UNL     1      -2.980   1.552 -31.922  1.00  0.00    -0.247 OA
HETATM    5  H   UNL     1      -4.111   4.350 -31.035  1.00  0.00     0.165 HD
HETATM    6  H   UNL     1      -5.539   2.817 -30.653  1.00  0.00     0.164 HD
ENDROOT
BRANCH   3   7
HETATM    7  C   UNL     1      -5.255   0.750 -30.472  1.00  0.00     0.163 C 
BRANCH   7   8
HETATM    8  C   UNL     1      -6.352   0.416 -31.448  1.00  0.00    -0.035 A 
HETATM    9  C   UNL     1      -6.104  -0.442 -32.524  1.00  0.00     0.066 A 
HETATM   10  C   UNL     1      -7.113  -0.647 -33.450  1.00  0.00     0.164 A 
HETATM   11  N   UNL     1      -8.335  -0.079 -33.377  1.00  0.00    -0.237 NA
HETATM   12  C   UNL     1      -8.557   0.733 -32.323  1.00  0.00     0.120 A 
HETATM   13  C   UNL     1      -7.611   1.015 -31.350  1.00  0.00     0.028 A 
BRANCH  10  14
HETATM   14  O   UNL     1      -6.821  -1.480 -34.512  1.00  0.00    -0.329 OA
BRANCH  14  15
HETATM   15  C   UNL     1      -6.304  -2.782 -34.162  1.00  0.00     0.130 C 
HETATM   16  C   UNL     1      -6.942  -3.997 -34.890  1.00  0.00     0.032 C 
HETATM   17  C   UNL     1      -5.531  -4.600 -34.994  1.00  0.00     0.005 C 
HETATM   18  C   UNL     1      -4.980  -3.169 -34.870  1.00  0.00     0.032 C 
ENDBRANCH  14  15
ENDBRANCH  10  14
ENDBRANCH   7   8
ENDBRANCH   3   7
BRANCH   1  19
HETATM   19  C   UNL     1      -2.496   4.318 -32.409  1.00  0.00     0.119 C 
BRANCH  19  20
HETATM   20  C   UNL     1      -3.005   4.940 -33.726  1.00  0.00     0.025 C 
HETATM   21  C   UNL     1      -1.971   5.018 -34.844  1.00  0.00     0.007 C 
ENDBRANCH  19  20
BRANCH  19  22
HETATM   22  C   UNL     1      -1.655   5.291 -31.594  1.00  0.00    -0.033 A 
HETATM   23  C   UNL     1      -2.299   6.221 -30.766  1.00  0.00     0.028 A 
HETATM   24  C   UNL     1      -1.534   7.087 -29.999  1.00  0.00     0.116 A 
HETATM   25  N   UNL     1      -0.186   7.093 -29.993  1.00  0.00    -0.273 NA
HETATM   26  C   UNL     1       0.422   6.200 -30.801  1.00  0.00     0.116 A 
HETATM   27  C   UNL     1      -0.256   5.293 -31.603  1.00  0.00     0.028 A 
ENDBRANCH  19  22
ENDBRANCH   1  19
TORSDOF 7
ENDMDL
MODEL 5
REMARK VINA RESULT:      -7.4      2.389     10.057
REMARK  7 active torsions:
REMARK  status: ('A' for Active; 'I' for Inactive)
REMARK    1  A    between atoms: C_2  and  C_3 
REMARK    2  A    between atoms: C_3  and  N_4 
REMARK    3  A    between atoms: C_3  and  C_20 
REMARK       I    between atoms: N_4  and  C_5 
REMARK       I    between atoms: C_5  and  N_6 
REMARK    4  A    between atoms: N_6  and  C_7 
REMARK    5  A    between atoms: C_7  and  C_8 
REMARK    6  A    between atoms: C_10  and  O_11 
REMARK    7  A    between atoms: O_11  and  C_12 
ROOT
HETATM    1  N   UNL     1      -1.635   5.603 -30.304  1.00  0.00    -0.334 N 
HETATM    2  C   UNL     1      -1.781   4.689 -31.312  1.00  0.00     0.316 C 
HETATM    3  N   UNL     1      -2.789   3.801 -31.033  1.00  0.00    -0.339 N 
HETATM    4  O   UNL     1      -1.112   4.672 -32.335  1.00  0.00    -0.247 OA
HETATM    5  H   UNL     1      -2.056   5.378 -29.419  1.00  0.00     0.165 HD
HETATM    6  H   UNL     1      -3.484   4.121 -30.378  1.00  0.00     0.164 HD
ENDROOT
BRANCH   3   7
HETATM    7  C   UNL     1      -3.246   2.863 -32.034  1.00  0.00     0.163 C 
BRANCH   7   8
HETATM    8  C   UNL     1      -4.350   2.006 -31.475  1.00  0.00    -0.035 A 
HETATM    9  C   UNL     1      -4.616   0.747 -32.022  1.00  0.00     0.066 A 
HETATM   10  C   UNL     1      -5.700   0.034 -31.541  1.00  0.00     0.164 A 
HETATM   11  N   UNL     1      -6.519   0.470 -30.561  1.00  0.00    -0.237 NA
HETATM   12  C   UNL     1      -6.237   1.680 -30.037  1.00  0.00     0.120 A 
HETATM   13  C   UNL     1      -5.184   2.479 -30.457  1.00  0.00     0.028 A 
BRANCH  10  14
HETATM   14  O   UNL     1      -5.944  -1.194 -32.124  1.00  0.00    -0.329 OA
BRANCH  14  15
HETATM   15  C   UNL     1      -5.614  -1.297 -33.526  1.00  0.00     0.130 C 
HETATM   16  C   UNL     1      -4.635  -2.435 -33.923  1.00  0.00     0.032 C 
HETATM   17  C   UNL     1      -5.509  -2.675 -35.165  1.00  0.00     0.005 C 
HETATM   18  C   UNL     1      -6.672  -2.030 -34.391  1.00  0.00     0.032 C 
ENDBRANCH  14  15
ENDBRANCH  10  14
ENDBRANCH   7   8
ENDBRANCH   3   7
BRANCH   1  19
HETATM   19  C   UNL     1      -0.596   6.623 -30.322  1.00  0.00     0.119 C 
BRANCH  19  20
HETATM   20  C   UNL     1      -1.095   7.887 -31.053  1.00  0.00     0.025 C 
HETATM   21  C   UNL     1      -2.315   8.555 -30.427  1.00  0.00     0.007 C 
ENDBRANCH  19  20
BRANCH  19  22
HETATM   22  C   UNL     1      -0.035   6.933 -28.942  1.00  0.00    -0.033 A 
HETATM   23  C   UNL     1       0.949   7.925 -28.813  1.00  0.00     0.028 A 
HETATM   24  C   UNL     1       1.439   8.231 -27.552  1.00  0.00     0.116 A 
HETATM   25  N   UNL     1       1.023   7.630 -26.419  1.00  0.00    -0.273 NA
HETATM   26  C   UNL     1       0.084   6.673 -26.557  1.00  0.00     0.116 A 
HETATM   27  C   UNL     1      -0.468   6.297 -27.774  1.00  0.00     0.028 A 
ENDBRANCH  19  22
ENDBRANCH   1  19
TORSDOF 7
ENDMDL
MODEL 6
REMARK VINA RESULT:      -7.3      5.311      8.751
REMARK  7 active torsions:
REMARK  status: ('A' for Active; 'I' for Inactive)
REMARK    1  A    between atoms: C_2  and  C_3 
REMARK    2  A    between atoms: C_3  and  N_4 
REMARK    3  A    between atoms: C_3  and  C_20 
REMARK       I    between atoms: N_4  and  C_5 
REMARK       I    between atoms: C_5  and  N_6 
REMARK    4  A    between atoms: N_6  and  C_7 
REMARK    5  A    between atoms: C_7  and  C_8 
REMARK    6  A    between atoms: C_10  and  O_11 
REMARK    7  A    between atoms: O_11  and  C_12 
ROOT
HETATM    1  N   UNL     1      -6.977  -0.694 -33.653  1.00  0.00    -0.334 N 
HETATM    2  C   UNL     1      -7.725   0.171 -34.403  1.00  0.00     0.316 C 
HETATM    3  N   UNL     1      -8.970   0.352 -33.857  1.00  0.00    -0.339 N 
HETATM    4  O   UNL     1      -7.333   0.725 -35.421  1.00  0.00    -0.247 OA
HETATM    5  H   UNL     1      -7.472  -1.271 -32.993  1.00  0.00     0.165 HD
HETATM    6  H   UNL     1      -9.048   0.156 -32.873  1.00  0.00     0.164 HD
ENDROOT
BRANCH   3   7
HETATM    7  C   UNL     1      -9.866   1.364 -34.374  1.00  0.00     0.163 C 
BRANCH   7   8
HETATM    8  C   UNL     1     -10.398   2.208 -33.247  1.00  0.00    -0.035 A 
HETATM    9  C   UNL     1     -11.686   2.748 -33.315  1.00  0.00     0.066 A 
HETATM   10  C   UNL     1     -12.100   3.596 -32.302  1.00  0.00     0.164 A 
HETATM   11  N   UNL     1     -11.342   3.931 -31.237  1.00  0.00    -0.237 NA
HETATM   12  C   UNL     1     -10.109   3.388 -31.185  1.00  0.00     0.120 A 
HETATM   13  C   UNL     1      -9.594   2.540 -32.153  1.00  0.00     0.028 A 
BRANCH  10  14
HETATM   14  O   UNL     1     -13.369   4.128 -32.418  1.00  0.00    -0.329 OA
BRANCH  14  15
HETATM   15  C   UNL     1     -14.418   3.397 -31.746  1.00  0.00     0.130 C 
HETATM   16  C   UNL     1     -15.868   3.904 -31.971  1.00  0.00     0.032 C 
HETATM   17  C   UNL     1     -16.307   2.433 -32.059  1.00  0.00     0.005 C 
HETATM   18  C   UNL     1     -14.861   2.093 -32.459  1.00  0.00     0.032 C 
ENDBRANCH  14  15
ENDBRANCH  10  14
ENDBRANCH   7   8
ENDBRANCH   3   7
BRANCH   1  19
HETATM   19  C   UNL     1      -5.636  -1.104 -34.042  1.00  0.00     0.119 C 
BRANCH  19  20
HETATM   20  C   UNL     1      -4.598  -0.591 -33.022  1.00  0.00     0.025 C 
HETATM   21  C   UNL     1      -5.145  -0.331 -31.622  1.00  0.00     0.007 C 
ENDBRANCH  19  20
BRANCH  19  22
HETATM   22  C   UNL     1      -5.514  -2.600 -34.293  1.00  0.00    -0.033 A 
HETATM   23  C   UNL     1      -6.611  -3.295 -34.821  1.00  0.00     0.028 A 
HETATM   24  C   UNL     1      -6.492  -4.653 -35.080  1.00  0.00     0.116 A 
HETATM   25  N   UNL     1      -5.367  -5.363 -34.856  1.00  0.00    -0.273 NA
HETATM   26  C   UNL     1      -4.322  -4.685 -34.339  1.00  0.00     0.116 A 
HETATM   27  C   UNL     1      -4.344  -3.329 -34.048  1.00  0.00     0.028 A 
ENDBRANCH  19  22
ENDBRANCH   1  19
TORSDOF 7
ENDMDL
MODEL 7
REMARK VINA RESULT:      -7.3      3.897      5.677
REMARK  7 active torsions:
REMARK  status: ('A' for Active; 'I' for Inactive)
REMARK    1  A    between atoms: C_2  and  C_3 
REMARK    2  A    between atoms: C_3  and  N_4 
REMARK    3  A    between atoms: C_3  and  C_20 
REMARK       I    between atoms: N_4  and  C_5 
REMARK       I    between atoms: C_5  and  N_6 
REMARK    4  A    between atoms: N_6  and  C_7 
REMARK    5  A    between atoms: C_7  and  C_8 
REMARK    6  A    between atoms: C_10  and  O_11 
REMARK    7  A    between atoms: O_11  and  C_12 
ROOT
HETATM    1  N   UNL     1      -6.999  -0.777 -33.334  1.00  0.00    -0.334 N 
HETATM    2  C   UNL     1      -8.029  -0.117 -33.947  1.00  0.00     0.316 C 
HETATM    3  N   UNL     1      -9.108   0.004 -33.107  1.00  0.00    -0.339 N 
HETATM    4  O   UNL     1      -7.992   0.322 -35.087  1.00  0.00    -0.247 OA
HETATM    5  H   UNL     1      -7.222  -1.302 -32.506  1.00  0.00     0.165 HD
HETATM    6  H   UNL     1      -8.904  -0.053 -32.123  1.00  0.00     0.164 HD
ENDROOT
BRANCH   3   7
HETATM    7  C   UNL     1     -10.241   0.827 -33.473  1.00  0.00     0.163 C 
BRANCH   7   8
HETATM    8  C   UNL     1     -10.133   2.177 -32.817  1.00  0.00    -0.035 A 
HETATM    9  C   UNL     1      -8.950   2.560 -32.176  1.00  0.00     0.066 A 
HETATM   10  C   UNL     1      -8.926   3.769 -31.503  1.00  0.00     0.164 A 
HETATM   11  N   UNL     1      -9.972   4.619 -31.433  1.00  0.00    -0.237 NA
HETATM   12  C   UNL     1     -11.098   4.237 -32.070  1.00  0.00     0.120 A 
HETATM   13  C   UNL     1     -11.230   3.041 -32.759  1.00  0.00     0.028 A 
BRANCH  10  14
HETATM   14  O   UNL     1      -7.748   4.100 -30.862  1.00  0.00    -0.329 OA
BRANCH  14  15
HETATM   15  C   UNL     1      -6.598   3.302 -31.217  1.00  0.00     0.130 C 
HETATM   16  C   UNL     1      -5.459   4.033 -31.978  1.00  0.00     0.032 C 
HETATM   17  C   UNL     1      -4.457   3.243 -31.120  1.00  0.00     0.005 C 
HETATM   18  C   UNL     1      -5.573   3.093 -30.072  1.00  0.00     0.032 C 
ENDBRANCH  14  15
ENDBRANCH  10  14
ENDBRANCH   7   8
ENDBRANCH   3   7
BRANCH   1  19
HETATM   19  C   UNL     1      -5.757  -1.091 -34.024  1.00  0.00     0.119 C 
BRANCH  19  20
HETATM   20  C   UNL     1      -4.556  -0.466 -33.282  1.00  0.00     0.025 C 
HETATM   21  C   UNL     1      -4.738  -0.314 -31.776  1.00  0.00     0.007 C 
ENDBRANCH  19  20
BRANCH  19  22
HETATM   22  C   UNL     1      -5.571  -2.580 -34.279  1.00  0.00    -0.033 A 
HETATM   23  C   UNL     1      -6.622  -3.310 -34.852  1.00  0.00     0.028 A 
HETATM   24  C   UNL     1      -6.443  -4.660 -35.115  1.00  0.00     0.116 A 
HETATM   25  N   UNL     1      -5.302  -5.331 -34.854  1.00  0.00    -0.273 NA
HETATM   26  C   UNL     1      -4.302  -4.620 -34.295  1.00  0.00     0.116 A 
HETATM   27  C   UNL     1      -4.385  -3.267 -33.997  1.00  0.00     0.028 A 
ENDBRANCH  19  22
ENDBRANCH   1  19
TORSDOF 7
ENDMDL
MODEL 8
REMARK VINA RESULT:      -7.2      5.230      7.451
REMARK  7 active torsions:
REMARK  status: ('A' for Active; 'I' for Inactive)
REMARK    1  A    between atoms: C_2  and  C_3 
REMARK    2  A    between atoms: C_3  and  N_4 
REMARK    3  A    between atoms: C_3  and  C_20 
REMARK       I    between atoms: N_4  and  C_5 
REMARK       I    between atoms: C_5  and  N_6 
REMARK    4  A    between atoms: N_6  and  C_7 
REMARK    5  A    between atoms: C_7  and  C_8 
REMARK    6  A    between atoms: C_10  and  O_11 
REMARK    7  A    between atoms: O_11  and  C_12 
ROOT
HETATM    1  N   UNL     1      -6.982  -0.568 -33.454  1.00  0.00    -0.334 N 
HETATM    2  C   UNL     1      -7.973   0.034 -34.181  1.00  0.00     0.316 C 
HETATM    3  N   UNL     1      -9.089   0.250 -33.413  1.00  0.00    -0.339 N 
HETATM    4  O   UNL     1      -7.875   0.353 -35.357  1.00  0.00    -0.247 OA
HETATM    5  H   UNL     1      -7.252  -1.003 -32.588  1.00  0.00     0.165 HD
HETATM    6  H   UNL     1      -8.934   0.293 -32.419  1.00  0.00     0.164 HD
ENDROOT
BRANCH   3   7
HETATM    7  C   UNL     1     -10.192   1.040 -33.917  1.00  0.00     0.163 C 
BRANCH   7   8
HETATM    8  C   UNL     1      -9.967   2.496 -33.612  1.00  0.00    -0.035 A 
HETATM    9  C   UNL     1      -9.986   3.445 -34.639  1.00  0.00     0.066 A 
HETATM   10  C   UNL     1      -9.679   4.759 -34.329  1.00  0.00     0.164 A 
HETATM   11  N   UNL     1      -9.372   5.193 -33.089  1.00  0.00    -0.237 NA
HETATM   12  C   UNL     1      -9.373   4.264 -32.111  1.00  0.00     0.120 A 
HETATM   13  C   UNL     1      -9.652   2.922 -32.319  1.00  0.00     0.028 A 
BRANCH  10  14
HETATM   14  O   UNL     1      -9.684   5.661 -35.375  1.00  0.00    -0.329 OA
BRANCH  14  15
HETATM   15  C   UNL     1     -10.550   6.805 -35.209  1.00  0.00     0.130 C 
HETATM   16  C   UNL     1     -10.567   7.833 -36.373  1.00  0.00     0.032 C 
HETATM   17  C   UNL     1     -12.088   7.945 -36.175  1.00  0.00     0.005 C 
HETATM   18  C   UNL     1     -12.043   6.544 -35.540  1.00  0.00     0.032 C 
ENDBRANCH  14  15
ENDBRANCH  10  14
ENDBRANCH   7   8
ENDBRANCH   3   7
BRANCH   1  19
HETATM   19  C   UNL     1      -5.712  -0.962 -34.045  1.00  0.00     0.119 C 
BRANCH  19  20
HETATM   20  C   UNL     1      -4.537  -0.441 -33.191  1.00  0.00     0.025 C 
HETATM   21  C   UNL     1      -4.847  -0.262 -31.709  1.00  0.00     0.007 C 
ENDBRANCH  19  20
BRANCH  19  22
HETATM   22  C   UNL     1      -5.614  -2.455 -34.320  1.00  0.00    -0.033 A 
HETATM   23  C   UNL     1      -4.406  -3.118 -34.062  1.00  0.00     0.028 A 
HETATM   24  C   UNL     1      -4.324  -4.485 -34.282  1.00  0.00     0.116 A 
HETATM   25  N   UNL     1      -5.350  -5.235 -34.735  1.00  0.00    -0.273 NA
HETATM   26  C   UNL     1      -6.503  -4.584 -34.988  1.00  0.00     0.116 A 
HETATM   27  C   UNL     1      -6.683  -3.221 -34.798  1.00  0.00     0.028 A 
ENDBRANCH  19  22
ENDBRANCH   1  19
TORSDOF 7
ENDMDL
MODEL 9
REMARK VINA RESULT:      -7.0      4.901      8.372
REMARK  7 active torsions:
REMARK  status: ('A' for Active; 'I' for Inactive)
REMARK    1  A    between atoms: C_2  and  C_3 
REMARK    2  A    between atoms: C_3  and  N_4 
REMARK    3  A    between atoms: C_3  and  C_20 
REMARK       I    between atoms: N_4  and  C_5 
REMARK       I    between atoms: C_5  and  N_6 
REMARK    4  A    between atoms: N_6  and  C_7 
REMARK    5  A    between atoms: C_7  and  C_8 
REMARK    6  A    between atoms: C_10  and  O_11 
REMARK    7  A    between atoms: O_11  and  C_12 
ROOT
HETATM    1  N   UNL     1     -10.038   1.832 -32.520  1.00  0.00    -0.334 N 
HETATM    2  C   UNL     1      -9.123   2.077 -31.532  1.00  0.00     0.316 C 
HETATM    3  N   UNL     1      -8.243   1.033 -31.401  1.00  0.00    -0.339 N 
HETATM    4  O   UNL     1      -9.082   3.099 -30.861  1.00  0.00    -0.247 OA
HETATM    5  H   UNL     1     -10.132   0.880 -32.828  1.00  0.00     0.165 HD
HETATM    6  H   UNL     1      -8.140   0.445 -32.212  1.00  0.00     0.164 HD
ENDROOT
BRANCH   3   7
HETATM    7  C   UNL     1      -7.079   1.148 -30.550  1.00  0.00     0.163 C 
BRANCH   7   8
HETATM    8  C   UNL     1      -5.887   0.514 -31.216  1.00  0.00    -0.035 A 
HETATM    9  C   UNL     1      -6.021  -0.112 -32.459  1.00  0.00     0.066 A 
HETATM   10  C   UNL     1      -4.922  -0.765 -32.991  1.00  0.00     0.164 A 
HETATM   11  N   UNL     1      -3.715  -0.828 -32.391  1.00  0.00    -0.237 NA
HETATM   12  C   UNL     1      -3.604  -0.205 -31.200  1.00  0.00     0.120 A 
HETATM   13  C   UNL     1      -4.646   0.463 -30.575  1.00  0.00     0.028 A 
BRANCH  10  14
HETATM   14  O   UNL     1      -5.101  -1.392 -34.208  1.00  0.00    -0.329 OA
BRANCH  14  15
HETATM   15  C   UNL     1      -5.526  -2.770 -34.145  1.00  0.00     0.130 C 
HETATM   16  C   UNL     1      -7.025  -3.045 -34.439  1.00  0.00     0.032 C 
HETATM   17  C   UNL     1      -6.582  -4.290 -35.227  1.00  0.00     0.005 C 
HETATM   18  C   UNL     1      -5.218  -3.604 -35.416  1.00  0.00     0.032 C 
ENDBRANCH  14  15
ENDBRANCH  10  14
ENDBRANCH   7   8
ENDBRANCH   3   7
BRANCH   1  19
HETATM   19  C   UNL     1     -11.121   2.756 -32.824  1.00  0.00     0.119 C 
BRANCH  19  20
HETATM   20  C   UNL     1     -10.694   3.737 -33.936  1.00  0.00     0.025 C 
HETATM   21  C   UNL     1     -11.387   3.531 -35.279  1.00  0.00     0.007 C 
ENDBRANCH  19  20
BRANCH  19  22
HETATM   22  C   UNL     1     -12.435   2.058 -33.138  1.00  0.00    -0.033 A 
HETATM   23  C   UNL     1     -12.409   0.793 -33.743  1.00  0.00     0.028 A 
HETATM   24  C   UNL     1     -13.606   0.141 -34.002  1.00  0.00     0.116 A 
HETATM   25  N   UNL     1     -14.817   0.651 -33.702  1.00  0.00    -0.273 NA
HETATM   26  C   UNL     1     -14.830   1.871 -33.129  1.00  0.00     0.116 A 
HETATM   27  C   UNL     1     -13.688   2.600 -32.830  1.00  0.00     0.028 A 
ENDBRANCH  19  22
ENDBRANCH   1  19
TORSDOF 7
ENDMDL
MODEL 10
REMARK VINA RESULT:      -6.9      2.896      9.925
REMARK  7 active torsions:
REMARK  status: ('A' for Active; 'I' for Inactive)
REMARK    1  A    between atoms: C_2  and  C_3 
REMARK    2  A    between atoms: C_3  and  N_4 
REMARK    3  A    between atoms: C_3  and  C_20 
REMARK       I    between atoms: N_4  and  C_5 
REMARK       I    between atoms: C_5  and  N_6 
REMARK    4  A    between atoms: N_6  and  C_7 
REMARK    5  A    between atoms: C_7  and  C_8 
REMARK    6  A    between atoms: C_10  and  O_11 
REMARK    7  A    between atoms: O_11  and  C_12 
ROOT
HETATM    1  N   UNL     1      -1.602   5.904 -30.164  1.00  0.00    -0.334 N 
HETATM    2  C   UNL     1      -1.638   4.946 -31.141  1.00  0.00     0.316 C 
HETATM    3  N   UNL     1      -2.696   4.092 -30.959  1.00  0.00    -0.339 N 
HETATM    4  O   UNL     1      -0.841   4.867 -32.065  1.00  0.00    -0.247 OA
HETATM    5  H   UNL     1      -2.142   5.729 -29.334  1.00  0.00     0.165 HD
HETATM    6  H   UNL     1      -3.463   4.456 -30.417  1.00  0.00     0.164 HD
ENDROOT
BRANCH   3   7
HETATM    7  C   UNL     1      -3.041   3.116 -31.969  1.00  0.00     0.163 C 
BRANCH   7   8
HETATM    8  C   UNL     1      -4.302   3.531 -32.680  1.00  0.00    -0.035 A 
HETATM    9  C   UNL     1      -5.280   2.584 -32.998  1.00  0.00     0.066 A 
HETATM   10  C   UNL     1      -6.378   2.992 -33.736  1.00  0.00     0.164 A 
HETATM   11  N   UNL     1      -6.578   4.256 -34.162  1.00  0.00    -0.237 NA
HETATM   12  C   UNL     1      -5.629   5.157 -33.831  1.00  0.00     0.120 A 
HETATM   13  C   UNL     1      -4.486   4.849 -33.109  1.00  0.00     0.028 A 
BRANCH  10  14
HETATM   14  O   UNL     1      -7.309   2.022 -34.052  1.00  0.00    -0.329 OA
BRANCH  14  15
HETATM   15  C   UNL     1      -6.774   0.712 -34.342  1.00  0.00     0.130 C 
HETATM   16  C   UNL     1      -7.121  -0.415 -33.331  1.00  0.00     0.032 C 
HETATM   17  C   UNL     1      -7.310  -1.354 -34.534  1.00  0.00     0.005 C 
HETATM   18  C   UNL     1      -7.580  -0.103 -35.386  1.00  0.00     0.032 C 
ENDBRANCH  14  15
ENDBRANCH  10  14
ENDBRANCH   7   8
ENDBRANCH   3   7
BRANCH   1  19
HETATM   19  C   UNL     1      -0.545   6.901 -30.090  1.00  0.00     0.119 C 
BRANCH  19  20
HETATM   20  C   UNL     1      -1.003   8.221 -30.745  1.00  0.00     0.025 C 
HETATM   21  C   UNL     1      -2.474   8.567 -30.539  1.00  0.00     0.007 C 
ENDBRANCH  19  20
BRANCH  19  22
HETATM   22  C   UNL     1      -0.011   7.107 -28.680  1.00  0.00    -0.033 A 
HETATM   23  C   UNL     1       1.033   8.019 -28.472  1.00  0.00     0.028 A 
HETATM   24  C   UNL     1       1.500   8.231 -27.183  1.00  0.00     0.116 A 
HETATM   25  N   UNL     1       1.006   7.609 -26.094  1.00  0.00    -0.273 NA
HETATM   26  C   UNL     1       0.008   6.727 -26.308  1.00  0.00     0.116 A 
HETATM   27  C   UNL     1      -0.526   6.448 -27.558  1.00  0.00     0.028 A 
ENDBRANCH  19  22
ENDBRANCH   1  19
TORSDOF 7
ENDMDL
