MODEL 1
REMARK VINA RESULT:      -8.8      0.000      0.000
REMARK  8 active torsions:
REMARK  status: ('A' for Active; 'I' for Inactive)
REMARK    1  A    between atoms: N_2  and  C_3 
REMARK    2  A    between atoms: C_4  and  C_5 
REMARK       I    between atoms: C_5  and  N_6 
REMARK    3  A    between atoms: N_6  and  C_7 
REMARK    4  A    between atoms: C_7  and  C_8 
REMARK    5  A    between atoms: N_13  and  C_15 
REMARK    6  A    between atoms: C_15  and  C_16 
REMARK    7  A    between atoms: C_16  and  C_17 
REMARK    8  A    between atoms: C_17  and  C_18 
ROOT
HETATM    1  C   UNL     1      -6.277   2.698 -30.914  1.00  0.00     0.140 C 
HETATM    2  O   UNL     1      -5.573   3.360 -31.982  1.00  0.00    -0.373 OA
HETATM    3  C   UNL     1      -4.827   4.473 -31.453  1.00  0.00     0.064 C 
HETATM    4  C   UNL     1      -5.277   5.707 -32.243  1.00  0.00     0.066 C 
HETATM    5  C   UNL     1      -4.904   5.587 -33.719  1.00  0.00     0.237 C 
HETATM    6  N   UNL     1      -3.418   5.336 -33.893  1.00  0.00    -0.071 N 
HETATM    7  H   UNL     1      -3.306   5.092 -34.884  1.00  0.00     0.279 HD
HETATM    8  C   UNL     1      -3.012   4.075 -33.144  1.00  0.00     0.237 C 
HETATM    9  C   UNL     1      -3.331   4.225 -31.667  1.00  0.00     0.066 C 
HETATM   10  C   UNL     1      -5.172   4.568 -29.964  1.00  0.00     0.041 C 
HETATM   11  C   UNL     1      -6.447   3.764 -29.847  1.00  0.00     0.036 C 
ENDROOT
BRANCH   1  12
HETATM   12  C   UNL     1      -5.485   1.471 -30.421  1.00  0.00     0.155 C 
BRANCH  12  13
HETATM   13  N   UNL     1      -5.577   0.355 -31.346  1.00  0.00    -0.354 N 
HETATM   14  C   UNL     1      -4.597   0.075 -32.283  1.00  0.00     0.253 C 
HETATM   15  O   UNL     1      -3.558   0.714 -32.395  1.00  0.00    -0.268 OA
HETATM   16  H   UNL     1      -6.446  -0.164 -31.386  1.00  0.00     0.162 HD
BRANCH  14  17
HETATM   17  C   UNL     1      -4.895  -1.111 -33.139  1.00  0.00     0.053 A 
HETATM   18  C   UNL     1      -6.023  -1.160 -33.991  1.00  0.00     0.025 A 
HETATM   19  C   UNL     1      -6.209  -2.338 -34.744  1.00  0.00     0.025 A 
HETATM   20  C   UNL     1      -5.313  -3.410 -34.670  1.00  0.00     0.002 A 
HETATM   21  C   UNL     1      -4.201  -3.333 -33.843  1.00  0.00     0.001 A 
HETATM   22  C   UNL     1      -3.988  -2.187 -33.082  1.00  0.00     0.019 A 
BRANCH  18  23
HETATM   23  N   UNL     1      -6.969  -0.103 -34.039  1.00  0.00    -0.291 NA
HETATM   24  C   UNL     1      -8.243  -0.521 -33.451  1.00  0.00     0.116 C 
HETATM   25  C   UNL     1      -7.084   0.548 -35.347  1.00  0.00     0.116 C 
ENDBRANCH  18  23
ENDBRANCH  14  17
ENDBRANCH  12  13
ENDBRANCH   1  12
BRANCH   6  26
HETATM   26  C   UNL     1      -2.584   6.574 -33.650  1.00  0.00     0.235 C 
BRANCH  26  27
HETATM   27  C   UNL     1      -1.129   6.284 -33.301  1.00  0.00     0.032 C 
BRANCH  27  28
HETATM   28  C   UNL     1      -0.490   7.318 -32.372  1.00  0.00     0.040 C 
BRANCH  28  29
HETATM   29  C   UNL     1      -0.075   6.678 -31.073  1.00  0.00    -0.058 A 
HETATM   30  C   UNL     1      -0.035   7.435 -29.893  1.00  0.00     0.007 A 
HETATM   31  C   UNL     1       0.392   6.856 -28.698  1.00  0.00     0.001 A 
HETATM   32  C   UNL     1       0.787   5.520 -28.671  1.00  0.00     0.000 A 
HETATM   33  C   UNL     1       0.752   4.761 -29.839  1.00  0.00     0.001 A 
HETATM   34  C   UNL     1       0.326   5.336 -31.036  1.00  0.00     0.007 A 
ENDBRANCH  28  29
ENDBRANCH  27  28
ENDBRANCH  26  27
ENDBRANCH   6  26
TORSDOF 8
ENDMDL
MODEL 2
REMARK VINA RESULT:      -8.8      2.189      9.453
REMARK  8 active torsions:
REMARK  status: ('A' for Active; 'I' for Inactive)
REMARK    1  A    between atoms: N_2  and  C_3 
REMARK    2  A    between atoms: C_4  and  C_5 
REMARK       I    between atoms: C_5  and  N_6 
REMARK    3  A    between atoms: N_6  and  C_7 
REMARK    4  A    between atoms: C_7  and  C_8 
REMARK    5  A    between atoms: N_13  and  C_15 
REMARK    6  A    between atoms: C_15  and  C_16 
REMARK    7  A    between atoms: C_16  and  C_17 
REMARK    8  A    between atoms: C_17  and  C_18 
ROOT
HETATM    1  C   UNL     1      -4.308   5.460 -31.447  1.00  0.00     0.140 C 
HETATM    2  O   UNL     1      -5.338   4.509 -31.777  1.00  0.00    -0.373 OA
HETATM    3  C   UNL     1      -4.815   3.171 -31.667  1.00  0.00     0.064 C 
HETATM    4  C   UNL     1      -5.067   2.499 -33.022  1.00  0.00     0.066 C 
HETATM    5  C   UNL     1      -6.562   2.367 -33.306  1.00  0.00     0.237 C 
HETATM    6  N   UNL     1      -7.272   1.629 -32.187  1.00  0.00    -0.071 N 
HETATM    7  H   UNL     1      -8.273   1.754 -32.382  1.00  0.00     0.279 HD
HETATM    8  C   UNL     1      -7.050   2.349 -30.865  1.00  0.00     0.237 C 
HETATM    9  C   UNL     1      -5.565   2.425 -30.560  1.00  0.00     0.066 C 
HETATM   10  C   UNL     1      -3.325   3.305 -31.344  1.00  0.00     0.041 C 
HETATM   11  C   UNL     1      -3.007   4.731 -31.734  1.00  0.00     0.036 C 
ENDROOT
BRANCH   1  12
HETATM   12  C   UNL     1      -4.436   5.913 -29.980  1.00  0.00     0.155 C 
BRANCH  12  13
HETATM   13  N   UNL     1      -3.180   6.415 -29.452  1.00  0.00    -0.354 N 
HETATM   14  C   UNL     1      -2.802   7.743 -29.550  1.00  0.00     0.253 C 
HETATM   15  O   UNL     1      -3.500   8.615 -30.055  1.00  0.00    -0.268 OA
HETATM   16  H   UNL     1      -2.503   5.745 -29.107  1.00  0.00     0.162 HD
BRANCH  14  17
HETATM   17  C   UNL     1      -1.469   8.043 -28.949  1.00  0.00     0.053 A 
HETATM   18  C   UNL     1      -0.290   7.386 -29.369  1.00  0.00     0.025 A 
HETATM   19  C   UNL     1       0.911   7.742 -28.721  1.00  0.00     0.025 A 
HETATM   20  C   UNL     1       0.945   8.715 -27.716  1.00  0.00     0.002 A 
HETATM   21  C   UNL     1      -0.222   9.363 -27.332  1.00  0.00     0.001 A 
HETATM   22  C   UNL     1      -1.425   9.033 -27.948  1.00  0.00     0.019 A 
BRANCH  18  23
HETATM   23  N   UNL     1      -0.315   6.362 -30.352  1.00  0.00    -0.291 NA
HETATM   24  C   UNL     1       0.348   5.154 -29.856  1.00  0.00     0.116 C 
HETATM   25  C   UNL     1       0.113   6.790 -31.686  1.00  0.00     0.116 C 
ENDBRANCH  18  23
ENDBRANCH  14  17
ENDBRANCH  12  13
ENDBRANCH   1  12
BRANCH   6  26
HETATM   26  C   UNL     1      -7.006   0.140 -32.208  1.00  0.00     0.235 C 
BRANCH  26  27
HETATM   27  C   UNL     1      -7.496  -0.560 -33.469  1.00  0.00     0.032 C 
BRANCH  27  28
HETATM   28  C   UNL     1      -6.407  -0.799 -34.516  1.00  0.00     0.040 C 
BRANCH  28  29
HETATM   29  C   UNL     1      -5.939  -2.230 -34.477  1.00  0.00    -0.058 A 
HETATM   30  C   UNL     1      -4.609  -2.530 -34.148  1.00  0.00     0.007 A 
HETATM   31  C   UNL     1      -4.162  -3.852 -34.154  1.00  0.00     0.001 A 
HETATM   32  C   UNL     1      -5.035  -4.883 -34.491  1.00  0.00     0.000 A 
HETATM   33  C   UNL     1      -6.358  -4.595 -34.821  1.00  0.00     0.001 A 
HETATM   34  C   UNL     1      -6.809  -3.274 -34.816  1.00  0.00     0.007 A 
ENDBRANCH  28  29
ENDBRANCH  27  28
ENDBRANCH  26  27
ENDBRANCH   6  26
TORSDOF 8
ENDMDL
MODEL 3
REMARK VINA RESULT:      -8.7      2.696      9.643
REMARK  8 active torsions:
REMARK  status: ('A' for Active; 'I' for Inactive)
REMARK    1  A    between atoms: N_2  and  C_3 
REMARK    2  A    between atoms: C_4  and  C_5 
REMARK       I    between atoms: C_5  and  N_6 
REMARK    3  A    between atoms: N_6  and  C_7 
REMARK    4  A    between atoms: C_7  and  C_8 
REMARK    5  A    between atoms: N_13  and  C_15 
REMARK    6  A    between atoms: C_15  and  C_16 
REMARK    7  A    between atoms: C_16  and  C_17 
REMARK    8  A    between atoms: C_17  and  C_18 
ROOT
HETATM    1  C   UNL     1      -1.820   6.580 -32.697  1.00  0.00     0.140 C 
HETATM    2  O   UNL     1      -3.042   5.839 -32.510  1.00  0.00    -0.373 OA
HETATM    3  C   UNL     1      -3.092   4.745 -33.445  1.00  0.00     0.064 C 
HETATM    4  C   UNL     1      -4.406   4.901 -34.218  1.00  0.00     0.066 C 
HETATM    5  C   UNL     1      -5.614   4.749 -33.297  1.00  0.00     0.237 C 
HETATM    6  N   UNL     1      -5.572   3.432 -32.545  1.00  0.00    -0.071 N 
HETATM    7  H   UNL     1      -6.310   3.509 -31.835  1.00  0.00     0.279 HD
HETATM    8  C   UNL     1      -4.283   3.330 -31.744  1.00  0.00     0.237 C 
HETATM    9  C   UNL     1      -3.087   3.421 -32.674  1.00  0.00     0.066 C 
HETATM   10  C   UNL     1      -1.860   4.876 -34.344  1.00  0.00     0.041 C 
HETATM   11  C   UNL     1      -1.424   6.308 -34.137  1.00  0.00     0.036 C 
ENDROOT
BRANCH   1  12
HETATM   12  C   UNL     1      -0.753   6.131 -31.680  1.00  0.00     0.155 C 
BRANCH  12  13
HETATM   13  N   UNL     1      -0.507   7.141 -30.665  1.00  0.00    -0.354 N 
HETATM   14  C   UNL     1      -0.035   6.834 -29.401  1.00  0.00     0.253 C 
HETATM   15  O   UNL     1       0.249   5.699 -29.036  1.00  0.00    -0.268 OA
HETATM   16  H   UNL     1      -0.808   8.090 -30.851  1.00  0.00     0.162 HD
BRANCH  14  17
HETATM   17  C   UNL     1       0.138   8.019 -28.511  1.00  0.00     0.053 A 
HETATM   18  C   UNL     1      -0.909   8.939 -28.271  1.00  0.00     0.025 A 
HETATM   19  C   UNL     1      -0.625  10.029 -27.422  1.00  0.00     0.025 A 
HETATM   20  C   UNL     1       0.629  10.191 -26.825  1.00  0.00     0.002 A 
HETATM   21  C   UNL     1       1.638   9.266 -27.057  1.00  0.00     0.001 A 
HETATM   22  C   UNL     1       1.394   8.180 -27.894  1.00  0.00     0.019 A 
BRANCH  18  23
HETATM   23  N   UNL     1      -2.171   8.816 -28.908  1.00  0.00    -0.291 NA
HETATM   24  C   UNL     1      -2.509  10.045 -29.629  1.00  0.00     0.116 C 
HETATM   25  C   UNL     1      -3.238   8.301 -28.046  1.00  0.00     0.116 C 
ENDBRANCH  18  23
ENDBRANCH  14  17
ENDBRANCH  12  13
ENDBRANCH   1  12
BRANCH   6  26
HETATM   26  C   UNL     1      -5.930   2.250 -33.419  1.00  0.00     0.235 C 
BRANCH  26  27
HETATM   27  C   UNL     1      -6.169   0.958 -32.648  1.00  0.00     0.032 C 
BRANCH  27  28
HETATM   28  C   UNL     1      -4.989  -0.016 -32.676  1.00  0.00     0.040 C 
BRANCH  28  29
HETATM   29  C   UNL     1      -5.327  -1.234 -33.494  1.00  0.00    -0.058 A 
HETATM   30  C   UNL     1      -6.653  -1.485 -33.875  1.00  0.00     0.007 A 
HETATM   31  C   UNL     1      -6.975  -2.636 -34.595  1.00  0.00     0.001 A 
HETATM   32  C   UNL     1      -5.978  -3.547 -34.937  1.00  0.00     0.000 A 
HETATM   33  C   UNL     1      -4.658  -3.307 -34.561  1.00  0.00     0.001 A 
HETATM   34  C   UNL     1      -4.332  -2.157 -33.841  1.00  0.00     0.007 A 
ENDBRANCH  28  29
ENDBRANCH  27  28
ENDBRANCH  26  27
ENDBRANCH   6  26
TORSDOF 8
ENDMDL
MODEL 4
REMARK VINA RESULT:      -8.6      2.303      9.324
REMARK  8 active torsions:
REMARK  status: ('A' for Active; 'I' for Inactive)
REMARK    1  A    between atoms: N_2  and  C_3 
REMARK    2  A    between atoms: C_4  and  C_5 
REMARK       I    between atoms: C_5  and  N_6 
REMARK    3  A    between atoms: N_6  and  C_7 
REMARK    4  A    between atoms: C_7  and  C_8 
REMARK    5  A    between atoms: N_13  and  C_15 
REMARK    6  A    between atoms: C_15  and  C_16 
REMARK    7  A    between atoms: C_16  and  C_17 
REMARK    8  A    between atoms: C_17  and  C_18 
ROOT
HETATM    1  C   UNL     1      -4.735   5.241 -31.837  1.00  0.00     0.140 C 
HETATM    2  O   UNL     1      -5.727   4.200 -31.742  1.00  0.00    -0.373 OA
HETATM    3  C   UNL     1      -5.930   3.604 -33.037  1.00  0.00     0.064 C 
HETATM    4  C   UNL     1      -7.431   3.715 -33.330  1.00  0.00     0.066 C 
HETATM    5  C   UNL     1      -8.253   2.898 -32.335  1.00  0.00     0.237 C 
HETATM    6  N   UNL     1      -7.804   1.450 -32.308  1.00  0.00    -0.071 N 
HETATM    7  H   UNL     1      -8.281   1.040 -31.496  1.00  0.00     0.279 HD
HETATM    8  C   UNL     1      -6.325   1.369 -31.961  1.00  0.00     0.237 C 
HETATM    9  C   UNL     1      -5.509   2.133 -32.988  1.00  0.00     0.066 C 
HETATM   10  C   UNL     1      -5.076   4.400 -34.028  1.00  0.00     0.041 C 
HETATM   11  C   UNL     1      -4.786   5.686 -33.288  1.00  0.00     0.036 C 
ENDROOT
BRANCH   1  12
HETATM   12  C   UNL     1      -3.351   4.711 -31.415  1.00  0.00     0.155 C 
BRANCH  12  13
HETATM   13  N   UNL     1      -2.656   5.639 -30.540  1.00  0.00    -0.354 N 
HETATM   14  C   UNL     1      -1.526   6.336 -30.932  1.00  0.00     0.253 C 
HETATM   15  O   UNL     1      -1.032   6.261 -32.051  1.00  0.00    -0.268 OA
HETATM   16  H   UNL     1      -2.939   5.685 -29.569  1.00  0.00     0.162 HD
BRANCH  14  17
HETATM   17  C   UNL     1      -0.964   7.228 -29.875  1.00  0.00     0.053 A 
HETATM   18  C   UNL     1      -1.718   8.276 -29.297  1.00  0.00     0.025 A 
HETATM   19  C   UNL     1      -1.078   9.062 -28.316  1.00  0.00     0.025 A 
HETATM   20  C   UNL     1       0.238   8.812 -27.914  1.00  0.00     0.002 A 
HETATM   21  C   UNL     1       0.954   7.766 -28.480  1.00  0.00     0.001 A 
HETATM   22  C   UNL     1       0.355   6.972 -29.455  1.00  0.00     0.019 A 
BRANCH  18  23
HETATM   23  N   UNL     1      -3.037   8.573 -29.728  1.00  0.00    -0.291 NA
HETATM   24  C   UNL     1      -3.062   9.824 -30.488  1.00  0.00     0.116 C 
HETATM   25  C   UNL     1      -4.055   8.475 -28.679  1.00  0.00     0.116 C 
ENDBRANCH  18  23
ENDBRANCH  14  17
ENDBRANCH  12  13
ENDBRANCH   1  12
BRANCH   6  26
HETATM   26  C   UNL     1      -8.265   0.673 -33.522  1.00  0.00     0.235 C 
BRANCH  26  27
HETATM   27  C   UNL     1      -7.754  -0.762 -33.571  1.00  0.00     0.032 C 
BRANCH  27  28
HETATM   28  C   UNL     1      -6.957  -1.101 -34.831  1.00  0.00     0.040 C 
BRANCH  28  29
HETATM   29  C   UNL     1      -6.188  -2.382 -34.644  1.00  0.00    -0.058 A 
HETATM   30  C   UNL     1      -4.885  -2.355 -34.125  1.00  0.00     0.007 A 
HETATM   31  C   UNL     1      -4.155  -3.536 -33.992  1.00  0.00     0.001 A 
HETATM   32  C   UNL     1      -4.715  -4.752 -34.379  1.00  0.00     0.000 A 
HETATM   33  C   UNL     1      -6.007  -4.788 -34.898  1.00  0.00     0.001 A 
HETATM   34  C   UNL     1      -6.742  -3.609 -35.033  1.00  0.00     0.007 A 
ENDBRANCH  28  29
ENDBRANCH  27  28
ENDBRANCH  26  27
ENDBRANCH   6  26
TORSDOF 8
ENDMDL
MODEL 5
REMARK VINA RESULT:      -8.6      2.254      8.741
REMARK  8 active torsions:
REMARK  status: ('A' for Active; 'I' for Inactive)
REMARK    1  A    between atoms: N_2  and  C_3 
REMARK    2  A    between atoms: C_4  and  C_5 
REMARK       I    between atoms: C_5  and  N_6 
REMARK    3  A    between atoms: N_6  and  C_7 
REMARK    4  A    between atoms: C_7  and  C_8 
REMARK    5  A    between atoms: N_13  and  C_15 
REMARK    6  A    between atoms: C_15  and  C_16 
REMARK    7  A    between atoms: C_16  and  C_17 
REMARK    8  A    between atoms: C_17  and  C_18 
ROOT
HETATM    1  C   UNL     1      -6.244   5.435 -28.523  1.00  0.00     0.140 C 
HETATM    2  O   UNL     1      -5.687   4.276 -29.175  1.00  0.00    -0.373 OA
HETATM    3  C   UNL     1      -6.382   4.037 -30.414  1.00  0.00     0.064 C 
HETATM    4  C   UNL     1      -6.893   2.594 -30.348  1.00  0.00     0.066 C 
HETATM    5  C   UNL     1      -5.737   1.598 -30.291  1.00  0.00     0.237 C 
HETATM    6  N   UNL     1      -4.786   1.791 -31.456  1.00  0.00    -0.071 N 
HETATM    7  H   UNL     1      -3.968   1.212 -31.229  1.00  0.00     0.279 HD
HETATM    8  C   UNL     1      -4.253   3.215 -31.463  1.00  0.00     0.237 C 
HETATM    9  C   UNL     1      -5.403   4.199 -31.580  1.00  0.00     0.066 C 
HETATM   10  C   UNL     1      -7.517   5.062 -30.488  1.00  0.00     0.041 C 
HETATM   11  C   UNL     1      -7.662   5.532 -29.058  1.00  0.00     0.036 C 
ENDROOT
BRANCH   1  12
HETATM   12  C   UNL     1      -5.397   6.686 -28.826  1.00  0.00     0.155 C 
BRANCH  12  13
HETATM   13  N   UNL     1      -4.023   6.349 -29.155  1.00  0.00    -0.354 N 
HETATM   14  C   UNL     1      -3.349   6.908 -30.227  1.00  0.00     0.253 C 
HETATM   15  O   UNL     1      -3.833   7.755 -30.968  1.00  0.00    -0.268 OA
HETATM   16  H   UNL     1      -3.584   5.586 -28.653  1.00  0.00     0.162 HD
BRANCH  14  17
HETATM   17  C   UNL     1      -1.951   6.415 -30.391  1.00  0.00     0.053 A 
HETATM   18  C   UNL     1      -0.963   6.606 -29.396  1.00  0.00     0.025 A 
HETATM   19  C   UNL     1       0.327   6.107 -29.667  1.00  0.00     0.025 A 
HETATM   20  C   UNL     1       0.624   5.436 -30.858  1.00  0.00     0.002 A 
HETATM   21  C   UNL     1      -0.365   5.240 -31.813  1.00  0.00     0.001 A 
HETATM   22  C   UNL     1      -1.650   5.723 -31.580  1.00  0.00     0.019 A 
BRANCH  18  23
HETATM   23  N   UNL     1      -1.234   7.329 -28.205  1.00  0.00    -0.291 NA
HETATM   24  C   UNL     1      -0.776   8.714 -28.325  1.00  0.00     0.116 C 
HETATM   25  C   UNL     1      -0.815   6.651 -26.975  1.00  0.00     0.116 C 
ENDBRANCH  18  23
ENDBRANCH  14  17
ENDBRANCH  12  13
ENDBRANCH   1  12
BRANCH   6  26
HETATM   26  C   UNL     1      -5.344   1.263 -32.759  1.00  0.00     0.235 C 
BRANCH  26  27
HETATM   27  C   UNL     1      -5.621  -0.236 -32.755  1.00  0.00     0.032 C 
BRANCH  27  28
HETATM   28  C   UNL     1      -6.213  -0.767 -34.061  1.00  0.00     0.040 C 
BRANCH  28  29
HETATM   29  C   UNL     1      -5.824  -2.207 -34.272  1.00  0.00    -0.058 A 
HETATM   30  C   UNL     1      -6.771  -3.136 -34.725  1.00  0.00     0.007 A 
HETATM   31  C   UNL     1      -6.425  -4.479 -34.879  1.00  0.00     0.001 A 
HETATM   32  C   UNL     1      -5.133  -4.906 -34.578  1.00  0.00     0.000 A 
HETATM   33  C   UNL     1      -4.186  -3.990 -34.125  1.00  0.00     0.001 A 
HETATM   34  C   UNL     1      -4.528  -2.646 -33.970  1.00  0.00     0.007 A 
ENDBRANCH  28  29
ENDBRANCH  27  28
ENDBRANCH  26  27
ENDBRANCH   6  26
TORSDOF 8
ENDMDL
MODEL 6
REMARK VINA RESULT:      -8.5      1.816      8.500
REMARK  8 active torsions:
REMARK  status: ('A' for Active; 'I' for Inactive)
REMARK    1  A    between atoms: N_2  and  C_3 
REMARK    2  A    between atoms: C_4  and  C_5 
REMARK       I    between atoms: C_5  and  N_6 
REMARK    3  A    between atoms: N_6  and  C_7 
REMARK    4  A    between atoms: C_7  and  C_8 
REMARK    5  A    between atoms: N_13  and  C_15 
REMARK    6  A    between atoms: C_15  and  C_16 
REMARK    7  A    between atoms: C_16  and  C_17 
REMARK    8  A    between atoms: C_17  and  C_18 
ROOT
HETATM    1  C   UNL     1      -6.027   4.308 -29.341  1.00  0.00     0.140 C 
HETATM    2  O   UNL     1      -5.690   3.305 -30.319  1.00  0.00    -0.373 OA
HETATM    3  C   UNL     1      -6.850   2.997 -31.116  1.00  0.00     0.064 C 
HETATM    4  C   UNL     1      -7.056   1.482 -31.008  1.00  0.00     0.066 C 
HETATM    5  C   UNL     1      -5.884   0.717 -31.620  1.00  0.00     0.237 C 
HETATM    6  N   UNL     1      -5.643   1.137 -33.057  1.00  0.00    -0.071 N 
HETATM    7  H   UNL     1      -4.743   0.711 -33.309  1.00  0.00     0.279 HD
HETATM    8  C   UNL     1      -5.387   2.635 -33.127  1.00  0.00     0.237 C 
HETATM    9  C   UNL     1      -6.581   3.391 -32.571  1.00  0.00     0.066 C 
HETATM   10  C   UNL     1      -8.015   3.795 -30.525  1.00  0.00     0.041 C 
HETATM   11  C   UNL     1      -7.525   4.163 -29.143  1.00  0.00     0.036 C 
ENDROOT
BRANCH   1  12
HETATM   12  C   UNL     1      -5.615   5.708 -29.837  1.00  0.00     0.155 C 
BRANCH  12  13
HETATM   13  N   UNL     1      -4.183   5.810 -30.055  1.00  0.00    -0.354 N 
HETATM   14  C   UNL     1      -3.532   7.022 -30.211  1.00  0.00     0.253 C 
HETATM   15  O   UNL     1      -4.093   8.110 -30.145  1.00  0.00    -0.268 OA
HETATM   16  H   UNL     1      -3.662   4.957 -30.221  1.00  0.00     0.162 HD
BRANCH  14  17
HETATM   17  C   UNL     1      -2.062   6.899 -30.433  1.00  0.00     0.053 A 
HETATM   18  C   UNL     1      -1.523   6.377 -31.633  1.00  0.00     0.025 A 
HETATM   19  C   UNL     1      -0.118   6.298 -31.725  1.00  0.00     0.025 A 
HETATM   20  C   UNL     1       0.715   6.729 -30.687  1.00  0.00     0.002 A 
HETATM   21  C   UNL     1       0.166   7.257 -29.526  1.00  0.00     0.001 A 
HETATM   22  C   UNL     1      -1.217   7.346 -29.399  1.00  0.00     0.019 A 
BRANCH  18  23
HETATM   23  N   UNL     1      -2.354   5.890 -32.674  1.00  0.00    -0.291 NA
HETATM   24  C   UNL     1      -2.133   4.458 -32.884  1.00  0.00     0.116 C 
HETATM   25  C   UNL     1      -2.332   6.697 -33.897  1.00  0.00     0.116 C 
ENDBRANCH  18  23
ENDBRANCH  14  17
ENDBRANCH  12  13
ENDBRANCH   1  12
BRANCH   6  26
HETATM   26  C   UNL     1      -6.674   0.575 -34.010  1.00  0.00     0.235 C 
BRANCH  26  27
HETATM   27  C   UNL     1      -6.981  -0.902 -33.792  1.00  0.00     0.032 C 
BRANCH  27  28
HETATM   28  C   UNL     1      -6.600  -1.801 -34.969  1.00  0.00     0.040 C 
BRANCH  28  29
HETATM   29  C   UNL     1      -5.608  -2.849 -34.536  1.00  0.00    -0.058 A 
HETATM   30  C   UNL     1      -5.822  -4.198 -34.853  1.00  0.00     0.007 A 
HETATM   31  C   UNL     1      -4.928  -5.176 -34.415  1.00  0.00     0.001 A 
HETATM   32  C   UNL     1      -3.817  -4.816 -33.655  1.00  0.00     0.000 A 
HETATM   33  C   UNL     1      -3.598  -3.479 -33.333  1.00  0.00     0.001 A 
HETATM   34  C   UNL     1      -4.489  -2.498 -33.770  1.00  0.00     0.007 A 
ENDBRANCH  28  29
ENDBRANCH  27  28
ENDBRANCH  26  27
ENDBRANCH   6  26
TORSDOF 8
ENDMDL
MODEL 7
REMARK VINA RESULT:      -8.4      1.943      8.319
REMARK  8 active torsions:
REMARK  status: ('A' for Active; 'I' for Inactive)
REMARK    1  A    between atoms: N_2  and  C_3 
REMARK    2  A    between atoms: C_4  and  C_5 
REMARK       I    between atoms: C_5  and  N_6 
REMARK    3  A    between atoms: N_6  and  C_7 
REMARK    4  A    between atoms: C_7  and  C_8 
REMARK    5  A    between atoms: N_13  and  C_15 
REMARK    6  A    between atoms: C_15  and  C_16 
REMARK    7  A    between atoms: C_16  and  C_17 
REMARK    8  A    between atoms: C_17  and  C_18 
ROOT
HETATM    1  C   UNL     1      -6.230   3.919 -29.658  1.00  0.00     0.140 C 
HETATM    2  O   UNL     1      -5.273   2.941 -30.109  1.00  0.00    -0.373 OA
HETATM    3  C   UNL     1      -5.769   2.288 -31.293  1.00  0.00     0.064 C 
HETATM    4  C   UNL     1      -5.756   0.785 -30.991  1.00  0.00     0.066 C 
HETATM    5  C   UNL     1      -4.334   0.275 -30.769  1.00  0.00     0.237 C 
HETATM    6  N   UNL     1      -3.440   0.606 -31.949  1.00  0.00    -0.071 N 
HETATM    7  H   UNL     1      -2.488   0.390 -31.627  1.00  0.00     0.279 HD
HETATM    8  C   UNL     1      -3.428   2.108 -32.189  1.00  0.00     0.237 C 
HETATM    9  C   UNL     1      -4.838   2.599 -32.468  1.00  0.00     0.066 C 
HETATM   10  C   UNL     1      -7.180   2.829 -31.537  1.00  0.00     0.041 C 
HETATM   11  C   UNL     1      -7.561   3.432 -30.204  1.00  0.00     0.036 C 
ENDROOT
BRANCH   1  12
HETATM   12  C   UNL     1      -5.848   5.324 -30.161  1.00  0.00     0.155 C 
BRANCH  12  13
HETATM   13  N   UNL     1      -4.411   5.538 -30.144  1.00  0.00    -0.354 N 
HETATM   14  C   UNL     1      -3.694   5.905 -31.270  1.00  0.00     0.253 C 
HETATM   15  O   UNL     1      -4.204   6.114 -32.364  1.00  0.00    -0.268 OA
HETATM   16  H   UNL     1      -3.900   5.291 -29.305  1.00  0.00     0.162 HD
BRANCH  14  17
HETATM   17  C   UNL     1      -2.229   6.062 -31.033  1.00  0.00     0.053 A 
HETATM   18  C   UNL     1      -1.713   6.986 -30.094  1.00  0.00     0.025 A 
HETATM   19  C   UNL     1      -0.311   7.055 -29.965  1.00  0.00     0.025 A 
HETATM   20  C   UNL     1       0.540   6.238 -30.717  1.00  0.00     0.002 A 
HETATM   21  C   UNL     1       0.013   5.323 -31.619  1.00  0.00     0.001 A 
HETATM   22  C   UNL     1      -1.367   5.231 -31.775  1.00  0.00     0.019 A 
BRANCH  18  23
HETATM   23  N   UNL     1      -2.560   7.857 -29.361  1.00  0.00    -0.291 NA
HETATM   24  C   UNL     1      -2.485   9.219 -29.891  1.00  0.00     0.116 C 
HETATM   25  C   UNL     1      -2.417   7.759 -27.906  1.00  0.00     0.116 C 
ENDBRANCH  18  23
ENDBRANCH  14  17
ENDBRANCH  12  13
ENDBRANCH   1  12
BRANCH   6  26
HETATM   26  C   UNL     1      -3.705  -0.277 -33.148  1.00  0.00     0.235 C 
BRANCH  26  27
HETATM   27  C   UNL     1      -4.528  -1.521 -32.833  1.00  0.00     0.032 C 
BRANCH  27  28
HETATM   28  C   UNL     1      -5.471  -1.949 -33.959  1.00  0.00     0.040 C 
BRANCH  28  29
HETATM   29  C   UNL     1      -6.640  -1.003 -34.059  1.00  0.00    -0.058 A 
HETATM   30  C   UNL     1      -6.655  -0.000 -35.039  1.00  0.00     0.007 A 
HETATM   31  C   UNL     1      -7.715   0.904 -35.106  1.00  0.00     0.001 A 
HETATM   32  C   UNL     1      -8.765   0.818 -34.194  1.00  0.00     0.000 A 
HETATM   33  C   UNL     1      -8.757  -0.174 -33.216  1.00  0.00     0.001 A 
HETATM   34  C   UNL     1      -7.699  -1.081 -33.146  1.00  0.00     0.007 A 
ENDBRANCH  28  29
ENDBRANCH  27  28
ENDBRANCH  26  27
ENDBRANCH   6  26
TORSDOF 8
ENDMDL
MODEL 8
REMARK VINA RESULT:      -8.4      1.824      8.389
REMARK  8 active torsions:
REMARK  status: ('A' for Active; 'I' for Inactive)
REMARK    1  A    between atoms: N_2  and  C_3 
REMARK    2  A    between atoms: C_4  and  C_5 
REMARK       I    between atoms: C_5  and  N_6 
REMARK    3  A    between atoms: N_6  and  C_7 
REMARK    4  A    between atoms: C_7  and  C_8 
REMARK    5  A    between atoms: N_13  and  C_15 
REMARK    6  A    between atoms: C_15  and  C_16 
REMARK    7  A    between atoms: C_16  and  C_17 
REMARK    8  A    between atoms: C_17  and  C_18 
ROOT
HETATM    1  C   UNL     1      -6.002   3.751 -29.665  1.00  0.00     0.140 C 
HETATM    2  O   UNL     1      -5.056   2.788 -30.169  1.00  0.00    -0.373 OA
HETATM    3  C   UNL     1      -5.622   2.101 -31.301  1.00  0.00     0.064 C 
HETATM    4  C   UNL     1      -5.550   0.604 -30.976  1.00  0.00     0.066 C 
HETATM    5  C   UNL     1      -4.102   0.133 -30.852  1.00  0.00     0.237 C 
HETATM    6  N   UNL     1      -3.307   0.462 -32.100  1.00  0.00    -0.071 N 
HETATM    7  H   UNL     1      -2.329   0.275 -31.847  1.00  0.00     0.279 HD
HETATM    8  C   UNL     1      -3.351   1.959 -32.366  1.00  0.00     0.237 C 
HETATM    9  C   UNL     1      -4.788   2.411 -32.548  1.00  0.00     0.066 C 
HETATM   10  C   UNL     1      -7.060   2.603 -31.449  1.00  0.00     0.041 C 
HETATM   11  C   UNL     1      -7.356   3.223 -30.102  1.00  0.00     0.036 C 
ENDROOT
BRANCH   1  12
HETATM   12  C   UNL     1      -5.693   5.155 -30.218  1.00  0.00     0.155 C 
BRANCH  12  13
HETATM   13  N   UNL     1      -4.285   5.491 -30.100  1.00  0.00    -0.354 N 
HETATM   14  C   UNL     1      -3.815   6.791 -30.170  1.00  0.00     0.253 C 
HETATM   15  O   UNL     1      -4.539   7.771 -30.303  1.00  0.00    -0.268 OA
HETATM   16  H   UNL     1      -3.611   4.734 -30.086  1.00  0.00     0.162 HD
BRANCH  14  17
HETATM   17  C   UNL     1      -2.334   6.911 -30.033  1.00  0.00     0.053 A 
HETATM   18  C   UNL     1      -1.459   6.720 -31.127  1.00  0.00     0.025 A 
HETATM   19  C   UNL     1      -0.077   6.847 -30.875  1.00  0.00     0.025 A 
HETATM   20  C   UNL     1       0.415   7.165 -29.605  1.00  0.00     0.002 A 
HETATM   21  C   UNL     1      -0.463   7.370 -28.548  1.00  0.00     0.001 A 
HETATM   22  C   UNL     1      -1.833   7.248 -28.760  1.00  0.00     0.019 A 
BRANCH  18  23
HETATM   23  N   UNL     1      -1.938   6.347 -32.410  1.00  0.00    -0.291 NA
HETATM   24  C   UNL     1      -1.368   5.063 -32.822  1.00  0.00     0.116 C 
HETATM   25  C   UNL     1      -1.854   7.405 -33.420  1.00  0.00     0.116 C 
ENDBRANCH  18  23
ENDBRANCH  14  17
ENDBRANCH  12  13
ENDBRANCH   1  12
BRANCH   6  26
HETATM   26  C   UNL     1      -3.638  -0.449 -33.261  1.00  0.00     0.235 C 
BRANCH  26  27
HETATM   27  C   UNL     1      -4.566  -1.603 -32.900  1.00  0.00     0.032 C 
BRANCH  27  28
HETATM   28  C   UNL     1      -5.565  -1.971 -33.998  1.00  0.00     0.040 C 
BRANCH  28  29
HETATM   29  C   UNL     1      -6.688  -0.968 -34.049  1.00  0.00    -0.058 A 
HETATM   30  C   UNL     1      -7.761  -1.063 -33.151  1.00  0.00     0.007 A 
HETATM   31  C   UNL     1      -8.825  -0.162 -33.226  1.00  0.00     0.001 A 
HETATM   32  C   UNL     1      -8.828   0.836 -34.198  1.00  0.00     0.000 A 
HETATM   33  C   UNL     1      -7.767   0.935 -35.096  1.00  0.00     0.001 A 
HETATM   34  C   UNL     1      -6.702   0.037 -35.025  1.00  0.00     0.007 A 
ENDBRANCH  28  29
ENDBRANCH  27  28
ENDBRANCH  26  27
ENDBRANCH   6  26
TORSDOF 8
ENDMDL
MODEL 9
REMARK VINA RESULT:      -8.4      1.884      8.187
REMARK  8 active torsions:
REMARK  status: ('A' for Active; 'I' for Inactive)
REMARK    1  A    between atoms: N_2  and  C_3 
REMARK    2  A    between atoms: C_4  and  C_5 
REMARK       I    between atoms: C_5  and  N_6 
REMARK    3  A    between atoms: N_6  and  C_7 
REMARK    4  A    between atoms: C_7  and  C_8 
REMARK    5  A    between atoms: N_13  and  C_15 
REMARK    6  A    between atoms: C_15  and  C_16 
REMARK    7  A    between atoms: C_16  and  C_17 
REMARK    8  A    between atoms: C_17  and  C_18 
ROOT
HETATM    1  C   UNL     1      -5.806   4.970 -28.809  1.00  0.00     0.140 C 
HETATM    2  O   UNL     1      -5.546   3.769 -29.561  1.00  0.00    -0.373 OA
HETATM    3  C   UNL     1      -6.693   3.448 -30.372  1.00  0.00     0.064 C 
HETATM    4  C   UNL     1      -7.089   2.013 -30.006  1.00  0.00     0.066 C 
HETATM    5  C   UNL     1      -5.991   1.021 -30.383  1.00  0.00     0.237 C 
HETATM    6  N   UNL     1      -5.627   1.134 -31.851  1.00  0.00    -0.071 N 
HETATM    7  H   UNL     1      -4.775   0.570 -31.956  1.00  0.00     0.279 HD
HETATM    8  C   UNL     1      -5.186   2.554 -32.172  1.00  0.00     0.237 C 
HETATM    9  C   UNL     1      -6.304   3.529 -31.851  1.00  0.00     0.066 C 
HETATM   10  C   UNL     1      -7.780   4.468 -30.021  1.00  0.00     0.041 C 
HETATM   11  C   UNL     1      -7.318   5.033 -28.697  1.00  0.00     0.036 C 
ENDROOT
BRANCH   1  12
HETATM   12  C   UNL     1      -5.201   6.197 -29.519  1.00  0.00     0.155 C 
BRANCH  12  13
HETATM   13  N   UNL     1      -4.410   5.821 -30.679  1.00  0.00    -0.354 N 
HETATM   14  C   UNL     1      -3.993   6.736 -31.630  1.00  0.00     0.253 C 
HETATM   15  O   UNL     1      -4.220   7.938 -31.565  1.00  0.00    -0.268 OA
HETATM   16  H   UNL     1      -4.264   4.835 -30.859  1.00  0.00     0.162 HD
BRANCH  14  17
HETATM   17  C   UNL     1      -3.201   6.136 -32.744  1.00  0.00     0.053 A 
HETATM   18  C   UNL     1      -1.822   5.848 -32.616  1.00  0.00     0.025 A 
HETATM   19  C   UNL     1      -1.175   5.294 -33.740  1.00  0.00     0.025 A 
HETATM   20  C   UNL     1      -1.863   5.022 -34.927  1.00  0.00     0.002 A 
HETATM   21  C   UNL     1      -3.221   5.294 -35.025  1.00  0.00     0.001 A 
HETATM   22  C   UNL     1      -3.891   5.845 -33.937  1.00  0.00     0.019 A 
BRANCH  18  23
HETATM   23  N   UNL     1      -1.099   6.164 -31.437  1.00  0.00    -0.291 NA
HETATM   24  C   UNL     1       0.013   7.067 -31.738  1.00  0.00     0.116 C 
HETATM   25  C   UNL     1      -0.740   5.004 -30.617  1.00  0.00     0.116 C 
ENDBRANCH  18  23
ENDBRANCH  14  17
ENDBRANCH  12  13
ENDBRANCH   1  12
BRANCH   6  26
HETATM   26  C   UNL     1      -6.670   0.520 -32.759  1.00  0.00     0.235 C 
BRANCH  26  27
HETATM   27  C   UNL     1      -6.138   0.109 -34.127  1.00  0.00     0.032 C 
BRANCH  27  28
HETATM   28  C   UNL     1      -6.908  -1.041 -34.778  1.00  0.00     0.040 C 
BRANCH  28  29
HETATM   29  C   UNL     1      -6.163  -2.340 -34.611  1.00  0.00    -0.058 A 
HETATM   30  C   UNL     1      -4.837  -2.340 -34.154  1.00  0.00     0.007 A 
HETATM   31  C   UNL     1      -4.131  -3.538 -34.041  1.00  0.00     0.001 A 
HETATM   32  C   UNL     1      -4.739  -4.743 -34.387  1.00  0.00     0.000 A 
HETATM   33  C   UNL     1      -6.055  -4.752 -34.844  1.00  0.00     0.001 A 
HETATM   34  C   UNL     1      -6.766  -3.556 -34.959  1.00  0.00     0.007 A 
ENDBRANCH  28  29
ENDBRANCH  27  28
ENDBRANCH  26  27
ENDBRANCH   6  26
TORSDOF 8
ENDMDL
MODEL 10
REMARK VINA RESULT:      -8.2      1.684      2.909
REMARK  8 active torsions:
REMARK  status: ('A' for Active; 'I' for Inactive)
REMARK    1  A    between atoms: N_2  and  C_3 
REMARK    2  A    between atoms: C_4  and  C_5 
REMARK       I    between atoms: C_5  and  N_6 
REMARK    3  A    between atoms: N_6  and  C_7 
REMARK    4  A    between atoms: C_7  and  C_8 
REMARK    5  A    between atoms: N_13  and  C_15 
REMARK    6  A    between atoms: C_15  and  C_16 
REMARK    7  A    between atoms: C_16  and  C_17 
REMARK    8  A    between atoms: C_17  and  C_18 
ROOT
HETATM    1  C   UNL     1      -6.576   3.623 -34.134  1.00  0.00     0.140 C 
HETATM    2  O   UNL     1      -5.190   3.730 -33.754  1.00  0.00    -0.373 OA
HETATM    3  C   UNL     1      -5.045   4.735 -32.733  1.00  0.00     0.064 C 
HETATM    4  C   UNL     1      -4.008   5.734 -33.257  1.00  0.00     0.066 C 
HETATM    5  C   UNL     1      -2.640   5.076 -33.426  1.00  0.00     0.237 C 
HETATM    6  N   UNL     1      -2.176   4.430 -32.135  1.00  0.00    -0.071 N 
HETATM    7  H   UNL     1      -1.355   3.872 -32.398  1.00  0.00     0.279 HD
HETATM    8  C   UNL     1      -3.199   3.405 -31.668  1.00  0.00     0.237 C 
HETATM    9  C   UNL     1      -4.541   4.077 -31.445  1.00  0.00     0.066 C 
HETATM   10  C   UNL     1      -6.426   5.367 -32.537  1.00  0.00     0.041 C 
HETATM   11  C   UNL     1      -7.174   4.975 -33.791  1.00  0.00     0.036 C 
ENDROOT
BRANCH   1  12
HETATM   12  C   UNL     1      -7.254   2.455 -33.391  1.00  0.00     0.155 C 
BRANCH  12  13
HETATM   13  N   UNL     1      -6.602   1.185 -33.659  1.00  0.00    -0.354 N 
HETATM   14  C   UNL     1      -7.202  -0.035 -33.402  1.00  0.00     0.253 C 
HETATM   15  O   UNL     1      -8.339  -0.156 -32.962  1.00  0.00    -0.268 OA
HETATM   16  H   UNL     1      -5.626   1.196 -33.930  1.00  0.00     0.162 HD
BRANCH  14  17
HETATM   17  C   UNL     1      -6.353  -1.214 -33.743  1.00  0.00     0.053 A 
HETATM   18  C   UNL     1      -5.014  -1.330 -33.303  1.00  0.00     0.025 A 
HETATM   19  C   UNL     1      -4.305  -2.483 -33.697  1.00  0.00     0.025 A 
HETATM   20  C   UNL     1      -4.898  -3.483 -34.475  1.00  0.00     0.002 A 
HETATM   21  C   UNL     1      -6.221  -3.360 -34.879  1.00  0.00     0.001 A 
HETATM   22  C   UNL     1      -6.949  -2.233 -34.512  1.00  0.00     0.019 A 
BRANCH  18  23
HETATM   23  N   UNL     1      -4.382  -0.302 -32.556  1.00  0.00    -0.291 NA
HETATM   24  C   UNL     1      -2.985  -0.147 -32.968  1.00  0.00     0.116 C 
HETATM   25  C   UNL     1      -4.586  -0.391 -31.108  1.00  0.00     0.116 C 
ENDBRANCH  18  23
ENDBRANCH  14  17
ENDBRANCH  12  13
ENDBRANCH   1  12
BRANCH   6  26
HETATM   26  C   UNL     1      -1.706   5.441 -31.113  1.00  0.00     0.235 C 
BRANCH  26  27
HETATM   27  C   UNL     1      -0.583   6.346 -31.606  1.00  0.00     0.032 C 
BRANCH  27  28
HETATM   28  C   UNL     1       0.630   6.403 -30.676  1.00  0.00     0.040 C 
BRANCH  28  29
HETATM   29  C   UNL     1       0.222   6.865 -29.302  1.00  0.00    -0.058 A 
HETATM   30  C   UNL     1       0.368   6.012 -28.198  1.00  0.00     0.007 A 
HETATM   31  C   UNL     1      -0.050   6.421 -26.931  1.00  0.00     0.001 A 
HETATM   32  C   UNL     1      -0.619   7.680 -26.756  1.00  0.00     0.000 A 
HETATM   33  C   UNL     1      -0.770   8.533 -27.847  1.00  0.00     0.001 A 
HETATM   34  C   UNL     1      -0.353   8.128 -29.116  1.00  0.00     0.007 A 
ENDBRANCH  28  29
ENDBRANCH  27  28
ENDBRANCH  26  27
ENDBRANCH   6  26
TORSDOF 8
ENDMDL
