MODEL 1
REMARK VINA RESULT:      -9.4      0.000      0.000
REMARK  3 active torsions:
REMARK  status: ('A' for Active; 'I' for Inactive)
REMARK    1  A    between atoms: C_3  and  C_4 
REMARK       I    between atoms: C_4  and  N_5 
REMARK    2  A    between atoms: N_5  and  C_6 
REMARK    3  A    between atoms: C_13  and  C_14 
REMARK       I    between atoms: C_14  and  N_15 
ROOT
HETATM    1  C   UNL     1      -9.111   1.463 -34.073  1.00  0.00     0.035 A 
HETATM    2  C   UNL     1     -10.369   0.852 -33.982  1.00  0.00     0.046 A 
HETATM    3  C   UNL     1     -11.511   1.643 -33.731  1.00  0.00     0.030 A 
HETATM    4  C   UNL     1     -11.354   3.013 -33.563  1.00  0.00     0.063 A 
HETATM    5  N   UNL     1     -12.611   3.496 -33.334  1.00  0.00    -0.277 N 
HETATM    6  H   UNL     1     -12.877   4.460 -33.164  1.00  0.00     0.189 HD
HETATM    7  N   UNL     1     -13.578   2.564 -33.355  1.00  0.00    -0.168 NA
HETATM    8  C   UNL     1     -12.914   1.413 -33.603  1.00  0.00     0.156 A 
HETATM    9  C   UNL     1     -10.115   3.654 -33.640  1.00  0.00     0.034 A 
HETATM   10  C   UNL     1      -9.000   2.849 -33.907  1.00  0.00     0.032 A 
ENDROOT
BRANCH   1  11
HETATM   11  N   UNL     1      -7.927   0.760 -34.367  1.00  0.00    -0.325 N 
HETATM   12  C   UNL     1      -7.005   0.236 -33.479  1.00  0.00     0.252 C 
HETATM   13  O   UNL     1      -6.998   0.385 -32.261  1.00  0.00    -0.270 OA
HETATM   14  H   UNL     1      -7.687   0.640 -35.347  1.00  0.00     0.169 HD
BRANCH  12  15
HETATM   15  C   UNL     1      -5.970  -0.665 -34.161  1.00  0.00     0.229 C 
HETATM   16  C   UNL     1      -4.919  -1.102 -33.123  1.00  0.00     0.056 C 
HETATM   17  C   UNL     1      -3.678  -0.221 -33.139  1.00  0.00     0.018 C 
HETATM   18  C   UNL     1      -4.702  -2.500 -33.576  1.00  0.00    -0.018 A 
HETATM   19  C   UNL     1      -5.707  -2.855 -34.463  1.00  0.00     0.076 A 
HETATM   20  C   UNL     1      -3.740  -3.419 -33.194  1.00  0.00     0.010 A 
HETATM   21  O   UNL     1      -6.601  -1.850 -34.720  1.00  0.00    -0.335 OA
HETATM   22  C   UNL     1      -5.792  -4.122 -35.002  1.00  0.00     0.037 A 
HETATM   23  C   UNL     1      -4.821  -5.055 -34.636  1.00  0.00     0.003 A 
HETATM   24  C   UNL     1      -3.800  -4.706 -33.737  1.00  0.00     0.001 A 
ENDBRANCH  12  15
ENDBRANCH   1  11
BRANCH   8  25
HETATM   25  C   UNL     1     -13.626   0.133 -33.724  1.00  0.00     0.270 C 
HETATM   26  N   UNL     1     -14.844   0.228 -34.339  1.00  0.00    -0.365 N 
HETATM   27  H   UNL     1     -15.153   1.135 -34.666  1.00  0.00     0.159 HD
HETATM   28  H   UNL     1     -15.397  -0.603 -34.483  1.00  0.00     0.159 HD
HETATM   29  O   UNL     1     -13.197  -0.946 -33.331  1.00  0.00    -0.266 OA
ENDBRANCH   8  25
TORSDOF 3
ENDMDL
MODEL 2
REMARK VINA RESULT:      -9.0      5.361      8.386
REMARK  3 active torsions:
REMARK  status: ('A' for Active; 'I' for Inactive)
REMARK    1  A    between atoms: C_3  and  C_4 
REMARK       I    between atoms: C_4  and  N_5 
REMARK    2  A    between atoms: N_5  and  C_6 
REMARK    3  A    between atoms: C_13  and  C_14 
REMARK       I    between atoms: C_14  and  N_15 
ROOT
HETATM    1  C   UNL     1      -3.510   3.540 -32.699  1.00  0.00     0.035 A 
HETATM    2  C   UNL     1      -2.341   4.045 -32.114  1.00  0.00     0.046 A 
HETATM    3  C   UNL     1      -1.921   5.358 -32.418  1.00  0.00     0.030 A 
HETATM    4  C   UNL     1      -2.672   6.113 -33.310  1.00  0.00     0.063 A 
HETATM    5  N   UNL     1      -2.024   7.311 -33.405  1.00  0.00    -0.277 N 
HETATM    6  H   UNL     1      -2.289   8.110 -33.973  1.00  0.00     0.189 HD
HETATM    7  N   UNL     1      -0.924   7.413 -32.641  1.00  0.00    -0.168 NA
HETATM    8  C   UNL     1      -0.849   6.213 -32.021  1.00  0.00     0.156 A 
HETATM    9  C   UNL     1      -3.837   5.639 -33.918  1.00  0.00     0.034 A 
HETATM   10  C   UNL     1      -4.242   4.340 -33.586  1.00  0.00     0.032 A 
ENDROOT
BRANCH   1  11
HETATM   11  N   UNL     1      -4.029   2.263 -32.417  1.00  0.00    -0.325 N 
HETATM   12  C   UNL     1      -5.111   1.941 -31.618  1.00  0.00     0.252 C 
HETATM   13  O   UNL     1      -5.757   2.713 -30.916  1.00  0.00    -0.270 OA
HETATM   14  H   UNL     1      -3.544   1.464 -32.816  1.00  0.00     0.169 HD
BRANCH  12  15
HETATM   15  C   UNL     1      -5.522   0.469 -31.740  1.00  0.00     0.229 C 
HETATM   16  C   UNL     1      -6.689   0.352 -32.740  1.00  0.00     0.056 C 
HETATM   17  C   UNL     1      -8.048   0.334 -32.055  1.00  0.00     0.018 C 
HETATM   18  C   UNL     1      -6.306  -0.919 -33.406  1.00  0.00    -0.018 A 
HETATM   19  C   UNL     1      -4.997  -1.233 -33.075  1.00  0.00     0.076 A 
HETATM   20  C   UNL     1      -7.020  -1.710 -34.291  1.00  0.00     0.010 A 
HETATM   21  O   UNL     1      -4.412  -0.343 -32.214  1.00  0.00    -0.335 OA
HETATM   22  C   UNL     1      -4.354  -2.336 -33.600  1.00  0.00     0.037 A 
HETATM   23  C   UNL     1      -5.066  -3.149 -34.483  1.00  0.00     0.003 A 
HETATM   24  C   UNL     1      -6.392  -2.838 -34.827  1.00  0.00     0.001 A 
ENDBRANCH  12  15
ENDBRANCH   1  11
BRANCH   8  25
HETATM   25  C   UNL     1       0.226   5.916 -31.064  1.00  0.00     0.270 C 
HETATM   26  N   UNL     1       0.415   6.887 -30.119  1.00  0.00    -0.365 N 
HETATM   27  H   UNL     1      -0.183   7.704 -30.136  1.00  0.00     0.159 HD
HETATM   28  H   UNL     1       1.119   6.761 -29.408  1.00  0.00     0.159 HD
HETATM   29  O   UNL     1       0.909   4.898 -31.072  1.00  0.00    -0.266 OA
ENDBRANCH   8  25
TORSDOF 3
ENDMDL
MODEL 3
REMARK VINA RESULT:      -8.7      6.316      9.442
REMARK  3 active torsions:
REMARK  status: ('A' for Active; 'I' for Inactive)
REMARK    1  A    between atoms: C_3  and  C_4 
REMARK       I    between atoms: C_4  and  N_5 
REMARK    2  A    between atoms: N_5  and  C_6 
REMARK    3  A    between atoms: C_13  and  C_14 
REMARK       I    between atoms: C_14  and  N_15 
ROOT
HETATM    1  C   UNL     1      -3.582   2.849 -31.364  1.00  0.00     0.035 A 
HETATM    2  C   UNL     1      -3.494   1.500 -31.730  1.00  0.00     0.046 A 
HETATM    3  C   UNL     1      -4.675   0.741 -31.879  1.00  0.00     0.030 A 
HETATM    4  C   UNL     1      -5.900   1.352 -31.641  1.00  0.00     0.063 A 
HETATM    5  N   UNL     1      -6.836   0.381 -31.857  1.00  0.00    -0.277 N 
HETATM    6  H   UNL     1      -7.843   0.470 -31.773  1.00  0.00     0.189 HD
HETATM    7  N   UNL     1      -6.333  -0.806 -32.233  1.00  0.00    -0.168 NA
HETATM    8  C   UNL     1      -4.996  -0.599 -32.254  1.00  0.00     0.156 A 
HETATM    9  C   UNL     1      -6.023   2.692 -31.268  1.00  0.00     0.034 A 
HETATM   10  C   UNL     1      -4.838   3.428 -31.143  1.00  0.00     0.032 A 
ENDROOT
BRANCH   1  11
HETATM   11  N   UNL     1      -2.462   3.693 -31.238  1.00  0.00    -0.325 N 
HETATM   12  C   UNL     1      -1.863   4.464 -32.218  1.00  0.00     0.252 C 
HETATM   13  O   UNL     1      -2.138   4.469 -33.414  1.00  0.00    -0.270 OA
HETATM   14  H   UNL     1      -2.005   3.730 -30.332  1.00  0.00     0.169 HD
BRANCH  12  15
HETATM   15  C   UNL     1      -0.816   5.431 -31.654  1.00  0.00     0.229 C 
HETATM   16  C   UNL     1      -1.514   6.735 -31.221  1.00  0.00     0.056 C 
HETATM   17  C   UNL     1      -1.456   7.814 -32.292  1.00  0.00     0.018 C 
HETATM   18  C   UNL     1      -0.732   7.028 -29.993  1.00  0.00    -0.018 A 
HETATM   19  C   UNL     1       0.003   5.907 -29.640  1.00  0.00     0.076 A 
HETATM   20  C   UNL     1      -0.714   8.163 -29.200  1.00  0.00     0.010 A 
HETATM   21  O   UNL     1      -0.141   4.853 -30.503  1.00  0.00    -0.335 OA
HETATM   22  C   UNL     1       0.780   5.871 -28.500  1.00  0.00     0.037 A 
HETATM   23  C   UNL     1       0.819   7.013 -27.699  1.00  0.00     0.003 A 
HETATM   24  C   UNL     1       0.076   8.153 -28.047  1.00  0.00     0.001 A 
ENDBRANCH  12  15
ENDBRANCH   1  11
BRANCH   8  25
HETATM   25  C   UNL     1      -4.066  -1.669 -32.641  1.00  0.00     0.270 C 
HETATM   26  N   UNL     1      -3.140  -1.976 -31.682  1.00  0.00    -0.365 N 
HETATM   27  H   UNL     1      -3.167  -1.474 -30.803  1.00  0.00     0.159 HD
HETATM   28  H   UNL     1      -2.472  -2.712 -31.851  1.00  0.00     0.159 HD
HETATM   29  O   UNL     1      -4.090  -2.263 -33.713  1.00  0.00    -0.266 OA
ENDBRANCH   8  25
TORSDOF 3
ENDMDL
MODEL 4
REMARK VINA RESULT:      -8.6      5.551      8.012
REMARK  3 active torsions:
REMARK  status: ('A' for Active; 'I' for Inactive)
REMARK    1  A    between atoms: C_3  and  C_4 
REMARK       I    between atoms: C_4  and  N_5 
REMARK    2  A    between atoms: N_5  and  C_6 
REMARK    3  A    between atoms: C_13  and  C_14 
REMARK       I    between atoms: C_14  and  N_15 
ROOT
HETATM    1  C   UNL     1      -3.249   4.096 -32.581  1.00  0.00     0.035 A 
HETATM    2  C   UNL     1      -3.479   5.254 -31.826  1.00  0.00     0.046 A 
HETATM    3  C   UNL     1      -2.815   6.452 -32.168  1.00  0.00     0.030 A 
HETATM    4  C   UNL     1      -1.932   6.447 -33.240  1.00  0.00     0.063 A 
HETATM    5  N   UNL     1      -1.451   7.723 -33.319  1.00  0.00    -0.277 N 
HETATM    6  H   UNL     1      -0.778   8.086 -33.986  1.00  0.00     0.189 HD
HETATM    7  N   UNL     1      -1.956   8.566 -32.404  1.00  0.00    -0.168 NA
HETATM    8  C   UNL     1      -2.804   7.795 -31.686  1.00  0.00     0.156 A 
HETATM    9  C   UNL     1      -1.673   5.310 -34.009  1.00  0.00     0.034 A 
HETATM   10  C   UNL     1      -2.357   4.139 -33.661  1.00  0.00     0.032 A 
ENDROOT
BRANCH   1  11
HETATM   11  N   UNL     1      -3.902   2.872 -32.343  1.00  0.00    -0.325 N 
HETATM   12  C   UNL     1      -5.142   2.466 -32.800  1.00  0.00     0.252 C 
HETATM   13  O   UNL     1      -5.955   3.150 -33.415  1.00  0.00    -0.270 OA
HETATM   14  H   UNL     1      -3.433   2.204 -31.738  1.00  0.00     0.169 HD
BRANCH  12  15
HETATM   15  C   UNL     1      -5.416   0.981 -32.534  1.00  0.00     0.229 C 
HETATM   16  C   UNL     1      -6.740   0.583 -33.213  1.00  0.00     0.056 C 
HETATM   17  C   UNL     1      -7.926   0.634 -32.262  1.00  0.00     0.018 C 
HETATM   18  C   UNL     1      -6.368  -0.778 -33.679  1.00  0.00    -0.018 A 
HETATM   19  C   UNL     1      -4.995  -0.936 -33.582  1.00  0.00     0.076 A 
HETATM   20  C   UNL     1      -7.159  -1.782 -34.213  1.00  0.00     0.010 A 
HETATM   21  O   UNL     1      -4.345   0.152 -33.064  1.00  0.00    -0.335 OA
HETATM   22  C   UNL     1      -4.359  -2.087 -34.003  1.00  0.00     0.037 A 
HETATM   23  C   UNL     1      -5.146  -3.112 -34.531  1.00  0.00     0.003 A 
HETATM   24  C   UNL     1      -6.538  -2.961 -34.635  1.00  0.00     0.001 A 
ENDBRANCH  12  15
ENDBRANCH   1  11
BRANCH   8  25
HETATM   25  C   UNL     1      -3.587   8.355 -30.575  1.00  0.00     0.270 C 
HETATM   26  N   UNL     1      -4.326   9.455 -30.912  1.00  0.00    -0.365 N 
HETATM   27  H   UNL     1      -4.294   9.787 -31.868  1.00  0.00     0.159 HD
HETATM   28  H   UNL     1      -4.910   9.896 -30.219  1.00  0.00     0.159 HD
HETATM   29  O   UNL     1      -3.609   7.900 -29.436  1.00  0.00    -0.266 OA
ENDBRANCH   8  25
TORSDOF 3
ENDMDL
MODEL 5
REMARK VINA RESULT:      -8.6      4.304      7.798
REMARK  3 active torsions:
REMARK  status: ('A' for Active; 'I' for Inactive)
REMARK    1  A    between atoms: C_3  and  C_4 
REMARK       I    between atoms: C_4  and  N_5 
REMARK    2  A    between atoms: N_5  and  C_6 
REMARK    3  A    between atoms: C_13  and  C_14 
REMARK       I    between atoms: C_14  and  N_15 
ROOT
HETATM    1  C   UNL     1      -5.928  -0.255 -34.146  1.00  0.00     0.035 A 
HETATM    2  C   UNL     1      -5.087  -1.327 -33.821  1.00  0.00     0.046 A 
HETATM    3  C   UNL     1      -5.470  -2.641 -34.168  1.00  0.00     0.030 A 
HETATM    4  C   UNL     1      -6.685  -2.839 -34.811  1.00  0.00     0.063 A 
HETATM    5  N   UNL     1      -6.776  -4.187 -35.007  1.00  0.00    -0.277 N 
HETATM    6  H   UNL     1      -7.537  -4.694 -35.447  1.00  0.00     0.189 HD
HETATM    7  N   UNL     1      -5.719  -4.887 -34.564  1.00  0.00    -0.168 NA
HETATM    8  C   UNL     1      -4.900  -3.944 -34.046  1.00  0.00     0.156 A 
HETATM    9  C   UNL     1      -7.551  -1.794 -35.142  1.00  0.00     0.034 A 
HETATM   10  C   UNL     1      -7.141  -0.499 -34.803  1.00  0.00     0.032 A 
ENDROOT
BRANCH   1  11
HETATM   11  N   UNL     1      -5.607   1.090 -33.882  1.00  0.00    -0.325 N 
HETATM   12  C   UNL     1      -6.380   2.040 -33.238  1.00  0.00     0.252 C 
HETATM   13  O   UNL     1      -7.544   1.909 -32.872  1.00  0.00    -0.270 OA
HETATM   14  H   UNL     1      -4.714   1.432 -34.225  1.00  0.00     0.169 HD
BRANCH  12  15
HETATM   15  C   UNL     1      -5.604   3.324 -32.926  1.00  0.00     0.229 C 
HETATM   16  C   UNL     1      -4.266   2.955 -32.256  1.00  0.00     0.056 C 
HETATM   17  C   UNL     1      -4.334   3.016 -30.738  1.00  0.00     0.018 C 
HETATM   18  C   UNL     1      -3.393   3.978 -32.887  1.00  0.00    -0.018 A 
HETATM   19  C   UNL     1      -4.060   4.552 -33.958  1.00  0.00     0.076 A 
HETATM   20  C   UNL     1      -2.088   4.336 -32.594  1.00  0.00     0.010 A 
HETATM   21  O   UNL     1      -5.331   4.075 -34.141  1.00  0.00    -0.335 OA
HETATM   22  C   UNL     1      -3.466   5.497 -34.768  1.00  0.00     0.037 A 
HETATM   23  C   UNL     1      -2.155   5.877 -34.477  1.00  0.00     0.003 A 
HETATM   24  C   UNL     1      -1.469   5.300 -33.396  1.00  0.00     0.001 A 
ENDBRANCH  12  15
ENDBRANCH   1  11
BRANCH   8  25
HETATM   25  C   UNL     1      -3.599  -4.302 -33.462  1.00  0.00     0.270 C 
HETATM   26  N   UNL     1      -2.930  -5.280 -34.146  1.00  0.00    -0.365 N 
HETATM   27  H   UNL     1      -3.355  -5.665 -34.981  1.00  0.00     0.159 HD
HETATM   28  H   UNL     1      -2.020  -5.577 -33.830  1.00  0.00     0.159 HD
HETATM   29  O   UNL     1      -3.118  -3.788 -32.459  1.00  0.00    -0.266 OA
ENDBRANCH   8  25
TORSDOF 3
ENDMDL
MODEL 6
REMARK VINA RESULT:      -8.5      2.410      4.062
REMARK  3 active torsions:
REMARK  status: ('A' for Active; 'I' for Inactive)
REMARK    1  A    between atoms: C_3  and  C_4 
REMARK       I    between atoms: C_4  and  N_5 
REMARK    2  A    between atoms: N_5  and  C_6 
REMARK    3  A    between atoms: C_13  and  C_14 
REMARK       I    between atoms: C_14  and  N_15 
ROOT
HETATM    1  C   UNL     1     -10.437   1.533 -33.900  1.00  0.00     0.035 A 
HETATM    2  C   UNL     1     -10.111   2.831 -34.317  1.00  0.00     0.046 A 
HETATM    3  C   UNL     1     -11.140   3.721 -34.693  1.00  0.00     0.030 A 
HETATM    4  C   UNL     1     -12.456   3.278 -34.655  1.00  0.00     0.063 A 
HETATM    5  N   UNL     1     -13.207   4.341 -35.070  1.00  0.00    -0.277 N 
HETATM    6  H   UNL     1     -14.216   4.378 -35.171  1.00  0.00     0.189 HD
HETATM    7  N   UNL     1     -12.499   5.445 -35.360  1.00  0.00    -0.168 NA
HETATM    8  C   UNL     1     -11.219   5.078 -35.128  1.00  0.00     0.156 A 
HETATM    9  C   UNL     1     -12.817   1.990 -34.252  1.00  0.00     0.034 A 
HETATM   10  C   UNL     1     -11.779   1.132 -33.868  1.00  0.00     0.032 A 
ENDROOT
BRANCH   1  11
HETATM   11  N   UNL     1      -9.482   0.596 -33.463  1.00  0.00    -0.325 N 
HETATM   12  C   UNL     1      -8.393   0.102 -34.159  1.00  0.00     0.252 C 
HETATM   13  O   UNL     1      -8.122   0.313 -35.337  1.00  0.00    -0.270 OA
HETATM   14  H   UNL     1      -9.607   0.200 -32.536  1.00  0.00     0.169 HD
BRANCH  12  15
HETATM   15  C   UNL     1      -7.447  -0.719 -33.276  1.00  0.00     0.229 C 
HETATM   16  C   UNL     1      -6.324  -1.308 -34.151  1.00  0.00     0.056 C 
HETATM   17  C   UNL     1      -6.614  -2.733 -34.598  1.00  0.00     0.018 C 
HETATM   18  C   UNL     1      -5.186  -1.166 -33.206  1.00  0.00    -0.018 A 
HETATM   19  C   UNL     1      -5.558  -0.333 -32.163  1.00  0.00     0.076 A 
HETATM   20  C   UNL     1      -3.899  -1.670 -33.283  1.00  0.00     0.010 A 
HETATM   21  O   UNL     1      -6.852   0.110 -32.240  1.00  0.00    -0.335 OA
HETATM   22  C   UNL     1      -4.677   0.026 -31.164  1.00  0.00     0.037 A 
HETATM   23  C   UNL     1      -3.380  -0.485 -31.221  1.00  0.00     0.003 A 
HETATM   24  C   UNL     1      -2.992  -1.329 -32.275  1.00  0.00     0.001 A 
ENDBRANCH  12  15
ENDBRANCH   1  11
BRANCH   8  25
HETATM   25  C   UNL     1     -10.110   6.025 -35.312  1.00  0.00     0.270 C 
HETATM   26  N   UNL     1      -9.380   6.257 -34.179  1.00  0.00    -0.365 N 
HETATM   27  H   UNL     1      -9.636   5.770 -33.329  1.00  0.00     0.159 HD
HETATM   28  H   UNL     1      -8.587   6.879 -34.214  1.00  0.00     0.159 HD
HETATM   29  O   UNL     1      -9.827   6.573 -36.372  1.00  0.00    -0.266 OA
ENDBRANCH   8  25
TORSDOF 3
ENDMDL
MODEL 7
REMARK VINA RESULT:      -8.4      2.256      3.255
REMARK  3 active torsions:
REMARK  status: ('A' for Active; 'I' for Inactive)
REMARK    1  A    between atoms: C_3  and  C_4 
REMARK       I    between atoms: C_4  and  N_5 
REMARK    2  A    between atoms: N_5  and  C_6 
REMARK    3  A    between atoms: C_13  and  C_14 
REMARK       I    between atoms: C_14  and  N_15 
ROOT
HETATM    1  C   UNL     1     -11.392   1.667 -33.923  1.00  0.00     0.035 A 
HETATM    2  C   UNL     1     -11.784   2.576 -32.932  1.00  0.00     0.046 A 
HETATM    3  C   UNL     1     -13.158   2.797 -32.694  1.00  0.00     0.030 A 
HETATM    4  C   UNL     1     -14.090   2.115 -33.466  1.00  0.00     0.063 A 
HETATM    5  N   UNL     1     -15.310   2.533 -33.014  1.00  0.00    -0.277 N 
HETATM    6  H   UNL     1     -16.222   2.245 -33.352  1.00  0.00     0.189 HD
HETATM    7  N   UNL     1     -15.257   3.415 -32.003  1.00  0.00    -0.168 NA
HETATM    8  C   UNL     1     -13.932   3.586 -31.791  1.00  0.00     0.156 A 
HETATM    9  C   UNL     1     -13.735   1.208 -34.467  1.00  0.00     0.034 A 
HETATM   10  C   UNL     1     -12.366   0.994 -34.671  1.00  0.00     0.032 A 
ENDROOT
BRANCH   1  11
HETATM   11  N   UNL     1     -10.048   1.349 -34.196  1.00  0.00    -0.325 N 
HETATM   12  C   UNL     1      -9.178   0.598 -33.427  1.00  0.00     0.252 C 
HETATM   13  O   UNL     1      -9.391   0.156 -32.302  1.00  0.00    -0.270 OA
HETATM   14  H   UNL     1      -9.640   1.736 -35.042  1.00  0.00     0.169 HD
BRANCH  12  15
HETATM   15  C   UNL     1      -7.872   0.269 -34.159  1.00  0.00     0.229 C 
HETATM   16  C   UNL     1      -6.686   0.484 -33.198  1.00  0.00     0.056 C 
HETATM   17  C   UNL     1      -6.046   1.855 -33.355  1.00  0.00     0.018 C 
HETATM   18  C   UNL     1      -5.833  -0.659 -33.612  1.00  0.00    -0.018 A 
HETATM   19  C   UNL     1      -6.578  -1.527 -34.394  1.00  0.00     0.076 A 
HETATM   20  C   UNL     1      -4.523  -0.957 -33.278  1.00  0.00     0.010 A 
HETATM   21  O   UNL     1      -7.865  -1.112 -34.614  1.00  0.00    -0.335 OA
HETATM   22  C   UNL     1      -6.056  -2.711 -34.874  1.00  0.00     0.037 A 
HETATM   23  C   UNL     1      -4.732  -3.018 -34.555  1.00  0.00     0.003 A 
HETATM   24  C   UNL     1      -3.969  -2.146 -33.762  1.00  0.00     0.001 A 
ENDBRANCH  12  15
ENDBRANCH   1  11
BRANCH   8  25
HETATM   25  C   UNL     1     -13.439   4.480 -30.733  1.00  0.00     0.270 C 
HETATM   26  N   UNL     1     -12.658   3.859 -29.797  1.00  0.00    -0.365 N 
HETATM   27  H   UNL     1     -12.471   2.869 -29.900  1.00  0.00     0.159 HD
HETATM   28  H   UNL     1     -12.259   4.397 -29.044  1.00  0.00     0.159 HD
HETATM   29  O   UNL     1     -13.675   5.681 -30.666  1.00  0.00    -0.266 OA
ENDBRANCH   8  25
TORSDOF 3
ENDMDL
MODEL 8
REMARK VINA RESULT:      -8.3      2.806      8.782
REMARK  3 active torsions:
REMARK  status: ('A' for Active; 'I' for Inactive)
REMARK    1  A    between atoms: C_3  and  C_4 
REMARK       I    between atoms: C_4  and  N_5 
REMARK    2  A    between atoms: N_5  and  C_6 
REMARK    3  A    between atoms: C_13  and  C_14 
REMARK       I    between atoms: C_14  and  N_15 
ROOT
HETATM    1  C   UNL     1      -7.497  -0.095 -33.914  1.00  0.00     0.035 A 
HETATM    2  C   UNL     1      -6.484   0.020 -32.952  1.00  0.00     0.046 A 
HETATM    3  C   UNL     1      -5.413  -0.900 -32.956  1.00  0.00     0.030 A 
HETATM    4  C   UNL     1      -5.400  -1.911 -33.908  1.00  0.00     0.063 A 
HETATM    5  N   UNL     1      -4.265  -2.629 -33.658  1.00  0.00    -0.277 N 
HETATM    6  H   UNL     1      -3.934  -3.447 -34.158  1.00  0.00     0.189 HD
HETATM    7  N   UNL     1      -3.526  -2.166 -32.638  1.00  0.00    -0.168 NA
HETATM    8  C   UNL     1      -4.221  -1.094 -32.194  1.00  0.00     0.156 A 
HETATM    9  C   UNL     1      -6.397  -2.060 -34.875  1.00  0.00     0.034 A 
HETATM   10  C   UNL     1      -7.439  -1.125 -34.862  1.00  0.00     0.032 A 
ENDROOT
BRANCH   1  11
HETATM   11  N   UNL     1      -8.575   0.803 -34.015  1.00  0.00    -0.325 N 
HETATM   12  C   UNL     1      -9.821   0.709 -33.422  1.00  0.00     0.252 C 
HETATM   13  O   UNL     1     -10.254  -0.243 -32.778  1.00  0.00    -0.270 OA
HETATM   14  H   UNL     1      -8.454   1.612 -34.618  1.00  0.00     0.169 HD
BRANCH  12  15
HETATM   15  C   UNL     1     -10.648   1.991 -33.569  1.00  0.00     0.229 C 
HETATM   16  C   UNL     1     -12.133   1.616 -33.747  1.00  0.00     0.056 C 
HETATM   17  C   UNL     1     -12.554   1.567 -35.208  1.00  0.00     0.018 C 
HETATM   18  C   UNL     1     -12.750   2.709 -32.952  1.00  0.00    -0.018 A 
HETATM   19  C   UNL     1     -11.771   3.337 -32.198  1.00  0.00     0.076 A 
HETATM   20  C   UNL     1     -14.078   3.086 -32.840  1.00  0.00     0.010 A 
HETATM   21  O   UNL     1     -10.512   2.835 -32.394  1.00  0.00    -0.335 OA
HETATM   22  C   UNL     1     -12.068   4.356 -31.317  1.00  0.00     0.037 A 
HETATM   23  C   UNL     1     -13.401   4.755 -31.204  1.00  0.00     0.003 A 
HETATM   24  C   UNL     1     -14.401   4.123 -31.961  1.00  0.00     0.001 A 
ENDBRANCH  12  15
ENDBRANCH   1  11
BRANCH   8  25
HETATM   25  C   UNL     1      -3.731  -0.278 -31.074  1.00  0.00     0.270 C 
HETATM   26  N   UNL     1      -2.369  -0.260 -30.950  1.00  0.00    -0.365 N 
HETATM   27  H   UNL     1      -1.814  -0.779 -31.620  1.00  0.00     0.159 HD
HETATM   28  H   UNL     1      -1.941   0.289 -30.221  1.00  0.00     0.159 HD
HETATM   29  O   UNL     1      -4.446   0.352 -30.303  1.00  0.00    -0.266 OA
ENDBRANCH   8  25
TORSDOF 3
ENDMDL
MODEL 9
REMARK VINA RESULT:      -8.1      6.175      8.830
REMARK  3 active torsions:
REMARK  status: ('A' for Active; 'I' for Inactive)
REMARK    1  A    between atoms: C_3  and  C_4 
REMARK       I    between atoms: C_4  and  N_5 
REMARK    2  A    between atoms: N_5  and  C_6 
REMARK    3  A    between atoms: C_13  and  C_14 
REMARK       I    between atoms: C_14  and  N_15 
ROOT
HETATM    1  C   UNL     1      -3.698   2.638 -31.371  1.00  0.00     0.035 A 
HETATM    2  C   UNL     1      -5.016   3.112 -31.325  1.00  0.00     0.046 A 
HETATM    3  C   UNL     1      -6.088   2.194 -31.354  1.00  0.00     0.030 A 
HETATM    4  C   UNL     1      -5.807   0.837 -31.444  1.00  0.00     0.063 A 
HETATM    5  N   UNL     1      -7.023   0.215 -31.457  1.00  0.00    -0.277 N 
HETATM    6  H   UNL     1      -7.203  -0.781 -31.518  1.00  0.00     0.189 HD
HETATM    7  N   UNL     1      -8.074   1.046 -31.364  1.00  0.00    -0.168 NA
HETATM    8  C   UNL     1      -7.512   2.274 -31.297  1.00  0.00     0.156 A 
HETATM    9  C   UNL     1      -4.507   0.330 -31.500  1.00  0.00     0.034 A 
HETATM   10  C   UNL     1      -3.460   1.260 -31.452  1.00  0.00     0.032 A 
ENDROOT
BRANCH   1  11
HETATM   11  N   UNL     1      -2.569   3.475 -31.300  1.00  0.00    -0.325 N 
HETATM   12  C   UNL     1      -2.051   4.291 -32.289  1.00  0.00     0.252 C 
HETATM   13  O   UNL     1      -2.423   4.351 -33.457  1.00  0.00    -0.270 OA
HETATM   14  H   UNL     1      -2.039   3.471 -30.433  1.00  0.00     0.169 HD
BRANCH  12  15
HETATM   15  C   UNL     1      -0.958   5.232 -31.770  1.00  0.00     0.229 C 
HETATM   16  C   UNL     1      -1.598   6.576 -31.369  1.00  0.00     0.056 C 
HETATM   17  C   UNL     1      -1.513   7.618 -32.473  1.00  0.00     0.018 C 
HETATM   18  C   UNL     1      -0.787   6.874 -30.160  1.00  0.00    -0.018 A 
HETATM   19  C   UNL     1      -0.092   5.736 -29.782  1.00  0.00     0.076 A 
HETATM   20  C   UNL     1      -0.712   8.032 -29.404  1.00  0.00     0.010 A 
HETATM   21  O   UNL     1      -0.290   4.663 -30.610  1.00  0.00    -0.335 OA
HETATM   22  C   UNL     1       0.700   5.704 -28.653  1.00  0.00     0.037 A 
HETATM   23  C   UNL     1       0.796   6.868 -27.888  1.00  0.00     0.003 A 
HETATM   24  C   UNL     1       0.094   8.026 -28.261  1.00  0.00     0.001 A 
ENDBRANCH  12  15
ENDBRANCH   1  11
BRANCH   8  25
HETATM   25  C   UNL     1      -8.337   3.484 -31.167  1.00  0.00     0.270 C 
HETATM   26  N   UNL     1      -8.379   4.254 -32.296  1.00  0.00    -0.365 N 
HETATM   27  H   UNL     1      -7.869   3.944 -33.115  1.00  0.00     0.159 HD
HETATM   28  H   UNL     1      -8.936   5.094 -32.307  1.00  0.00     0.159 HD
HETATM   29  O   UNL     1      -8.956   3.804 -30.158  1.00  0.00    -0.266 OA
ENDBRANCH   8  25
TORSDOF 3
ENDMDL
MODEL 10
REMARK VINA RESULT:      -8.1      4.357      8.417
REMARK  3 active torsions:
REMARK  status: ('A' for Active; 'I' for Inactive)
REMARK    1  A    between atoms: C_3  and  C_4 
REMARK       I    between atoms: C_4  and  N_5 
REMARK    2  A    between atoms: N_5  and  C_6 
REMARK    3  A    between atoms: C_13  and  C_14 
REMARK       I    between atoms: C_14  and  N_15 
ROOT
HETATM    1  C   UNL     1      -5.980   2.788 -32.643  1.00  0.00     0.035 A 
HETATM    2  C   UNL     1      -5.062   3.484 -33.441  1.00  0.00     0.046 A 
HETATM    3  C   UNL     1      -3.869   3.973 -32.865  1.00  0.00     0.030 A 
HETATM    4  C   UNL     1      -3.644   3.763 -31.510  1.00  0.00     0.063 A 
HETATM    5  N   UNL     1      -2.435   4.343 -31.251  1.00  0.00    -0.277 N 
HETATM    6  H   UNL     1      -1.953   4.387 -30.359  1.00  0.00     0.189 HD
HETATM    7  N   UNL     1      -1.842   4.898 -32.321  1.00  0.00    -0.168 NA
HETATM    8  C   UNL     1      -2.716   4.674 -33.328  1.00  0.00     0.156 A 
HETATM    9  C   UNL     1      -4.540   3.081 -30.685  1.00  0.00     0.034 A 
HETATM   10  C   UNL     1      -5.707   2.591 -31.283  1.00  0.00     0.032 A 
ENDROOT
BRANCH   1  11
HETATM   11  N   UNL     1      -7.170   2.225 -33.142  1.00  0.00    -0.325 N 
HETATM   12  C   UNL     1      -8.400   2.838 -33.303  1.00  0.00     0.252 C 
HETATM   13  O   UNL     1      -8.707   3.968 -32.935  1.00  0.00    -0.270 OA
HETATM   14  H   UNL     1      -7.152   1.240 -33.391  1.00  0.00     0.169 HD
BRANCH  12  15
HETATM   15  C   UNL     1      -9.392   1.979 -34.094  1.00  0.00     0.229 C 
HETATM   16  C   UNL     1      -9.948   0.875 -33.174  1.00  0.00     0.056 C 
HETATM   17  C   UNL     1      -9.199  -0.441 -33.318  1.00  0.00     0.018 C 
HETATM   18  C   UNL     1     -11.354   0.852 -33.653  1.00  0.00    -0.018 A 
HETATM   19  C   UNL     1     -11.592   1.975 -34.429  1.00  0.00     0.076 A 
HETATM   20  C   UNL     1     -12.373  -0.045 -33.378  1.00  0.00     0.010 A 
HETATM   21  O   UNL     1     -10.498   2.784 -34.587  1.00  0.00    -0.335 OA
HETATM   22  C   UNL     1     -12.836   2.247 -34.961  1.00  0.00     0.037 A 
HETATM   23  C   UNL     1     -13.869   1.344 -34.703  1.00  0.00     0.003 A 
HETATM   24  C   UNL     1     -13.639   0.204 -33.916  1.00  0.00     0.001 A 
ENDBRANCH  12  15
ENDBRANCH   1  11
BRANCH   8  25
HETATM   25  C   UNL     1      -2.428   5.119 -34.699  1.00  0.00     0.270 C 
HETATM   26  N   UNL     1      -3.531   5.524 -35.398  1.00  0.00    -0.365 N 
HETATM   27  H   UNL     1      -4.433   5.502 -34.936  1.00  0.00     0.159 HD
HETATM   28  H   UNL     1      -3.428   5.864 -36.341  1.00  0.00     0.159 HD
HETATM   29  O   UNL     1      -1.311   5.147 -35.205  1.00  0.00    -0.266 OA
ENDBRANCH   8  25
TORSDOF 3
ENDMDL
