MODEL 1
REMARK VINA RESULT:      -8.7      0.000      0.000
REMARK  2 active torsions:
REMARK  status: ('A' for Active; 'I' for Inactive)
REMARK    1  A    between atoms: N_3  and  C_4 
REMARK    2  A    between atoms: C_12  and  C_13 
REMARK       I    between atoms: C_13  and  N_14 
ROOT
HETATM    1  C   UNL     1      -7.136   3.270 -31.664  1.00  0.00     0.262 C 
HETATM    2  N   UNL     1      -7.730   2.028 -31.963  1.00  0.00    -0.311 N 
HETATM    3  C   UNL     1      -7.162   1.004 -32.771  1.00  0.00     0.064 A 
HETATM    4  C   UNL     1      -7.938   0.143 -33.572  1.00  0.00     0.061 A 
HETATM    5  C   UNL     1      -7.281  -0.837 -34.344  1.00  0.00     0.032 A 
HETATM    6  C   UNL     1      -5.896  -0.990 -34.311  1.00  0.00     0.002 A 
HETATM    7  C   UNL     1      -5.136  -0.170 -33.494  1.00  0.00     0.002 A 
HETATM    8  C   UNL     1      -5.764   0.812 -32.728  1.00  0.00     0.032 A 
HETATM    9  N   UNL     1      -9.338   0.156 -33.739  1.00  0.00    -0.325 N 
HETATM   10  C   UNL     1     -10.364   0.840 -33.177  1.00  0.00     0.227 C 
HETATM   11  O   UNL     1     -11.501   0.570 -33.582  1.00  0.00    -0.273 OA
HETATM   12  C   UNL     1     -10.184   1.922 -32.147  1.00  0.00     0.092 C 
HETATM   13  C   UNL     1     -10.235   3.296 -32.810  1.00  0.00     0.021 C 
HETATM   14  C   UNL     1      -8.968   1.686 -31.275  1.00  0.00     0.146 C 
HETATM   15  O   UNL     1      -7.458   3.905 -30.659  1.00  0.00    -0.267 OA
HETATM   16  H   UNL     1      -9.710  -0.515 -34.403  1.00  0.00     0.169 HD
ENDROOT
BRANCH   1  17
HETATM   17  C   UNL     1      -6.206   3.872 -32.625  1.00  0.00     0.075 C 
HETATM   18  C   UNL     1      -4.865   4.177 -32.391  1.00  0.00     0.050 C 
HETATM   19  C   UNL     1      -4.042   3.841 -31.196  1.00  0.00     0.071 C 
HETATM   20  N   UNL     1      -4.397   4.826 -33.529  1.00  0.00    -0.238 N 
HETATM   21  N   UNL     1      -5.329   4.799 -34.518  1.00  0.00    -0.179 NA
HETATM   22  C   UNL     1      -6.427   4.323 -33.939  1.00  0.00     0.158 C 
BRANCH  20  23
HETATM   23  C   UNL     1      -3.155   5.479 -33.784  1.00  0.00     0.061 A 
HETATM   24  C   UNL     1      -2.906   6.716 -33.177  1.00  0.00     0.051 A 
HETATM   25  C   UNL     1      -1.699   7.346 -33.426  1.00  0.00     0.118 A 
HETATM   26  N   UNL     1      -0.732   6.826 -34.210  1.00  0.00    -0.273 NA
HETATM   27  C   UNL     1      -0.980   5.618 -34.758  1.00  0.00     0.118 A 
HETATM   28  C   UNL     1      -2.160   4.912 -34.578  1.00  0.00     0.051 A 
ENDBRANCH  20  23
ENDBRANCH   1  17
TORSDOF 2
ENDMDL
MODEL 2
REMARK VINA RESULT:      -8.4     17.242     19.658
REMARK  2 active torsions:
REMARK  status: ('A' for Active; 'I' for Inactive)
REMARK    1  A    between atoms: N_3  and  C_4 
REMARK    2  A    between atoms: C_12  and  C_13 
REMARK       I    between atoms: C_13  and  N_14 
ROOT
HETATM    1  C   UNL     1      -3.821 -12.821 -38.779  1.00  0.00     0.262 C 
HETATM    2  N   UNL     1      -2.641 -13.410 -39.275  1.00  0.00    -0.311 N 
HETATM    3  C   UNL     1      -2.554 -14.298 -40.383  1.00  0.00     0.064 A 
HETATM    4  C   UNL     1      -1.603 -15.334 -40.458  1.00  0.00     0.061 A 
HETATM    5  C   UNL     1      -1.600 -16.166 -41.597  1.00  0.00     0.032 A 
HETATM    6  C   UNL     1      -2.490 -15.971 -42.651  1.00  0.00     0.002 A 
HETATM    7  C   UNL     1      -3.399 -14.927 -42.595  1.00  0.00     0.002 A 
HETATM    8  C   UNL     1      -3.425 -14.097 -41.475  1.00  0.00     0.032 A 
HETATM    9  N   UNL     1      -0.639 -15.686 -39.492  1.00  0.00    -0.325 N 
HETATM   10  C   UNL     1      -0.226 -15.161 -38.314  1.00  0.00     0.227 C 
HETATM   11  O   UNL     1       0.683 -15.758 -37.725  1.00  0.00    -0.273 OA
HETATM   12  C   UNL     1      -0.843 -13.944 -37.679  1.00  0.00     0.092 C 
HETATM   13  C   UNL     1      -1.855 -14.360 -36.614  1.00  0.00     0.021 C 
HETATM   14  C   UNL     1      -1.374 -12.968 -38.708  1.00  0.00     0.146 C 
HETATM   15  O   UNL     1      -3.788 -11.776 -38.129  1.00  0.00    -0.267 OA
HETATM   16  H   UNL     1      -0.074 -16.502 -39.708  1.00  0.00     0.169 HD
ENDROOT
BRANCH   1  17
HETATM   17  C   UNL     1      -5.098 -13.526 -38.936  1.00  0.00     0.075 C 
HETATM   18  C   UNL     1      -6.191 -13.090 -39.684  1.00  0.00     0.050 C 
HETATM   19  C   UNL     1      -6.271 -11.913 -40.593  1.00  0.00     0.071 C 
HETATM   20  N   UNL     1      -7.216 -14.008 -39.469  1.00  0.00    -0.238 N 
HETATM   21  N   UNL     1      -6.767 -15.074 -38.755  1.00  0.00    -0.179 NA
HETATM   22  C   UNL     1      -5.544 -14.730 -38.362  1.00  0.00     0.158 C 
BRANCH  20  23
HETATM   23  C   UNL     1      -8.585 -13.983 -39.864  1.00  0.00     0.061 A 
HETATM   24  C   UNL     1      -9.070 -15.009 -40.685  1.00  0.00     0.051 A 
HETATM   25  C   UNL     1     -10.400 -14.981 -41.066  1.00  0.00     0.118 A 
HETATM   26  N   UNL     1     -11.270 -14.027 -40.675  1.00  0.00    -0.273 NA
HETATM   27  C   UNL     1     -10.789 -13.067 -39.858  1.00  0.00     0.118 A 
HETATM   28  C   UNL     1      -9.472 -13.000 -39.428  1.00  0.00     0.051 A 
ENDBRANCH  20  23
ENDBRANCH   1  17
TORSDOF 2
ENDMDL
MODEL 3
REMARK VINA RESULT:      -8.3      1.709      2.407
REMARK  2 active torsions:
REMARK  status: ('A' for Active; 'I' for Inactive)
REMARK    1  A    between atoms: N_3  and  C_4 
REMARK    2  A    between atoms: C_12  and  C_13 
REMARK       I    between atoms: C_13  and  N_14 
ROOT
HETATM    1  C   UNL     1      -6.872   2.603 -31.172  1.00  0.00     0.262 C 
HETATM    2  N   UNL     1      -6.726   1.340 -31.780  1.00  0.00    -0.311 N 
HETATM    3  C   UNL     1      -5.499   0.652 -31.989  1.00  0.00     0.064 A 
HETATM    4  C   UNL     1      -5.274  -0.191 -33.094  1.00  0.00     0.061 A 
HETATM    5  C   UNL     1      -4.020  -0.824 -33.217  1.00  0.00     0.032 A 
HETATM    6  C   UNL     1      -3.017  -0.659 -32.263  1.00  0.00     0.002 A 
HETATM    7  C   UNL     1      -3.252   0.139 -31.156  1.00  0.00     0.002 A 
HETATM    8  C   UNL     1      -4.482   0.782 -31.018  1.00  0.00     0.032 A 
HETATM    9  N   UNL     1      -6.159  -0.469 -34.156  1.00  0.00    -0.325 N 
HETATM   10  C   UNL     1      -7.449  -0.163 -34.433  1.00  0.00     0.227 C 
HETATM   11  O   UNL     1      -7.911  -0.603 -35.493  1.00  0.00    -0.273 OA
HETATM   12  C   UNL     1      -8.308   0.710 -33.559  1.00  0.00     0.092 C 
HETATM   13  C   UNL     1      -8.333   2.137 -34.099  1.00  0.00     0.021 C 
HETATM   14  C   UNL     1      -7.938   0.596 -32.095  1.00  0.00     0.146 C 
HETATM   15  O   UNL     1      -7.935   2.939 -30.649  1.00  0.00    -0.267 OA
HETATM   16  H   UNL     1      -5.794  -1.065 -34.892  1.00  0.00     0.169 HD
ENDROOT
BRANCH   1  17
HETATM   17  C   UNL     1      -5.782   3.578 -31.269  1.00  0.00     0.075 C 
HETATM   18  C   UNL     1      -5.194   4.041 -32.447  1.00  0.00     0.050 C 
HETATM   19  C   UNL     1      -5.618   3.776 -33.849  1.00  0.00     0.071 C 
HETATM   20  N   UNL     1      -4.139   4.867 -32.070  1.00  0.00    -0.238 N 
HETATM   21  N   UNL     1      -4.138   5.067 -30.726  1.00  0.00    -0.179 NA
HETATM   22  C   UNL     1      -5.050   4.223 -30.255  1.00  0.00     0.158 C 
BRANCH  20  23
HETATM   23  C   UNL     1      -3.119   5.487 -32.851  1.00  0.00     0.061 A 
HETATM   24  C   UNL     1      -2.892   6.861 -32.695  1.00  0.00     0.051 A 
HETATM   25  C   UNL     1      -1.901   7.458 -33.454  1.00  0.00     0.118 A 
HETATM   26  N   UNL     1      -1.121   6.788 -34.328  1.00  0.00    -0.273 NA
HETATM   27  C   UNL     1      -1.336   5.461 -34.437  1.00  0.00     0.118 A 
HETATM   28  C   UNL     1      -2.309   4.771 -33.730  1.00  0.00     0.051 A 
ENDBRANCH  20  23
ENDBRANCH   1  17
TORSDOF 2
ENDMDL
MODEL 4
REMARK VINA RESULT:      -8.3      3.311      6.943
REMARK  2 active torsions:
REMARK  status: ('A' for Active; 'I' for Inactive)
REMARK    1  A    between atoms: N_3  and  C_4 
REMARK    2  A    between atoms: C_12  and  C_13 
REMARK       I    between atoms: C_13  and  N_14 
ROOT
HETATM    1  C   UNL     1      -7.397   3.751 -33.001  1.00  0.00     0.262 C 
HETATM    2  N   UNL     1      -6.615   2.616 -32.714  1.00  0.00    -0.311 N 
HETATM    3  C   UNL     1      -6.755   1.333 -33.313  1.00  0.00     0.064 A 
HETATM    4  C   UNL     1      -6.486   0.134 -32.624  1.00  0.00     0.061 A 
HETATM    5  C   UNL     1      -6.662  -1.089 -33.304  1.00  0.00     0.032 A 
HETATM    6  C   UNL     1      -7.063  -1.137 -34.638  1.00  0.00     0.002 A 
HETATM    7  C   UNL     1      -7.289   0.043 -35.327  1.00  0.00     0.002 A 
HETATM    8  C   UNL     1      -7.130   1.264 -34.673  1.00  0.00     0.032 A 
HETATM    9  N   UNL     1      -6.085  -0.013 -31.281  1.00  0.00    -0.325 N 
HETATM   10  C   UNL     1      -5.734   0.838 -30.288  1.00  0.00     0.227 C 
HETATM   11  O   UNL     1      -5.421   0.331 -29.203  1.00  0.00    -0.273 OA
HETATM   12  C   UNL     1      -5.757   2.337 -30.422  1.00  0.00     0.092 C 
HETATM   13  C   UNL     1      -7.044   2.901 -29.827  1.00  0.00     0.021 C 
HETATM   14  C   UNL     1      -5.464   2.789 -31.837  1.00  0.00     0.146 C 
HETATM   15  O   UNL     1      -6.974   4.888 -32.786  1.00  0.00    -0.267 OA
HETATM   16  H   UNL     1      -5.991  -0.968 -30.949  1.00  0.00     0.169 HD
ENDROOT
BRANCH   1  17
HETATM   17  C   UNL     1      -8.782   3.576 -33.450  1.00  0.00     0.075 C 
HETATM   18  C   UNL     1      -9.777   2.859 -32.786  1.00  0.00     0.050 C 
HETATM   19  C   UNL     1      -9.716   2.242 -31.432  1.00  0.00     0.071 C 
HETATM   20  N   UNL     1     -10.896   2.866 -33.614  1.00  0.00    -0.238 N 
HETATM   21  N   UNL     1     -10.701   3.682 -34.683  1.00  0.00    -0.179 NA
HETATM   22  C   UNL     1      -9.415   4.015 -34.627  1.00  0.00     0.158 C 
BRANCH  20  23
HETATM   23  C   UNL     1     -12.139   2.175 -33.504  1.00  0.00     0.061 A 
HETATM   24  C   UNL     1     -12.184   0.813 -33.825  1.00  0.00     0.051 A 
HETATM   25  C   UNL     1     -13.391   0.146 -33.716  1.00  0.00     0.118 A 
HETATM   26  N   UNL     1     -14.534   0.730 -33.298  1.00  0.00    -0.273 NA
HETATM   27  C   UNL     1     -14.459   2.035 -32.964  1.00  0.00     0.118 A 
HETATM   28  C   UNL     1     -13.301   2.793 -33.047  1.00  0.00     0.051 A 
ENDBRANCH  20  23
ENDBRANCH   1  17
TORSDOF 2
ENDMDL
MODEL 5
REMARK VINA RESULT:      -8.2      2.833      7.588
REMARK  2 active torsions:
REMARK  status: ('A' for Active; 'I' for Inactive)
REMARK    1  A    between atoms: N_3  and  C_4 
REMARK    2  A    between atoms: C_12  and  C_13 
REMARK       I    between atoms: C_13  and  N_14 
ROOT
HETATM    1  C   UNL     1      -8.024   3.619 -33.940  1.00  0.00     0.262 C 
HETATM    2  N   UNL     1      -6.760   2.997 -33.914  1.00  0.00    -0.311 N 
HETATM    3  C   UNL     1      -6.513   1.605 -34.070  1.00  0.00     0.064 A 
HETATM    4  C   UNL     1      -5.453   0.940 -33.423  1.00  0.00     0.061 A 
HETATM    5  C   UNL     1      -5.294  -0.445 -33.637  1.00  0.00     0.032 A 
HETATM    6  C   UNL     1      -6.135  -1.158 -34.489  1.00  0.00     0.002 A 
HETATM    7  C   UNL     1      -7.153  -0.496 -35.156  1.00  0.00     0.002 A 
HETATM    8  C   UNL     1      -7.335   0.871 -34.953  1.00  0.00     0.032 A 
HETATM    9  N   UNL     1      -4.515   1.489 -32.525  1.00  0.00    -0.325 N 
HETATM   10  C   UNL     1      -4.232   2.737 -32.080  1.00  0.00     0.227 C 
HETATM   11  O   UNL     1      -3.301   2.843 -31.273  1.00  0.00    -0.273 OA
HETATM   12  C   UNL     1      -5.013   3.963 -32.472  1.00  0.00     0.092 C 
HETATM   13  C   UNL     1      -6.035   4.305 -31.392  1.00  0.00     0.021 C 
HETATM   14  C   UNL     1      -5.584   3.855 -33.870  1.00  0.00     0.146 C 
HETATM   15  O   UNL     1      -8.142   4.812 -34.222  1.00  0.00    -0.267 OA
HETATM   16  H   UNL     1      -3.854   0.834 -32.120  1.00  0.00     0.169 HD
ENDROOT
BRANCH   1  17
HETATM   17  C   UNL     1      -9.206   2.866 -33.507  1.00  0.00     0.075 C 
HETATM   18  C   UNL     1     -10.464   2.894 -34.109  1.00  0.00     0.050 C 
HETATM   19  C   UNL     1     -10.858   3.560 -35.382  1.00  0.00     0.071 C 
HETATM   20  N   UNL     1     -11.305   2.119 -33.315  1.00  0.00    -0.238 N 
HETATM   21  N   UNL     1     -10.601   1.484 -32.343  1.00  0.00    -0.179 NA
HETATM   22  C   UNL     1      -9.381   2.011 -32.405  1.00  0.00     0.158 C 
BRANCH  20  23
HETATM   23  C   UNL     1     -12.715   1.917 -33.375  1.00  0.00     0.061 A 
HETATM   24  C   UNL     1     -13.218   0.908 -34.206  1.00  0.00     0.051 A 
HETATM   25  C   UNL     1     -14.587   0.716 -34.261  1.00  0.00     0.118 A 
HETATM   26  N   UNL     1     -15.473   1.435 -33.540  1.00  0.00    -0.273 NA
HETATM   27  C   UNL     1     -14.964   2.379 -32.722  1.00  0.00     0.118 A 
HETATM   28  C   UNL     1     -13.610   2.656 -32.603  1.00  0.00     0.051 A 
ENDBRANCH  20  23
ENDBRANCH   1  17
TORSDOF 2
ENDMDL
MODEL 6
REMARK VINA RESULT:      -8.1      2.638      6.788
REMARK  2 active torsions:
REMARK  status: ('A' for Active; 'I' for Inactive)
REMARK    1  A    between atoms: N_3  and  C_4 
REMARK    2  A    between atoms: C_12  and  C_13 
REMARK       I    between atoms: C_13  and  N_14 
ROOT
HETATM    1  C   UNL     1      -6.785   3.495 -32.152  1.00  0.00     0.262 C 
HETATM    2  N   UNL     1      -5.947   4.556 -31.759  1.00  0.00    -0.311 N 
HETATM    3  C   UNL     1      -4.536   4.614 -31.933  1.00  0.00     0.064 A 
HETATM    4  C   UNL     1      -3.680   5.268 -31.026  1.00  0.00     0.061 A 
HETATM    5  C   UNL     1      -2.293   5.264 -31.283  1.00  0.00     0.032 A 
HETATM    6  C   UNL     1      -1.759   4.659 -32.418  1.00  0.00     0.002 A 
HETATM    7  C   UNL     1      -2.604   4.050 -33.331  1.00  0.00     0.002 A 
HETATM    8  C   UNL     1      -3.979   4.034 -33.093  1.00  0.00     0.032 A 
HETATM    9  N   UNL     1      -4.036   5.921 -29.828  1.00  0.00    -0.325 N 
HETATM   10  C   UNL     1      -5.204   6.234 -29.218  1.00  0.00     0.227 C 
HETATM   11  O   UNL     1      -5.126   6.840 -28.142  1.00  0.00    -0.273 OA
HETATM   12  C   UNL     1      -6.557   5.842 -29.748  1.00  0.00     0.092 C 
HETATM   13  C   UNL     1      -7.056   4.583 -29.044  1.00  0.00     0.021 C 
HETATM   14  C   UNL     1      -6.580   5.771 -31.261  1.00  0.00     0.146 C 
HETATM   15  O   UNL     1      -7.985   3.675 -32.364  1.00  0.00    -0.267 OA
HETATM   16  H   UNL     1      -3.265   6.290 -29.279  1.00  0.00     0.169 HD
ENDROOT
BRANCH   1  17
HETATM   17  C   UNL     1      -6.247   2.132 -32.196  1.00  0.00     0.075 C 
HETATM   18  C   UNL     1      -6.253   1.281 -33.302  1.00  0.00     0.050 C 
HETATM   19  C   UNL     1      -6.662   1.594 -34.699  1.00  0.00     0.071 C 
HETATM   20  N   UNL     1      -5.743   0.059 -32.870  1.00  0.00    -0.238 N 
HETATM   21  N   UNL     1      -5.273   0.155 -31.599  1.00  0.00    -0.179 NA
HETATM   22  C   UNL     1      -5.668   1.353 -31.178  1.00  0.00     0.158 C 
BRANCH  20  23
HETATM   23  C   UNL     1      -5.655  -1.199 -33.534  1.00  0.00     0.061 A 
HETATM   24  C   UNL     1      -6.832  -1.800 -34.001  1.00  0.00     0.051 A 
HETATM   25  C   UNL     1      -6.742  -3.021 -34.645  1.00  0.00     0.118 A 
HETATM   26  N   UNL     1      -5.577  -3.664 -34.871  1.00  0.00    -0.273 NA
HETATM   27  C   UNL     1      -4.454  -3.051 -34.442  1.00  0.00     0.118 A 
HETATM   28  C   UNL     1      -4.439  -1.834 -33.777  1.00  0.00     0.051 A 
ENDBRANCH  20  23
ENDBRANCH   1  17
TORSDOF 2
ENDMDL
MODEL 7
REMARK VINA RESULT:      -8.1      2.743      6.576
REMARK  2 active torsions:
REMARK  status: ('A' for Active; 'I' for Inactive)
REMARK    1  A    between atoms: N_3  and  C_4 
REMARK    2  A    between atoms: C_12  and  C_13 
REMARK       I    between atoms: C_13  and  N_14 
ROOT
HETATM    1  C   UNL     1      -8.095   2.314 -33.234  1.00  0.00     0.262 C 
HETATM    2  N   UNL     1      -7.618   3.472 -32.589  1.00  0.00    -0.311 N 
HETATM    3  C   UNL     1      -6.267   3.726 -32.224  1.00  0.00     0.064 A 
HETATM    4  C   UNL     1      -5.911   4.473 -31.084  1.00  0.00     0.061 A 
HETATM    5  C   UNL     1      -4.542   4.665 -30.803  1.00  0.00     0.032 A 
HETATM    6  C   UNL     1      -3.544   4.163 -31.636  1.00  0.00     0.002 A 
HETATM    7  C   UNL     1      -3.894   3.463 -32.778  1.00  0.00     0.002 A 
HETATM    8  C   UNL     1      -5.242   3.253 -33.071  1.00  0.00     0.032 A 
HETATM    9  N   UNL     1      -6.775   5.045 -30.128  1.00  0.00    -0.325 N 
HETATM   10  C   UNL     1      -8.117   5.181 -30.010  1.00  0.00     0.227 C 
HETATM   11  O   UNL     1      -8.532   5.769 -29.004  1.00  0.00    -0.273 OA
HETATM   12  C   UNL     1      -9.106   4.618 -30.996  1.00  0.00     0.092 C 
HETATM   13  C   UNL     1      -9.657   3.288 -30.489  1.00  0.00     0.021 C 
HETATM   14  C   UNL     1      -8.549   4.577 -32.404  1.00  0.00     0.146 C 
HETATM   15  O   UNL     1      -9.141   2.331 -33.885  1.00  0.00    -0.267 OA
HETATM   16  H   UNL     1      -6.324   5.505 -29.343  1.00  0.00     0.169 HD
ENDROOT
BRANCH   1  17
HETATM   17  C   UNL     1      -7.401   1.038 -33.029  1.00  0.00     0.075 C 
HETATM   18  C   UNL     1      -7.014   0.143 -34.026  1.00  0.00     0.050 C 
HETATM   19  C   UNL     1      -7.079   0.330 -35.502  1.00  0.00     0.071 C 
HETATM   20  N   UNL     1      -6.487  -0.972 -33.382  1.00  0.00    -0.238 N 
HETATM   21  N   UNL     1      -6.381  -0.752 -32.045  1.00  0.00    -0.179 NA
HETATM   22  C   UNL     1      -7.015   0.398 -31.837  1.00  0.00     0.158 C 
BRANCH  20  23
HETATM   23  C   UNL     1      -6.075  -2.236 -33.897  1.00  0.00     0.061 A 
HETATM   24  C   UNL     1      -7.048  -3.111 -34.397  1.00  0.00     0.051 A 
HETATM   25  C   UNL     1      -6.644  -4.336 -34.897  1.00  0.00     0.118 A 
HETATM   26  N   UNL     1      -5.356  -4.735 -34.950  1.00  0.00    -0.273 NA
HETATM   27  C   UNL     1      -4.433  -3.862 -34.493  1.00  0.00     0.118 A 
HETATM   28  C   UNL     1      -4.736  -2.617 -33.965  1.00  0.00     0.051 A 
ENDBRANCH  20  23
ENDBRANCH   1  17
TORSDOF 2
ENDMDL
MODEL 8
REMARK VINA RESULT:      -7.9      2.661      7.305
REMARK  2 active torsions:
REMARK  status: ('A' for Active; 'I' for Inactive)
REMARK    1  A    between atoms: N_3  and  C_4 
REMARK    2  A    between atoms: C_12  and  C_13 
REMARK       I    between atoms: C_13  and  N_14 
ROOT
HETATM    1  C   UNL     1      -5.506   5.135 -31.878  1.00  0.00     0.262 C 
HETATM    2  N   UNL     1      -4.564   6.159 -32.099  1.00  0.00    -0.311 N 
HETATM    3  C   UNL     1      -3.402   6.062 -32.914  1.00  0.00     0.064 A 
HETATM    4  C   UNL     1      -2.208   6.754 -32.628  1.00  0.00     0.061 A 
HETATM    5  C   UNL     1      -1.107   6.587 -33.494  1.00  0.00     0.032 A 
HETATM    6  C   UNL     1      -1.182   5.784 -34.630  1.00  0.00     0.002 A 
HETATM    7  C   UNL     1      -2.368   5.135 -34.932  1.00  0.00     0.002 A 
HETATM    8  C   UNL     1      -3.467   5.278 -34.086  1.00  0.00     0.032 A 
HETATM    9  N   UNL     1      -1.946   7.595 -31.528  1.00  0.00    -0.325 N 
HETATM   10  C   UNL     1      -2.682   8.096 -30.507  1.00  0.00     0.227 C 
HETATM   11  O   UNL     1      -2.096   8.835 -29.707  1.00  0.00    -0.273 OA
HETATM   12  C   UNL     1      -4.132   7.761 -30.278  1.00  0.00     0.092 C 
HETATM   13  C   UNL     1      -4.259   6.662 -29.226  1.00  0.00     0.021 C 
HETATM   14  C   UNL     1      -4.867   7.484 -31.573  1.00  0.00     0.146 C 
HETATM   15  O   UNL     1      -6.661   5.394 -31.536  1.00  0.00    -0.267 OA
HETATM   16  H   UNL     1      -1.002   7.964 -31.468  1.00  0.00     0.169 HD
ENDROOT
BRANCH   1  17
HETATM   17  C   UNL     1      -5.074   3.735 -31.940  1.00  0.00     0.075 C 
HETATM   18  C   UNL     1      -5.490   2.787 -32.875  1.00  0.00     0.050 C 
HETATM   19  C   UNL     1      -6.332   3.000 -34.085  1.00  0.00     0.071 C 
HETATM   20  N   UNL     1      -4.918   1.575 -32.500  1.00  0.00    -0.238 N 
HETATM   21  N   UNL     1      -4.043   1.752 -31.475  1.00  0.00    -0.179 NA
HETATM   22  C   UNL     1      -4.220   3.012 -31.089  1.00  0.00     0.158 C 
BRANCH  20  23
HETATM   23  C   UNL     1      -5.115   0.257 -33.006  1.00  0.00     0.061 A 
HETATM   24  C   UNL     1      -6.423  -0.195 -33.222  1.00  0.00     0.051 A 
HETATM   25  C   UNL     1      -6.609  -1.474 -33.714  1.00  0.00     0.118 A 
HETATM   26  N   UNL     1      -5.597  -2.313 -34.019  1.00  0.00    -0.273 NA
HETATM   27  C   UNL     1      -4.346  -1.845 -33.834  1.00  0.00     0.118 A 
HETATM   28  C   UNL     1      -4.054  -0.584 -33.337  1.00  0.00     0.051 A 
ENDBRANCH  20  23
ENDBRANCH   1  17
TORSDOF 2
ENDMDL
MODEL 9
REMARK VINA RESULT:      -7.6      4.111      8.239
REMARK  2 active torsions:
REMARK  status: ('A' for Active; 'I' for Inactive)
REMARK    1  A    between atoms: N_3  and  C_4 
REMARK    2  A    between atoms: C_12  and  C_13 
REMARK       I    between atoms: C_13  and  N_14 
ROOT
HETATM    1  C   UNL     1      -2.270   8.613 -31.191  1.00  0.00     0.262 C 
HETATM    2  N   UNL     1      -1.480   8.224 -30.091  1.00  0.00    -0.311 N 
HETATM    3  C   UNL     1      -0.623   7.090 -30.039  1.00  0.00     0.064 A 
HETATM    4  C   UNL     1      -0.389   6.363 -28.854  1.00  0.00     0.061 A 
HETATM    5  C   UNL     1       0.473   5.248 -28.906  1.00  0.00     0.032 A 
HETATM    6  C   UNL     1       1.114   4.870 -30.084  1.00  0.00     0.002 A 
HETATM    7  C   UNL     1       0.915   5.607 -31.239  1.00  0.00     0.002 A 
HETATM    8  C   UNL     1       0.060   6.709 -31.214  1.00  0.00     0.032 A 
HETATM    9  N   UNL     1      -0.952   6.590 -27.583  1.00  0.00    -0.325 N 
HETATM   10  C   UNL     1      -1.749   7.544 -27.044  1.00  0.00     0.227 C 
HETATM   11  O   UNL     1      -2.043   7.415 -25.849  1.00  0.00    -0.273 OA
HETATM   12  C   UNL     1      -2.321   8.696 -27.825  1.00  0.00     0.092 C 
HETATM   13  C   UNL     1      -3.755   8.387 -28.248  1.00  0.00     0.021 C 
HETATM   14  C   UNL     1      -1.410   9.132 -28.953  1.00  0.00     0.146 C 
HETATM   15  O   UNL     1      -2.636   9.780 -31.332  1.00  0.00    -0.267 OA
HETATM   16  H   UNL     1      -0.698   5.923 -26.861  1.00  0.00     0.169 HD
ENDROOT
BRANCH   1  17
HETATM   17  C   UNL     1      -2.764   7.590 -32.119  1.00  0.00     0.075 C 
HETATM   18  C   UNL     1      -3.781   6.670 -31.862  1.00  0.00     0.050 C 
HETATM   19  C   UNL     1      -4.680   6.601 -30.677  1.00  0.00     0.071 C 
HETATM   20  N   UNL     1      -3.848   5.828 -32.969  1.00  0.00    -0.238 N 
HETATM   21  N   UNL     1      -3.038   6.274 -33.964  1.00  0.00    -0.179 NA
HETATM   22  C   UNL     1      -2.329   7.256 -33.414  1.00  0.00     0.158 C 
BRANCH  20  23
HETATM   23  C   UNL     1      -4.599   4.636 -33.187  1.00  0.00     0.061 A 
HETATM   24  C   UNL     1      -4.214   3.465 -32.521  1.00  0.00     0.051 A 
HETATM   25  C   UNL     1      -4.946   2.310 -32.735  1.00  0.00     0.118 A 
HETATM   26  N   UNL     1      -6.029   2.248 -33.537  1.00  0.00    -0.273 NA
HETATM   27  C   UNL     1      -6.400   3.396 -34.142  1.00  0.00     0.118 A 
HETATM   28  C   UNL     1      -5.729   4.601 -34.002  1.00  0.00     0.051 A 
ENDBRANCH  20  23
ENDBRANCH   1  17
TORSDOF 2
ENDMDL
MODEL 10
REMARK VINA RESULT:      -7.6      2.623      7.718
REMARK  2 active torsions:
REMARK  status: ('A' for Active; 'I' for Inactive)
REMARK    1  A    between atoms: N_3  and  C_4 
REMARK    2  A    between atoms: C_12  and  C_13 
REMARK       I    between atoms: C_13  and  N_14 
ROOT
HETATM    1  C   UNL     1      -3.870   3.217 -32.301  1.00  0.00     0.262 C 
HETATM    2  N   UNL     1      -3.401   4.486 -31.909  1.00  0.00    -0.311 N 
HETATM    3  C   UNL     1      -4.196   5.549 -31.400  1.00  0.00     0.064 A 
HETATM    4  C   UNL     1      -3.899   6.906 -31.634  1.00  0.00     0.061 A 
HETATM    5  C   UNL     1      -4.753   7.888 -31.092  1.00  0.00     0.032 A 
HETATM    6  C   UNL     1      -5.859   7.551 -30.313  1.00  0.00     0.002 A 
HETATM    7  C   UNL     1      -6.129   6.218 -30.050  1.00  0.00     0.002 A 
HETATM    8  C   UNL     1      -5.302   5.229 -30.583  1.00  0.00     0.032 A 
HETATM    9  N   UNL     1      -2.839   7.433 -32.399  1.00  0.00    -0.325 N 
HETATM   10  C   UNL     1      -1.762   6.910 -33.033  1.00  0.00     0.227 C 
HETATM   11  O   UNL     1      -1.017   7.706 -33.617  1.00  0.00    -0.273 OA
HETATM   12  C   UNL     1      -1.467   5.435 -33.103  1.00  0.00     0.092 C 
HETATM   13  C   UNL     1      -1.953   4.862 -34.431  1.00  0.00     0.021 C 
HETATM   14  C   UNL     1      -1.959   4.694 -31.877  1.00  0.00     0.146 C 
HETATM   15  O   UNL     1      -3.123   2.238 -32.320  1.00  0.00    -0.267 OA
HETATM   16  H   UNL     1      -2.821   8.444 -32.494  1.00  0.00     0.169 HD
ENDROOT
BRANCH   1  17
HETATM   17  C   UNL     1      -5.239   3.082 -32.809  1.00  0.00     0.075 C 
HETATM   18  C   UNL     1      -6.252   2.306 -32.246  1.00  0.00     0.050 C 
HETATM   19  C   UNL     1      -6.232   1.566 -30.953  1.00  0.00     0.071 C 
HETATM   20  N   UNL     1      -7.345   2.388 -33.105  1.00  0.00    -0.238 N 
HETATM   21  N   UNL     1      -7.119   3.299 -34.087  1.00  0.00    -0.179 NA
HETATM   22  C   UNL     1      -5.837   3.627 -33.960  1.00  0.00     0.158 C 
BRANCH  20  23
HETATM   23  C   UNL     1      -8.587   1.688 -33.100  1.00  0.00     0.061 A 
HETATM   24  C   UNL     1      -9.746   2.368 -33.494  1.00  0.00     0.051 A 
HETATM   25  C   UNL     1     -10.949   1.684 -33.488  1.00  0.00     0.118 A 
HETATM   26  N   UNL     1     -11.071   0.386 -33.141  1.00  0.00    -0.273 NA
HETATM   27  C   UNL     1      -9.936  -0.257 -32.797  1.00  0.00     0.118 A 
HETATM   28  C   UNL     1      -8.685   0.340 -32.761  1.00  0.00     0.051 A 
ENDBRANCH  20  23
ENDBRANCH   1  17
TORSDOF 2
ENDMDL
