MODEL 1
REMARK VINA RESULT:      -9.0      0.000      0.000
REMARK  5 active torsions:
REMARK  status: ('A' for Active; 'I' for Inactive)
REMARK    1  A    between atoms: C_7  and  C_8 
REMARK    2  A    between atoms: N_9  and  N_10 
REMARK       I    between atoms: N_10  and  C_11 
REMARK    3  A    between atoms: C_11  and  C_12 
REMARK    4  A    between atoms: C_12  and  O_13 
REMARK    5  A    between atoms: O_13  and  C_14 
ROOT
HETATM    1  N   UNL     1      -7.701   2.888 -32.611  1.00  0.00    -0.246 N 
HETATM    2  C   UNL     1      -7.095   2.729 -31.369  1.00  0.00     0.261 C 
HETATM    3  O   UNL     1      -7.677   2.530 -30.303  1.00  0.00    -0.269 OA
HETATM    4  H   UNL     1      -7.134   3.317 -33.340  1.00  0.00     0.192 HD
ENDROOT
BRANCH   1   5
HETATM    5  N   UNL     1      -9.061   2.972 -32.824  1.00  0.00    -0.184 NA
HETATM    6  C   UNL     1      -9.509   2.634 -33.992  1.00  0.00     0.153 C 
BRANCH   6   7
HETATM    7  C   UNL     1     -10.934   2.637 -34.279  1.00  0.00     0.018 A 
HETATM    8  C   UNL     1     -11.595   3.725 -34.841  1.00  0.00     0.018 A 
HETATM    9  C   UNL     1     -11.085   5.050 -35.283  1.00  0.00     0.069 C 
HETATM   10  N   UNL     1     -12.918   3.390 -34.969  1.00  0.00    -0.358 N 
HETATM   11  H   UNL     1     -13.636   3.989 -35.353  1.00  0.00     0.166 HD
HETATM   12  C   UNL     1     -13.143   2.115 -34.511  1.00  0.00     0.043 A 
HETATM   13  C   UNL     1     -11.915   1.611 -34.075  1.00  0.00     0.004 A 
HETATM   14  C   UNL     1     -14.334   1.381 -34.454  1.00  0.00     0.030 A 
HETATM   15  C   UNL     1     -11.888   0.299 -33.556  1.00  0.00     0.014 A 
HETATM   16  C   UNL     1     -13.069  -0.451 -33.491  1.00  0.00     0.001 A 
HETATM   17  C   UNL     1     -14.274   0.087 -33.935  1.00  0.00     0.002 A 
ENDBRANCH   6   7
ENDBRANCH   1   5
BRANCH   2  18
HETATM   18  C   UNL     1      -5.569   2.753 -31.427  1.00  0.00     0.280 C 
BRANCH  18  19
HETATM   19  O   UNL     1      -5.057   2.350 -32.702  1.00  0.00    -0.341 OA
BRANCH  19  20
HETATM   20  C   UNL     1      -4.610   1.049 -32.615  1.00  0.00     0.080 A 
HETATM   21  C   UNL     1      -5.203   0.012 -33.370  1.00  0.00     0.009 A 
HETATM   22  C   UNL     1      -4.760  -1.323 -33.166  1.00  0.00    -0.006 A 
HETATM   23  C   UNL     1      -6.222   0.260 -34.316  1.00  0.00     0.015 A 
HETATM   24  C   UNL     1      -5.402  -2.352 -33.900  1.00  0.00     0.014 A 
HETATM   25  C   UNL     1      -3.705  -1.546 -32.242  1.00  0.00     0.022 A 
HETATM   26  C   UNL     1      -6.424  -2.081 -34.813  1.00  0.00     0.001 A 
HETATM   27  C   UNL     1      -6.828  -0.773 -35.028  1.00  0.00     0.001 A 
HETATM   28 BR   UNL     1      -3.023  -3.288 -31.868  1.00  0.00    -0.050 Br
HETATM   29  C   UNL     1      -3.101  -0.490 -31.551  1.00  0.00     0.023 A 
HETATM   30  C   UNL     1      -3.549   0.809 -31.742  1.00  0.00     0.039 A 
ENDBRANCH  19  20
ENDBRANCH  18  19
ENDBRANCH   2  18
TORSDOF 5
ENDMDL
MODEL 2
REMARK VINA RESULT:      -9.0      4.609      7.340
REMARK  5 active torsions:
REMARK  status: ('A' for Active; 'I' for Inactive)
REMARK    1  A    between atoms: C_7  and  C_8 
REMARK    2  A    between atoms: N_9  and  N_10 
REMARK       I    between atoms: N_10  and  C_11 
REMARK    3  A    between atoms: C_11  and  C_12 
REMARK    4  A    between atoms: C_12  and  O_13 
REMARK    5  A    between atoms: O_13  and  C_14 
ROOT
HETATM    1  N   UNL     1      -5.327   2.093 -31.103  1.00  0.00    -0.246 N 
HETATM    2  C   UNL     1      -6.279   3.107 -31.103  1.00  0.00     0.261 C 
HETATM    3  O   UNL     1      -7.442   3.003 -31.493  1.00  0.00    -0.269 OA
HETATM    4  H   UNL     1      -4.355   2.385 -31.021  1.00  0.00     0.192 HD
ENDROOT
BRANCH   1   5
HETATM    5  N   UNL     1      -5.501   0.843 -31.657  1.00  0.00    -0.184 NA
HETATM    6  C   UNL     1      -5.154   0.680 -32.896  1.00  0.00     0.153 C 
BRANCH   6   7
HETATM    7  C   UNL     1      -5.247  -0.621 -33.537  1.00  0.00     0.018 A 
HETATM    8  C   UNL     1      -6.106  -0.885 -34.599  1.00  0.00     0.018 A 
HETATM    9  C   UNL     1      -7.060  -0.003 -35.322  1.00  0.00     0.069 C 
HETATM   10  N   UNL     1      -5.942  -2.200 -34.953  1.00  0.00    -0.358 N 
HETATM   11  H   UNL     1      -6.436  -2.669 -35.700  1.00  0.00     0.166 HD
HETATM   12  C   UNL     1      -4.999  -2.803 -34.156  1.00  0.00     0.043 A 
HETATM   13  C   UNL     1      -4.539  -1.836 -33.259  1.00  0.00     0.004 A 
HETATM   14  C   UNL     1      -4.527  -4.121 -34.168  1.00  0.00     0.030 A 
HETATM   15  C   UNL     1      -3.551  -2.220 -32.327  1.00  0.00     0.014 A 
HETATM   16  C   UNL     1      -3.066  -3.534 -32.324  1.00  0.00     0.001 A 
HETATM   17  C   UNL     1      -3.551  -4.469 -33.234  1.00  0.00     0.002 A 
ENDBRANCH   6   7
ENDBRANCH   1   5
BRANCH   2  18
HETATM   18  C   UNL     1      -5.780   4.414 -30.492  1.00  0.00     0.280 C 
BRANCH  18  19
HETATM   19  O   UNL     1      -5.555   5.434 -31.472  1.00  0.00    -0.341 OA
BRANCH  19  20
HETATM   20  C   UNL     1      -4.215   5.760 -31.481  1.00  0.00     0.080 A 
HETATM   21  C   UNL     1      -3.427   5.619 -32.646  1.00  0.00     0.009 A 
HETATM   22  C   UNL     1      -2.034   5.882 -32.566  1.00  0.00    -0.006 A 
HETATM   23  C   UNL     1      -3.982   5.222 -33.883  1.00  0.00     0.015 A 
HETATM   24  C   UNL     1      -1.256   5.689 -33.735  1.00  0.00     0.014 A 
HETATM   25  C   UNL     1      -1.504   6.321 -31.323  1.00  0.00     0.022 A 
HETATM   26  C   UNL     1      -1.826   5.273 -34.941  1.00  0.00     0.001 A 
HETATM   27  C   UNL     1      -3.191   5.049 -35.017  1.00  0.00     0.001 A 
HETATM   28 BR   UNL     1       0.350   6.699 -31.077  1.00  0.00    -0.050 Br
HETATM   29  C   UNL     1      -2.321   6.504 -30.202  1.00  0.00     0.023 A 
HETATM   30  C   UNL     1      -3.679   6.229 -30.282  1.00  0.00     0.039 A 
ENDBRANCH  19  20
ENDBRANCH  18  19
ENDBRANCH   2  18
TORSDOF 5
ENDMDL
MODEL 3
REMARK VINA RESULT:      -8.8      4.861      7.899
REMARK  5 active torsions:
REMARK  status: ('A' for Active; 'I' for Inactive)
REMARK    1  A    between atoms: C_7  and  C_8 
REMARK    2  A    between atoms: N_9  and  N_10 
REMARK       I    between atoms: N_10  and  C_11 
REMARK    3  A    between atoms: C_11  and  C_12 
REMARK    4  A    between atoms: C_12  and  O_13 
REMARK    5  A    between atoms: O_13  and  C_14 
ROOT
HETATM    1  N   UNL     1      -6.533   1.972 -32.765  1.00  0.00    -0.246 N 
HETATM    2  C   UNL     1      -6.051   3.042 -32.018  1.00  0.00     0.261 C 
HETATM    3  O   UNL     1      -5.122   2.997 -31.211  1.00  0.00    -0.269 OA
HETATM    4  H   UNL     1      -7.461   2.083 -33.168  1.00  0.00     0.192 HD
ENDROOT
BRANCH   1   5
HETATM    5  N   UNL     1      -6.127   0.662 -32.626  1.00  0.00    -0.184 NA
HETATM    6  C   UNL     1      -5.191   0.234 -33.415  1.00  0.00     0.153 C 
BRANCH   6   7
HETATM    7  C   UNL     1      -4.665  -1.115 -33.292  1.00  0.00     0.018 A 
HETATM    8  C   UNL     1      -3.586  -1.439 -32.476  1.00  0.00     0.018 A 
HETATM    9  C   UNL     1      -2.762  -0.593 -31.572  1.00  0.00     0.069 C 
HETATM   10  N   UNL     1      -3.353  -2.785 -32.603  1.00  0.00    -0.358 N 
HETATM   11  H   UNL     1      -2.630  -3.300 -32.120  1.00  0.00     0.166 HD
HETATM   12  C   UNL     1      -4.250  -3.351 -33.476  1.00  0.00     0.043 A 
HETATM   13  C   UNL     1      -5.091  -2.330 -33.924  1.00  0.00     0.004 A 
HETATM   14  C   UNL     1      -4.373  -4.681 -33.895  1.00  0.00     0.030 A 
HETATM   15  C   UNL     1      -6.109  -2.669 -34.840  1.00  0.00     0.014 A 
HETATM   16  C   UNL     1      -6.248  -3.995 -35.270  1.00  0.00     0.001 A 
HETATM   17  C   UNL     1      -5.389  -4.985 -34.802  1.00  0.00     0.002 A 
ENDBRANCH   6   7
ENDBRANCH   1   5
BRANCH   2  18
HETATM   18  C   UNL     1      -6.744   4.366 -32.330  1.00  0.00     0.280 C 
BRANCH  18  19
HETATM   19  O   UNL     1      -6.143   5.061 -33.428  1.00  0.00    -0.341 OA
BRANCH  19  20
HETATM   20  C   UNL     1      -5.218   5.959 -32.939  1.00  0.00     0.080 A 
HETATM   21  C   UNL     1      -3.890   5.990 -33.423  1.00  0.00     0.009 A 
HETATM   22  C   UNL     1      -2.960   6.874 -32.813  1.00  0.00    -0.006 A 
HETATM   23  C   UNL     1      -3.460   5.169 -34.489  1.00  0.00     0.015 A 
HETATM   24  C   UNL     1      -1.623   6.854 -33.283  1.00  0.00     0.014 A 
HETATM   25  C   UNL     1      -3.424   7.722 -31.772  1.00  0.00     0.022 A 
HETATM   26  C   UNL     1      -1.218   6.015 -34.323  1.00  0.00     0.001 A 
HETATM   27  C   UNL     1      -2.139   5.178 -34.933  1.00  0.00     0.001 A 
HETATM   28 BR   UNL     1      -2.278   8.948 -30.863  1.00  0.00    -0.050 Br
HETATM   29  C   UNL     1      -4.759   7.707 -31.354  1.00  0.00     0.023 A 
HETATM   30  C   UNL     1      -5.659   6.828 -31.942  1.00  0.00     0.039 A 
ENDBRANCH  19  20
ENDBRANCH  18  19
ENDBRANCH   2  18
TORSDOF 5
ENDMDL
MODEL 4
REMARK VINA RESULT:      -8.8      3.495      7.870
REMARK  5 active torsions:
REMARK  status: ('A' for Active; 'I' for Inactive)
REMARK    1  A    between atoms: C_7  and  C_8 
REMARK    2  A    between atoms: N_9  and  N_10 
REMARK       I    between atoms: N_10  and  C_11 
REMARK    3  A    between atoms: C_11  and  C_12 
REMARK    4  A    between atoms: C_12  and  O_13 
REMARK    5  A    between atoms: O_13  and  C_14 
ROOT
HETATM    1  N   UNL     1      -8.468   1.533 -31.392  1.00  0.00    -0.246 N 
HETATM    2  C   UNL     1      -8.279   2.642 -30.575  1.00  0.00     0.261 C 
HETATM    3  O   UNL     1      -7.212   2.990 -30.069  1.00  0.00    -0.269 OA
HETATM    4  H   UNL     1      -9.429   1.212 -31.505  1.00  0.00     0.192 HD
ENDROOT
BRANCH   1   5
HETATM    5  N   UNL     1      -7.514   0.576 -31.663  1.00  0.00    -0.184 NA
HETATM    6  C   UNL     1      -6.990   0.567 -32.849  1.00  0.00     0.153 C 
BRANCH   6   7
HETATM    7  C   UNL     1      -5.935  -0.370 -33.197  1.00  0.00     0.018 A 
HETATM    8  C   UNL     1      -4.586  -0.114 -32.972  1.00  0.00     0.018 A 
HETATM    9  C   UNL     1      -3.908   1.059 -32.358  1.00  0.00     0.069 C 
HETATM   10  N   UNL     1      -3.873  -1.197 -33.419  1.00  0.00    -0.358 N 
HETATM   11  H   UNL     1      -2.868  -1.290 -33.379  1.00  0.00     0.166 HD
HETATM   12  C   UNL     1      -4.716  -2.155 -33.927  1.00  0.00     0.043 A 
HETATM   13  C   UNL     1      -6.019  -1.669 -33.798  1.00  0.00     0.004 A 
HETATM   14  C   UNL     1      -4.418  -3.404 -34.485  1.00  0.00     0.030 A 
HETATM   15  C   UNL     1      -7.076  -2.487 -34.253  1.00  0.00     0.014 A 
HETATM   16  C   UNL     1      -6.797  -3.740 -34.813  1.00  0.00     0.001 A 
HETATM   17  C   UNL     1      -5.484  -4.189 -34.927  1.00  0.00     0.002 A 
ENDBRANCH   6   7
ENDBRANCH   1   5
BRANCH   2  18
HETATM   18  C   UNL     1      -9.537   3.486 -30.388  1.00  0.00     0.280 C 
BRANCH  18  19
HETATM   19  O   UNL     1     -10.028   4.029 -31.619  1.00  0.00    -0.341 OA
BRANCH  19  20
HETATM   20  C   UNL     1     -11.357   3.691 -31.760  1.00  0.00     0.080 A 
HETATM   21  C   UNL     1     -11.813   2.925 -32.857  1.00  0.00     0.009 A 
HETATM   22  C   UNL     1     -13.207   2.690 -32.996  1.00  0.00    -0.006 A 
HETATM   23  C   UNL     1     -10.927   2.391 -33.820  1.00  0.00     0.015 A 
HETATM   24  C   UNL     1     -13.645   1.960 -34.130  1.00  0.00     0.014 A 
HETATM   25  C   UNL     1     -14.077   3.200 -31.995  1.00  0.00     0.022 A 
HETATM   26  C   UNL     1     -12.749   1.462 -35.079  1.00  0.00     0.001 A 
HETATM   27  C   UNL     1     -11.389   1.670 -34.919  1.00  0.00     0.001 A 
HETATM   28 BR   UNL     1     -15.968   2.963 -32.066  1.00  0.00    -0.050 Br
HETATM   29  C   UNL     1     -13.588   3.906 -30.891  1.00  0.00     0.023 A 
HETATM   30  C   UNL     1     -12.227   4.148 -30.770  1.00  0.00     0.039 A 
ENDBRANCH  19  20
ENDBRANCH  18  19
ENDBRANCH   2  18
TORSDOF 5
ENDMDL
MODEL 5
REMARK VINA RESULT:      -8.5      4.035      8.281
REMARK  5 active torsions:
REMARK  status: ('A' for Active; 'I' for Inactive)
REMARK    1  A    between atoms: C_7  and  C_8 
REMARK    2  A    between atoms: N_9  and  N_10 
REMARK       I    between atoms: N_10  and  C_11 
REMARK    3  A    between atoms: C_11  and  C_12 
REMARK    4  A    between atoms: C_12  and  O_13 
REMARK    5  A    between atoms: O_13  and  C_14 
ROOT
HETATM    1  N   UNL     1      -5.610   3.787 -31.820  1.00  0.00    -0.246 N 
HETATM    2  C   UNL     1      -6.353   3.438 -32.943  1.00  0.00     0.261 C 
HETATM    3  O   UNL     1      -6.087   3.742 -34.106  1.00  0.00    -0.269 OA
HETATM    4  H   UNL     1      -6.086   3.713 -30.922  1.00  0.00     0.192 HD
ENDROOT
BRANCH   1   5
HETATM    5  N   UNL     1      -4.525   4.637 -31.820  1.00  0.00    -0.184 NA
HETATM    6  C   UNL     1      -3.406   4.184 -32.292  1.00  0.00     0.153 C 
BRANCH   6   7
HETATM    7  C   UNL     1      -2.231   5.035 -32.384  1.00  0.00     0.018 A 
HETATM    8  C   UNL     1      -1.623   5.364 -33.591  1.00  0.00     0.018 A 
HETATM    9  C   UNL     1      -1.974   4.997 -34.989  1.00  0.00     0.069 C 
HETATM   10  N   UNL     1      -0.549   6.170 -33.314  1.00  0.00    -0.358 N 
HETATM   11  H   UNL     1       0.076   6.566 -34.002  1.00  0.00     0.166 HD
HETATM   12  C   UNL     1      -0.438   6.381 -31.961  1.00  0.00     0.043 A 
HETATM   13  C   UNL     1      -1.482   5.685 -31.348  1.00  0.00     0.004 A 
HETATM   14  C   UNL     1       0.504   7.131 -31.246  1.00  0.00     0.030 A 
HETATM   15  C   UNL     1      -1.582   5.751 -29.942  1.00  0.00     0.014 A 
HETATM   16  C   UNL     1      -0.650   6.497 -29.210  1.00  0.00     0.001 A 
HETATM   17  C   UNL     1       0.379   7.176 -29.857  1.00  0.00     0.002 A 
ENDBRANCH   6   7
ENDBRANCH   1   5
BRANCH   2  18
HETATM   18  C   UNL     1      -7.551   2.546 -32.630  1.00  0.00     0.280 C 
BRANCH  18  19
HETATM   19  O   UNL     1      -7.245   1.517 -31.682  1.00  0.00    -0.341 OA
BRANCH  19  20
HETATM   20  C   UNL     1      -6.832   0.390 -32.361  1.00  0.00     0.080 A 
HETATM   21  C   UNL     1      -5.537  -0.148 -32.183  1.00  0.00     0.009 A 
HETATM   22  C   UNL     1      -5.139  -1.254 -32.981  1.00  0.00    -0.006 A 
HETATM   23  C   UNL     1      -4.627   0.382 -31.241  1.00  0.00     0.015 A 
HETATM   24  C   UNL     1      -3.820  -1.746 -32.818  1.00  0.00     0.014 A 
HETATM   25  C   UNL     1      -6.083  -1.798 -33.892  1.00  0.00     0.022 A 
HETATM   26  C   UNL     1      -2.932  -1.189 -31.895  1.00  0.00     0.001 A 
HETATM   27  C   UNL     1      -3.339  -0.131 -31.099  1.00  0.00     0.001 A 
HETATM   28 BR   UNL     1      -5.676  -3.275 -35.028  1.00  0.00    -0.050 Br
HETATM   29  C   UNL     1      -7.377  -1.277 -34.005  1.00  0.00     0.023 A 
HETATM   30  C   UNL     1      -7.754  -0.185 -33.235  1.00  0.00     0.039 A 
ENDBRANCH  19  20
ENDBRANCH  18  19
ENDBRANCH   2  18
TORSDOF 5
ENDMDL
MODEL 6
REMARK VINA RESULT:      -8.5      5.436      8.467
REMARK  5 active torsions:
REMARK  status: ('A' for Active; 'I' for Inactive)
REMARK    1  A    between atoms: C_7  and  C_8 
REMARK    2  A    between atoms: N_9  and  N_10 
REMARK       I    between atoms: N_10  and  C_11 
REMARK    3  A    between atoms: C_11  and  C_12 
REMARK    4  A    between atoms: C_12  and  O_13 
REMARK    5  A    between atoms: O_13  and  C_14 
ROOT
HETATM    1  N   UNL     1      -3.582   4.575 -32.928  1.00  0.00    -0.246 N 
HETATM    2  C   UNL     1      -2.868   5.442 -33.748  1.00  0.00     0.261 C 
HETATM    3  O   UNL     1      -2.313   5.140 -34.804  1.00  0.00    -0.269 OA
HETATM    4  H   UNL     1      -3.741   4.885 -31.970  1.00  0.00     0.192 HD
ENDROOT
BRANCH   1   5
HETATM    5  N   UNL     1      -3.676   3.211 -33.106  1.00  0.00    -0.184 NA
HETATM    6  C   UNL     1      -4.660   2.595 -32.529  1.00  0.00     0.153 C 
BRANCH   6   7
HETATM    7  C   UNL     1      -4.865   1.169 -32.717  1.00  0.00     0.018 A 
HETATM    8  C   UNL     1      -4.138   0.199 -32.033  1.00  0.00     0.018 A 
HETATM    9  C   UNL     1      -3.070   0.328 -31.007  1.00  0.00     0.069 C 
HETATM   10  N   UNL     1      -4.582  -1.029 -32.451  1.00  0.00    -0.358 N 
HETATM   11  H   UNL     1      -4.235  -1.919 -32.118  1.00  0.00     0.166 HD
HETATM   12  C   UNL     1      -5.579  -0.893 -33.385  1.00  0.00     0.043 A 
HETATM   13  C   UNL     1      -5.785   0.476 -33.571  1.00  0.00     0.004 A 
HETATM   14  C   UNL     1      -6.305  -1.875 -34.069  1.00  0.00     0.030 A 
HETATM   15  C   UNL     1      -6.776   0.874 -34.494  1.00  0.00     0.014 A 
HETATM   16  C   UNL     1      -7.513  -0.095 -35.188  1.00  0.00     0.001 A 
HETATM   17  C   UNL     1      -7.277  -1.450 -34.976  1.00  0.00     0.002 A 
ENDBRANCH   6   7
ENDBRANCH   1   5
BRANCH   2  18
HETATM   18  C   UNL     1      -2.871   6.888 -33.259  1.00  0.00     0.280 C 
BRANCH  18  19
HETATM   19  O   UNL     1      -1.553   7.405 -33.046  1.00  0.00    -0.341 OA
BRANCH  19  20
HETATM   20  C   UNL     1      -1.414   7.746 -31.717  1.00  0.00     0.080 A 
HETATM   21  C   UNL     1      -0.651   6.956 -30.827  1.00  0.00     0.009 A 
HETATM   22  C   UNL     1      -0.624   7.308 -29.451  1.00  0.00    -0.006 A 
HETATM   23  C   UNL     1       0.080   5.828 -31.262  1.00  0.00     0.015 A 
HETATM   24  C   UNL     1       0.109   6.474 -28.570  1.00  0.00     0.014 A 
HETATM   25  C   UNL     1      -1.331   8.470 -29.041  1.00  0.00     0.022 A 
HETATM   26  C   UNL     1       0.805   5.351 -29.023  1.00  0.00     0.001 A 
HETATM   27  C   UNL     1       0.798   5.033 -30.371  1.00  0.00     0.001 A 
HETATM   28 BR   UNL     1      -1.383   9.049 -27.224  1.00  0.00    -0.050 Br
HETATM   29  C   UNL     1      -2.030   9.263 -29.957  1.00  0.00     0.023 A 
HETATM   30  C   UNL     1      -2.068   8.904 -31.298  1.00  0.00     0.039 A 
ENDBRANCH  19  20
ENDBRANCH  18  19
ENDBRANCH   2  18
TORSDOF 5
ENDMDL
MODEL 7
REMARK VINA RESULT:      -8.5      4.704      8.044
REMARK  5 active torsions:
REMARK  status: ('A' for Active; 'I' for Inactive)
REMARK    1  A    between atoms: C_7  and  C_8 
REMARK    2  A    between atoms: N_9  and  N_10 
REMARK       I    between atoms: N_10  and  C_11 
REMARK    3  A    between atoms: C_11  and  C_12 
REMARK    4  A    between atoms: C_12  and  O_13 
REMARK    5  A    between atoms: O_13  and  C_14 
ROOT
HETATM    1  N   UNL     1      -5.172   1.818 -31.863  1.00  0.00    -0.246 N 
HETATM    2  C   UNL     1      -5.628   2.440 -30.705  1.00  0.00     0.261 C 
HETATM    3  O   UNL     1      -6.477   1.992 -29.933  1.00  0.00    -0.269 OA
HETATM    4  H   UNL     1      -4.693   2.413 -32.536  1.00  0.00     0.192 HD
ENDROOT
BRANCH   1   5
HETATM    5  N   UNL     1      -5.691   0.658 -32.397  1.00  0.00    -0.184 NA
HETATM    6  C   UNL     1      -5.006   0.063 -33.323  1.00  0.00     0.153 C 
BRANCH   6   7
HETATM    7  C   UNL     1      -5.453  -1.196 -33.894  1.00  0.00     0.018 A 
HETATM    8  C   UNL     1      -6.595  -1.312 -34.680  1.00  0.00     0.018 A 
HETATM    9  C   UNL     1      -7.572  -0.287 -35.133  1.00  0.00     0.069 C 
HETATM   10  N   UNL     1      -6.721  -2.628 -35.045  1.00  0.00    -0.358 N 
HETATM   11  H   UNL     1      -7.459  -3.005 -35.623  1.00  0.00     0.166 HD
HETATM   12  C   UNL     1      -5.694  -3.376 -34.522  1.00  0.00     0.043 A 
HETATM   13  C   UNL     1      -4.877  -2.506 -33.798  1.00  0.00     0.004 A 
HETATM   14  C   UNL     1      -5.435  -4.747 -34.641  1.00  0.00     0.030 A 
HETATM   15  C   UNL     1      -3.739  -3.047 -33.162  1.00  0.00     0.014 A 
HETATM   16  C   UNL     1      -3.463  -4.416 -33.270  1.00  0.00     0.001 A 
HETATM   17  C   UNL     1      -4.303  -5.252 -33.999  1.00  0.00     0.002 A 
ENDBRANCH   6   7
ENDBRANCH   1   5
BRANCH   2  18
HETATM   18  C   UNL     1      -4.920   3.757 -30.399  1.00  0.00     0.280 C 
BRANCH  18  19
HETATM   19  O   UNL     1      -3.860   4.043 -31.318  1.00  0.00    -0.341 OA
BRANCH  19  20
HETATM   20  C   UNL     1      -3.530   5.378 -31.221  1.00  0.00     0.080 A 
HETATM   21  C   UNL     1      -2.184   5.808 -31.203  1.00  0.00     0.009 A 
HETATM   22  C   UNL     1      -1.908   7.188 -31.007  1.00  0.00    -0.006 A 
HETATM   23  C   UNL     1      -1.107   4.909 -31.370  1.00  0.00     0.015 A 
HETATM   24  C   UNL     1      -0.550   7.589 -30.945  1.00  0.00     0.014 A 
HETATM   25  C   UNL     1      -3.006   8.081 -30.884  1.00  0.00     0.022 A 
HETATM   26  C   UNL     1       0.497   6.675 -31.090  1.00  0.00     0.001 A 
HETATM   27  C   UNL     1       0.218   5.336 -31.312  1.00  0.00     0.001 A 
HETATM   28 BR   UNL     1      -2.776   9.955 -30.608  1.00  0.00    -0.050 Br
HETATM   29  C   UNL     1      -4.328   7.631 -30.962  1.00  0.00     0.023 A 
HETATM   30  C   UNL     1      -4.591   6.279 -31.137  1.00  0.00     0.039 A 
ENDBRANCH  19  20
ENDBRANCH  18  19
ENDBRANCH   2  18
TORSDOF 5
ENDMDL
MODEL 8
REMARK VINA RESULT:      -8.4      3.158      7.370
REMARK  5 active torsions:
REMARK  status: ('A' for Active; 'I' for Inactive)
REMARK    1  A    between atoms: C_7  and  C_8 
REMARK    2  A    between atoms: N_9  and  N_10 
REMARK       I    between atoms: N_10  and  C_11 
REMARK    3  A    between atoms: C_11  and  C_12 
REMARK    4  A    between atoms: C_12  and  O_13 
REMARK    5  A    between atoms: O_13  and  C_14 
ROOT
HETATM    1  N   UNL     1      -5.924   2.436 -33.029  1.00  0.00    -0.246 N 
HETATM    2  C   UNL     1      -5.783   3.421 -32.057  1.00  0.00     0.261 C 
HETATM    3  O   UNL     1      -4.898   3.469 -31.203  1.00  0.00    -0.269 OA
HETATM    4  H   UNL     1      -6.836   2.368 -33.476  1.00  0.00     0.192 HD
ENDROOT
BRANCH   1   5
HETATM    5  N   UNL     1      -5.165   1.288 -33.110  1.00  0.00    -0.184 NA
HETATM    6  C   UNL     1      -5.764   0.155 -32.913  1.00  0.00     0.153 C 
BRANCH   6   7
HETATM    7  C   UNL     1      -5.049  -1.104 -33.041  1.00  0.00     0.018 A 
HETATM    8  C   UNL     1      -3.831  -1.354 -32.416  1.00  0.00     0.018 A 
HETATM    9  C   UNL     1      -3.007  -0.504 -31.516  1.00  0.00     0.069 C 
HETATM   10  N   UNL     1      -3.442  -2.625 -32.751  1.00  0.00    -0.358 N 
HETATM   11  H   UNL     1      -2.595  -3.078 -32.436  1.00  0.00     0.166 HD
HETATM   12  C   UNL     1      -4.369  -3.215 -33.575  1.00  0.00     0.043 A 
HETATM   13  C   UNL     1      -5.394  -2.288 -33.772  1.00  0.00     0.004 A 
HETATM   14  C   UNL     1      -4.372  -4.491 -34.151  1.00  0.00     0.030 A 
HETATM   15  C   UNL     1      -6.479  -2.668 -34.592  1.00  0.00     0.014 A 
HETATM   16  C   UNL     1      -6.499  -3.941 -35.176  1.00  0.00     0.001 A 
HETATM   17  C   UNL     1      -5.457  -4.838 -34.957  1.00  0.00     0.002 A 
ENDBRANCH   6   7
ENDBRANCH   1   5
BRANCH   2  18
HETATM   18  C   UNL     1      -6.817   4.539 -32.166  1.00  0.00     0.280 C 
BRANCH  18  19
HETATM   19  O   UNL     1      -8.018   4.255 -31.439  1.00  0.00    -0.341 OA
BRANCH  19  20
HETATM   20  C   UNL     1      -9.021   3.947 -32.333  1.00  0.00     0.080 A 
HETATM   21  C   UNL     1      -9.476   2.620 -32.507  1.00  0.00     0.009 A 
HETATM   22  C   UNL     1     -10.446   2.353 -33.510  1.00  0.00    -0.006 A 
HETATM   23  C   UNL     1      -8.994   1.552 -31.717  1.00  0.00     0.015 A 
HETATM   24  C   UNL     1     -10.851   1.008 -33.697  1.00  0.00     0.014 A 
HETATM   25  C   UNL     1     -10.948   3.447 -34.264  1.00  0.00     0.022 A 
HETATM   26  C   UNL     1     -10.341  -0.033 -32.917  1.00  0.00     0.001 A 
HETATM   27  C   UNL     1      -9.419   0.241 -31.920  1.00  0.00     0.001 A 
HETATM   28 BR   UNL     1     -12.245   3.227 -35.646  1.00  0.00    -0.050 Br
HETATM   29  C   UNL     1     -10.519   4.757 -34.029  1.00  0.00     0.023 A 
HETATM   30  C   UNL     1      -9.558   5.009 -33.060  1.00  0.00     0.039 A 
ENDBRANCH  19  20
ENDBRANCH  18  19
ENDBRANCH   2  18
TORSDOF 5
ENDMDL
MODEL 9
REMARK VINA RESULT:      -8.3      6.577     10.511
REMARK  5 active torsions:
REMARK  status: ('A' for Active; 'I' for Inactive)
REMARK    1  A    between atoms: C_7  and  C_8 
REMARK    2  A    between atoms: N_9  and  N_10 
REMARK       I    between atoms: N_10  and  C_11 
REMARK    3  A    between atoms: C_11  and  C_12 
REMARK    4  A    between atoms: C_12  and  O_13 
REMARK    5  A    between atoms: O_13  and  C_14 
ROOT
HETATM    1  N   UNL     1      -2.233   6.035 -30.822  1.00  0.00    -0.246 N 
HETATM    2  C   UNL     1      -1.722   4.834 -31.304  1.00  0.00     0.261 C 
HETATM    3  O   UNL     1      -0.580   4.412 -31.120  1.00  0.00    -0.269 OA
HETATM    4  H   UNL     1      -3.076   6.382 -31.275  1.00  0.00     0.192 HD
ENDROOT
BRANCH   1   5
HETATM    5  N   UNL     1      -1.501   7.001 -30.166  1.00  0.00    -0.184 NA
HETATM    6  C   UNL     1      -2.081   7.643 -29.200  1.00  0.00     0.153 C 
BRANCH   6   7
HETATM    7  C   UNL     1      -1.361   8.634 -28.418  1.00  0.00     0.018 A 
HETATM    8  C   UNL     1      -1.747   9.968 -28.339  1.00  0.00     0.018 A 
HETATM    9  C   UNL     1      -2.898  10.685 -28.949  1.00  0.00     0.069 C 
HETATM   10  N   UNL     1      -0.851  10.617 -27.529  1.00  0.00    -0.358 N 
HETATM   11  H   UNL     1      -0.886  11.598 -27.288  1.00  0.00     0.166 HD
HETATM   12  C   UNL     1       0.109   9.746 -27.073  1.00  0.00     0.043 A 
HETATM   13  C   UNL     1      -0.185   8.491 -27.609  1.00  0.00     0.004 A 
HETATM   14  C   UNL     1       1.203   9.981 -26.232  1.00  0.00     0.030 A 
HETATM   15  C   UNL     1       0.668   7.416 -27.278  1.00  0.00     0.014 A 
HETATM   16  C   UNL     1       1.768   7.631 -26.438  1.00  0.00     0.001 A 
HETATM   17  C   UNL     1       2.029   8.898 -25.924  1.00  0.00     0.002 A 
ENDBRANCH   6   7
ENDBRANCH   1   5
BRANCH   2  18
HETATM   18  C   UNL     1      -2.746   3.996 -32.064  1.00  0.00     0.280 C 
BRANCH  18  19
HETATM   19  O   UNL     1      -2.954   2.707 -31.476  1.00  0.00    -0.341 OA
BRANCH  19  20
HETATM   20  C   UNL     1      -3.947   2.051 -32.171  1.00  0.00     0.080 A 
HETATM   21  C   UNL     1      -3.941   0.646 -32.320  1.00  0.00     0.009 A 
HETATM   22  C   UNL     1      -4.940   0.038 -33.127  1.00  0.00    -0.006 A 
HETATM   23  C   UNL     1      -2.971  -0.171 -31.696  1.00  0.00     0.015 A 
HETATM   24  C   UNL     1      -4.886  -1.368 -33.301  1.00  0.00     0.014 A 
HETATM   25  C   UNL     1      -5.930   0.873 -33.711  1.00  0.00     0.022 A 
HETATM   26  C   UNL     1      -3.902  -2.150 -32.691  1.00  0.00     0.001 A 
HETATM   27  C   UNL     1      -2.950  -1.552 -31.881  1.00  0.00     0.001 A 
HETATM   28 BR   UNL     1      -7.322   0.187 -34.822  1.00  0.00    -0.050 Br
HETATM   29  C   UNL     1      -5.942   2.255 -33.497  1.00  0.00     0.023 A 
HETATM   30  C   UNL     1      -4.952   2.845 -32.722  1.00  0.00     0.039 A 
ENDBRANCH  19  20
ENDBRANCH  18  19
ENDBRANCH   2  18
TORSDOF 5
ENDMDL
MODEL 10
REMARK VINA RESULT:      -8.2      5.230      8.042
REMARK  5 active torsions:
REMARK  status: ('A' for Active; 'I' for Inactive)
REMARK    1  A    between atoms: C_7  and  C_8 
REMARK    2  A    between atoms: N_9  and  N_10 
REMARK       I    between atoms: N_10  and  C_11 
REMARK    3  A    between atoms: C_11  and  C_12 
REMARK    4  A    between atoms: C_12  and  O_13 
REMARK    5  A    between atoms: O_13  and  C_14 
ROOT
HETATM    1  N   UNL     1      -4.917   4.233 -32.734  1.00  0.00    -0.246 N 
HETATM    2  C   UNL     1      -4.422   5.411 -33.282  1.00  0.00     0.261 C 
HETATM    3  O   UNL     1      -4.400   5.695 -34.480  1.00  0.00    -0.269 OA
HETATM    4  H   UNL     1      -4.620   4.016 -31.784  1.00  0.00     0.192 HD
ENDROOT
BRANCH   1   5
HETATM    5  N   UNL     1      -5.347   3.141 -33.457  1.00  0.00    -0.184 NA
HETATM    6  C   UNL     1      -5.918   2.175 -32.807  1.00  0.00     0.153 C 
BRANCH   6   7
HETATM    7  C   UNL     1      -6.455   1.017 -33.502  1.00  0.00     0.018 A 
HETATM    8  C   UNL     1      -7.715   1.000 -34.090  1.00  0.00     0.018 A 
HETATM    9  C   UNL     1      -8.758   2.055 -34.186  1.00  0.00     0.069 C 
HETATM   10  N   UNL     1      -7.901  -0.239 -34.648  1.00  0.00    -0.358 N 
HETATM   11  H   UNL     1      -8.727  -0.536 -35.148  1.00  0.00     0.166 HD
HETATM   12  C   UNL     1      -6.797  -1.032 -34.445  1.00  0.00     0.043 A 
HETATM   13  C   UNL     1      -5.868  -0.271 -33.732  1.00  0.00     0.004 A 
HETATM   14  C   UNL     1      -6.561  -2.354 -34.840  1.00  0.00     0.030 A 
HETATM   15  C   UNL     1      -4.636  -0.876 -33.401  1.00  0.00     0.014 A 
HETATM   16  C   UNL     1      -4.381  -2.198 -33.788  1.00  0.00     0.001 A 
HETATM   17  C   UNL     1      -5.334  -2.924 -34.497  1.00  0.00     0.002 A 
ENDBRANCH   6   7
ENDBRANCH   1   5
BRANCH   2  18
HETATM   18  C   UNL     1      -3.940   6.416 -32.239  1.00  0.00     0.280 C 
BRANCH  18  19
HETATM   19  O   UNL     1      -2.623   6.908 -32.510  1.00  0.00    -0.341 OA
BRANCH  19  20
HETATM   20  C   UNL     1      -2.131   7.521 -31.377  1.00  0.00     0.080 A 
HETATM   21  C   UNL     1      -1.173   6.889 -30.551  1.00  0.00     0.009 A 
HETATM   22  C   UNL     1      -0.776   7.531 -29.348  1.00  0.00    -0.006 A 
HETATM   23  C   UNL     1      -0.603   5.640 -30.884  1.00  0.00     0.015 A 
HETATM   24  C   UNL     1       0.150   6.858 -28.513  1.00  0.00     0.014 A 
HETATM   25  C   UNL     1      -1.329   8.806 -29.054  1.00  0.00     0.022 A 
HETATM   26  C   UNL     1       0.682   5.612 -28.855  1.00  0.00     0.001 A 
HETATM   27  C   UNL     1       0.312   5.007 -30.045  1.00  0.00     0.001 A 
HETATM   28 BR   UNL     1      -0.888   9.773 -27.469  1.00  0.00    -0.050 Br
HETATM   29  C   UNL     1      -2.233   9.430 -29.920  1.00  0.00     0.023 A 
HETATM   30  C   UNL     1      -2.631   8.790 -31.086  1.00  0.00     0.039 A 
ENDBRANCH  19  20
ENDBRANCH  18  19
ENDBRANCH   2  18
TORSDOF 5
ENDMDL
