MODEL 1
REMARK VINA RESULT:      -8.9      0.000      0.000
REMARK  5 active torsions:
REMARK  status: ('A' for Active; 'I' for Inactive)
REMARK    1  A    between atoms: C_7  and  C_8 
REMARK    2  A    between atoms: N_9  and  N_10 
REMARK       I    between atoms: N_10  and  C_11 
REMARK    3  A    between atoms: C_11  and  C_12 
REMARK    4  A    between atoms: C_12  and  N_13 
REMARK       I    between atoms: N_13  and  C_14 
REMARK    5  A    between atoms: C_14  and  C_15 
ROOT
HETATM    1  N   UNL     1      -8.196   1.690 -31.996  1.00  0.00    -0.246 N 
HETATM    2  C   UNL     1      -8.278   2.600 -30.953  1.00  0.00     0.255 C 
HETATM    3  O   UNL     1      -7.481   2.706 -30.023  1.00  0.00    -0.270 OA
HETATM    4  H   UNL     1      -8.872   1.752 -32.764  1.00  0.00     0.192 HD
ENDROOT
BRANCH   1   5
HETATM    5  N   UNL     1      -7.202   0.757 -32.025  1.00  0.00    -0.184 NA
HETATM    6  C   UNL     1      -6.732   0.484 -33.200  1.00  0.00     0.153 C 
BRANCH   6   7
HETATM    7  C   UNL     1      -5.691  -0.516 -33.359  1.00  0.00     0.018 A 
HETATM    8  C   UNL     1      -4.351  -0.393 -33.009  1.00  0.00     0.018 A 
HETATM    9  C   UNL     1      -3.598   0.737 -32.401  1.00  0.00     0.069 C 
HETATM   10  N   UNL     1      -3.727  -1.575 -33.322  1.00  0.00    -0.358 N 
HETATM   11  H   UNL     1      -2.747  -1.769 -33.171  1.00  0.00     0.166 HD
HETATM   12  C   UNL     1      -4.621  -2.468 -33.861  1.00  0.00     0.043 A 
HETATM   13  C   UNL     1      -5.862  -1.834 -33.901  1.00  0.00     0.004 A 
HETATM   14  C   UNL     1      -4.419  -3.779 -34.310  1.00  0.00     0.030 A 
HETATM   15  C   UNL     1      -6.961  -2.554 -34.418  1.00  0.00     0.014 A 
HETATM   16  C   UNL     1      -6.778  -3.866 -34.872  1.00  0.00     0.001 A 
HETATM   17  C   UNL     1      -5.524  -4.468 -34.816  1.00  0.00     0.002 A 
ENDBRANCH   6   7
ENDBRANCH   1   5
BRANCH   2  18
HETATM   18  C   UNL     1      -9.531   3.472 -31.035  1.00  0.00     0.227 C 
BRANCH  18  19
HETATM   19  N   UNL     1     -10.675   2.787 -31.615  1.00  0.00    -0.348 N 
HETATM   20  C   UNL     1     -11.461   3.382 -32.575  1.00  0.00     0.252 C 
HETATM   21  O   UNL     1     -11.311   4.550 -32.921  1.00  0.00    -0.268 OA
HETATM   22  H   UNL     1     -10.987   1.936 -31.165  1.00  0.00     0.163 HD
BRANCH  20  23
HETATM   23  C   UNL     1     -12.556   2.549 -33.138  1.00  0.00     0.032 A 
HETATM   24  C   UNL     1     -13.830   2.631 -32.559  1.00  0.00     0.020 A 
HETATM   25  C   UNL     1     -14.882   1.874 -33.077  1.00  0.00     0.043 A 
HETATM   26  C   UNL     1     -14.659   1.051 -34.176  1.00  0.00     0.116 A 
HETATM   27  F   UNL     1     -15.670   0.330 -34.677  1.00  0.00    -0.206 F 
HETATM   28  C   UNL     1     -13.403   0.972 -34.770  1.00  0.00     0.043 A 
HETATM   29  C   UNL     1     -12.346   1.724 -34.253  1.00  0.00     0.020 A 
ENDBRANCH  20  23
ENDBRANCH  18  19
ENDBRANCH   2  18
TORSDOF 5
ENDMDL
MODEL 2
REMARK VINA RESULT:      -8.8      5.524      8.050
REMARK  5 active torsions:
REMARK  status: ('A' for Active; 'I' for Inactive)
REMARK    1  A    between atoms: C_7  and  C_8 
REMARK    2  A    between atoms: N_9  and  N_10 
REMARK       I    between atoms: N_10  and  C_11 
REMARK    3  A    between atoms: C_11  and  C_12 
REMARK    4  A    between atoms: C_12  and  N_13 
REMARK       I    between atoms: N_13  and  C_14 
REMARK    5  A    between atoms: C_14  and  C_15 
ROOT
HETATM    1  N   UNL     1      -6.077   2.280 -31.797  1.00  0.00    -0.246 N 
HETATM    2  C   UNL     1      -5.888   2.356 -30.425  1.00  0.00     0.255 C 
HETATM    3  O   UNL     1      -5.854   1.405 -29.647  1.00  0.00    -0.270 OA
HETATM    4  H   UNL     1      -6.000   3.134 -32.357  1.00  0.00     0.192 HD
ENDROOT
BRANCH   1   5
HETATM    5  N   UNL     1      -6.315   1.080 -32.398  1.00  0.00    -0.184 NA
HETATM    6  C   UNL     1      -5.284   0.517 -32.941  1.00  0.00     0.153 C 
BRANCH   6   7
HETATM    7  C   UNL     1      -5.420  -0.751 -33.635  1.00  0.00     0.018 A 
HETATM    8  C   UNL     1      -6.274  -1.039 -34.693  1.00  0.00     0.018 A 
HETATM    9  C   UNL     1      -7.267  -0.193 -35.409  1.00  0.00     0.069 C 
HETATM   10  N   UNL     1      -6.070  -2.349 -35.050  1.00  0.00    -0.358 N 
HETATM   11  H   UNL     1      -6.556  -2.828 -35.796  1.00  0.00     0.166 HD
HETATM   12  C   UNL     1      -5.106  -2.924 -34.259  1.00  0.00     0.043 A 
HETATM   13  C   UNL     1      -4.678  -1.949 -33.359  1.00  0.00     0.004 A 
HETATM   14  C   UNL     1      -4.585  -4.224 -34.279  1.00  0.00     0.030 A 
HETATM   15  C   UNL     1      -3.675  -2.297 -32.428  1.00  0.00     0.014 A 
HETATM   16  C   UNL     1      -3.143  -3.592 -32.432  1.00  0.00     0.001 A 
HETATM   17  C   UNL     1      -3.594  -4.540 -33.347  1.00  0.00     0.002 A 
ENDBRANCH   6   7
ENDBRANCH   1   5
BRANCH   2  18
HETATM   18  C   UNL     1      -5.768   3.798 -29.931  1.00  0.00     0.227 C 
BRANCH  18  19
HETATM   19  N   UNL     1      -4.434   4.355 -30.093  1.00  0.00    -0.348 N 
HETATM   20  C   UNL     1      -4.068   5.030 -31.235  1.00  0.00     0.252 C 
HETATM   21  O   UNL     1      -4.800   5.113 -32.217  1.00  0.00    -0.268 OA
HETATM   22  H   UNL     1      -3.727   4.074 -29.425  1.00  0.00     0.163 HD
BRANCH  20  23
HETATM   23  C   UNL     1      -2.700   5.610 -31.246  1.00  0.00     0.032 A 
HETATM   24  C   UNL     1      -1.642   4.832 -31.734  1.00  0.00     0.020 A 
HETATM   25  C   UNL     1      -0.349   5.357 -31.773  1.00  0.00     0.043 A 
HETATM   26  C   UNL     1      -0.124   6.659 -31.337  1.00  0.00     0.116 A 
HETATM   27  F   UNL     1       1.116   7.164 -31.382  1.00  0.00    -0.206 F 
HETATM   28  C   UNL     1      -1.167   7.448 -30.864  1.00  0.00     0.043 A 
HETATM   29  C   UNL     1      -2.462   6.926 -30.819  1.00  0.00     0.020 A 
ENDBRANCH  20  23
ENDBRANCH  18  19
ENDBRANCH   2  18
TORSDOF 5
ENDMDL
MODEL 3
REMARK VINA RESULT:      -8.7      4.826      8.239
REMARK  5 active torsions:
REMARK  status: ('A' for Active; 'I' for Inactive)
REMARK    1  A    between atoms: C_7  and  C_8 
REMARK    2  A    between atoms: N_9  and  N_10 
REMARK       I    between atoms: N_10  and  C_11 
REMARK    3  A    between atoms: C_11  and  C_12 
REMARK    4  A    between atoms: C_12  and  N_13 
REMARK       I    between atoms: N_13  and  C_14 
REMARK    5  A    between atoms: C_14  and  C_15 
ROOT
HETATM    1  N   UNL     1      -5.567   2.578 -32.128  1.00  0.00    -0.246 N 
HETATM    2  C   UNL     1      -6.804   2.332 -32.705  1.00  0.00     0.255 C 
HETATM    3  O   UNL     1      -7.341   3.009 -33.580  1.00  0.00    -0.270 OA
HETATM    4  H   UNL     1      -5.182   1.894 -31.469  1.00  0.00     0.192 HD
ENDROOT
BRANCH   1   5
HETATM    5  N   UNL     1      -4.852   3.686 -32.469  1.00  0.00    -0.184 NA
HETATM    6  C   UNL     1      -3.578   3.505 -32.605  1.00  0.00     0.153 C 
BRANCH   6   7
HETATM    7  C   UNL     1      -2.709   4.620 -32.938  1.00  0.00     0.018 A 
HETATM    8  C   UNL     1      -2.737   5.386 -34.097  1.00  0.00     0.018 A 
HETATM    9  C   UNL     1      -3.610   5.312 -35.299  1.00  0.00     0.069 C 
HETATM   10  N   UNL     1      -1.752   6.337 -33.993  1.00  0.00    -0.358 N 
HETATM   11  H   UNL     1      -1.547   7.036 -34.694  1.00  0.00     0.166 HD
HETATM   12  C   UNL     1      -1.085   6.217 -32.799  1.00  0.00     0.043 A 
HETATM   13  C   UNL     1      -1.658   5.147 -32.113  1.00  0.00     0.004 A 
HETATM   14  C   UNL     1      -0.026   6.974 -32.282  1.00  0.00     0.030 A 
HETATM   15  C   UNL     1      -1.143   4.818 -30.840  1.00  0.00     0.014 A 
HETATM   16  C   UNL     1      -0.084   5.564 -30.308  1.00  0.00     0.001 A 
HETATM   17  C   UNL     1       0.464   6.626 -31.021  1.00  0.00     0.002 A 
ENDBRANCH   6   7
ENDBRANCH   1   5
BRANCH   2  18
HETATM   18  C   UNL     1      -7.502   1.115 -32.097  1.00  0.00     0.227 C 
BRANCH  18  19
HETATM   19  N   UNL     1      -6.898  -0.150 -32.484  1.00  0.00    -0.348 N 
HETATM   20  C   UNL     1      -7.132  -0.714 -33.717  1.00  0.00     0.252 C 
HETATM   21  O   UNL     1      -7.936  -0.243 -34.518  1.00  0.00    -0.268 OA
HETATM   22  H   UNL     1      -6.451  -0.696 -31.758  1.00  0.00     0.163 HD
BRANCH  20  23
HETATM   23  C   UNL     1      -6.400  -1.973 -34.016  1.00  0.00     0.032 A 
HETATM   24  C   UNL     1      -7.119  -3.067 -34.517  1.00  0.00     0.020 A 
HETATM   25  C   UNL     1      -6.455  -4.256 -34.823  1.00  0.00     0.043 A 
HETATM   26  C   UNL     1      -5.079  -4.342 -34.638  1.00  0.00     0.116 A 
HETATM   27  F   UNL     1      -4.442  -5.481 -34.938  1.00  0.00    -0.206 F 
HETATM   28  C   UNL     1      -4.352  -3.259 -34.155  1.00  0.00     0.043 A 
HETATM   29  C   UNL     1      -5.011  -2.067 -33.844  1.00  0.00     0.020 A 
ENDBRANCH  20  23
ENDBRANCH  18  19
ENDBRANCH   2  18
TORSDOF 5
ENDMDL
MODEL 4
REMARK VINA RESULT:      -8.6      4.376      7.837
REMARK  5 active torsions:
REMARK  status: ('A' for Active; 'I' for Inactive)
REMARK    1  A    between atoms: C_7  and  C_8 
REMARK    2  A    between atoms: N_9  and  N_10 
REMARK       I    between atoms: N_10  and  C_11 
REMARK    3  A    between atoms: C_11  and  C_12 
REMARK    4  A    between atoms: C_12  and  N_13 
REMARK       I    between atoms: N_13  and  C_14 
REMARK    5  A    between atoms: C_14  and  C_15 
ROOT
HETATM    1  N   UNL     1      -7.327   2.505 -33.569  1.00  0.00    -0.246 N 
HETATM    2  C   UNL     1      -8.121   1.686 -32.779  1.00  0.00     0.255 C 
HETATM    3  O   UNL     1      -8.270   1.781 -31.562  1.00  0.00    -0.270 OA
HETATM    4  H   UNL     1      -7.349   2.386 -34.586  1.00  0.00     0.192 HD
ENDROOT
BRANCH   1   5
HETATM    5  N   UNL     1      -6.568   3.486 -33.005  1.00  0.00    -0.184 NA
HETATM    6  C   UNL     1      -5.319   3.192 -32.833  1.00  0.00     0.153 C 
BRANCH   6   7
HETATM    7  C   UNL     1      -4.418   4.148 -32.215  1.00  0.00     0.018 A 
HETATM    8  C   UNL     1      -4.455   4.607 -30.903  1.00  0.00     0.018 A 
HETATM    9  C   UNL     1      -5.378   4.289 -29.780  1.00  0.00     0.069 C 
HETATM   10  N   UNL     1      -3.417   5.489 -30.740  1.00  0.00    -0.358 N 
HETATM   11  H   UNL     1      -3.200   5.976 -29.880  1.00  0.00     0.166 HD
HETATM   12  C   UNL     1      -2.699   5.617 -31.904  1.00  0.00     0.043 A 
HETATM   13  C   UNL     1      -3.303   4.790 -32.851  1.00  0.00     0.004 A 
HETATM   14  C   UNL     1      -1.570   6.397 -32.182  1.00  0.00     0.030 A 
HETATM   15  C   UNL     1      -2.743   4.742 -34.146  1.00  0.00     0.014 A 
HETATM   16  C   UNL     1      -1.613   5.515 -34.442  1.00  0.00     0.001 A 
HETATM   17  C   UNL     1      -1.037   6.330 -33.471  1.00  0.00     0.002 A 
ENDBRANCH   6   7
ENDBRANCH   1   5
BRANCH   2  18
HETATM   18  C   UNL     1      -8.789   0.570 -33.582  1.00  0.00     0.227 C 
BRANCH  18  19
HETATM   19  N   UNL     1      -8.008  -0.656 -33.629  1.00  0.00    -0.348 N 
HETATM   20  C   UNL     1      -7.052  -0.866 -34.596  1.00  0.00     0.252 C 
HETATM   21  O   UNL     1      -6.874  -0.087 -35.529  1.00  0.00    -0.268 OA
HETATM   22  H   UNL     1      -8.312  -1.426 -33.046  1.00  0.00     0.163 HD
BRANCH  20  23
HETATM   23  C   UNL     1      -6.275  -2.128 -34.492  1.00  0.00     0.032 A 
HETATM   24  C   UNL     1      -6.894  -3.332 -34.853  1.00  0.00     0.020 A 
HETATM   25  C   UNL     1      -6.184  -4.532 -34.781  1.00  0.00     0.043 A 
HETATM   26  C   UNL     1      -4.857  -4.519 -34.362  1.00  0.00     0.116 A 
HETATM   27  F   UNL     1      -4.174  -5.669 -34.300  1.00  0.00    -0.206 F 
HETATM   28  C   UNL     1      -4.226  -3.329 -34.015  1.00  0.00     0.043 A 
HETATM   29  C   UNL     1      -4.933  -2.127 -34.081  1.00  0.00     0.020 A 
ENDBRANCH  20  23
ENDBRANCH  18  19
ENDBRANCH   2  18
TORSDOF 5
ENDMDL
MODEL 5
REMARK VINA RESULT:      -8.4      3.094      8.279
REMARK  5 active torsions:
REMARK  status: ('A' for Active; 'I' for Inactive)
REMARK    1  A    between atoms: C_7  and  C_8 
REMARK    2  A    between atoms: N_9  and  N_10 
REMARK       I    between atoms: N_10  and  C_11 
REMARK    3  A    between atoms: C_11  and  C_12 
REMARK    4  A    between atoms: C_12  and  N_13 
REMARK       I    between atoms: N_13  and  C_14 
REMARK    5  A    between atoms: C_14  and  C_15 
ROOT
HETATM    1  N   UNL     1      -8.654   1.113 -31.685  1.00  0.00    -0.246 N 
HETATM    2  C   UNL     1      -7.536   1.769 -31.190  1.00  0.00     0.255 C 
HETATM    3  O   UNL     1      -7.405   2.986 -31.072  1.00  0.00    -0.270 OA
HETATM    4  H   UNL     1      -8.683   0.089 -31.655  1.00  0.00     0.192 HD
ENDROOT
BRANCH   1   5
HETATM    5  N   UNL     1      -9.717   1.820 -32.160  1.00  0.00    -0.184 NA
HETATM    6  C   UNL     1     -10.187   1.418 -33.297  1.00  0.00     0.153 C 
BRANCH   6   7
HETATM    7  C   UNL     1     -11.302   2.113 -33.917  1.00  0.00     0.018 A 
HETATM    8  C   UNL     1     -12.588   1.624 -34.114  1.00  0.00     0.018 A 
HETATM    9  C   UNL     1     -13.199   0.309 -33.778  1.00  0.00     0.069 C 
HETATM   10  N   UNL     1     -13.322   2.612 -34.723  1.00  0.00    -0.358 N 
HETATM   11  H   UNL     1     -14.296   2.533 -34.982  1.00  0.00     0.166 HD
HETATM   12  C   UNL     1     -12.554   3.732 -34.926  1.00  0.00     0.043 A 
HETATM   13  C   UNL     1     -11.280   3.452 -34.434  1.00  0.00     0.004 A 
HETATM   14  C   UNL     1     -12.896   4.962 -35.502  1.00  0.00     0.030 A 
HETATM   15  C   UNL     1     -10.295   4.460 -34.524  1.00  0.00     0.014 A 
HETATM   16  C   UNL     1     -10.618   5.695 -35.098  1.00  0.00     0.001 A 
HETATM   17  C   UNL     1     -11.901   5.940 -35.579  1.00  0.00     0.002 A 
ENDBRANCH   6   7
ENDBRANCH   1   5
BRANCH   2  18
HETATM   18  C   UNL     1      -6.405   0.805 -30.829  1.00  0.00     0.227 C 
BRANCH  18  19
HETATM   19  N   UNL     1      -6.367  -0.381 -31.670  1.00  0.00    -0.348 N 
HETATM   20  C   UNL     1      -5.749  -0.374 -32.899  1.00  0.00     0.252 C 
HETATM   21  O   UNL     1      -5.288   0.647 -33.402  1.00  0.00    -0.268 OA
HETATM   22  H   UNL     1      -6.964  -1.156 -31.411  1.00  0.00     0.163 HD
BRANCH  20  23
HETATM   23  C   UNL     1      -5.719  -1.669 -33.629  1.00  0.00     0.032 A 
HETATM   24  C   UNL     1      -4.502  -2.357 -33.729  1.00  0.00     0.020 A 
HETATM   25  C   UNL     1      -4.446  -3.584 -34.393  1.00  0.00     0.043 A 
HETATM   26  C   UNL     1      -5.607  -4.121 -34.941  1.00  0.00     0.116 A 
HETATM   27  F   UNL     1      -5.554  -5.301 -35.572  1.00  0.00    -0.206 F 
HETATM   28  C   UNL     1      -6.824  -3.456 -34.835  1.00  0.00     0.043 A 
HETATM   29  C   UNL     1      -6.885  -2.226 -34.176  1.00  0.00     0.020 A 
ENDBRANCH  20  23
ENDBRANCH  18  19
ENDBRANCH   2  18
TORSDOF 5
ENDMDL
MODEL 6
REMARK VINA RESULT:      -8.2      6.870      9.918
REMARK  5 active torsions:
REMARK  status: ('A' for Active; 'I' for Inactive)
REMARK    1  A    between atoms: C_7  and  C_8 
REMARK    2  A    between atoms: N_9  and  N_10 
REMARK       I    between atoms: N_10  and  C_11 
REMARK    3  A    between atoms: C_11  and  C_12 
REMARK    4  A    between atoms: C_12  and  N_13 
REMARK       I    between atoms: N_13  and  C_14 
REMARK    5  A    between atoms: C_14  and  C_15 
ROOT
HETATM    1  N   UNL     1      -3.865   4.216 -30.895  1.00  0.00    -0.246 N 
HETATM    2  C   UNL     1      -4.677   5.099 -30.199  1.00  0.00     0.255 C 
HETATM    3  O   UNL     1      -5.746   4.825 -29.658  1.00  0.00    -0.270 OA
HETATM    4  H   UNL     1      -2.952   4.539 -31.229  1.00  0.00     0.192 HD
ENDROOT
BRANCH   1   5
HETATM    5  N   UNL     1      -4.254   2.924 -31.088  1.00  0.00    -0.184 NA
HETATM    6  C   UNL     1      -4.110   2.477 -32.295  1.00  0.00     0.153 C 
BRANCH   6   7
HETATM    7  C   UNL     1      -4.517   1.123 -32.628  1.00  0.00     0.018 A 
HETATM    8  C   UNL     1      -3.949  -0.059 -32.169  1.00  0.00     0.018 A 
HETATM    9  C   UNL     1      -2.805  -0.304 -31.249  1.00  0.00     0.069 C 
HETATM   10  N   UNL     1      -4.648  -1.102 -32.725  1.00  0.00    -0.358 N 
HETATM   11  H   UNL     1      -4.453  -2.081 -32.562  1.00  0.00     0.166 HD
HETATM   12  C   UNL     1      -5.658  -0.636 -33.529  1.00  0.00     0.043 A 
HETATM   13  C   UNL     1      -5.603   0.757 -33.493  1.00  0.00     0.004 A 
HETATM   14  C   UNL     1      -6.609  -1.342 -34.277  1.00  0.00     0.030 A 
HETATM   15  C   UNL     1      -6.553   1.481 -34.246  1.00  0.00     0.014 A 
HETATM   16  C   UNL     1      -7.511   0.792 -35.000  1.00  0.00     0.001 A 
HETATM   17  C   UNL     1      -7.536  -0.600 -35.013  1.00  0.00     0.002 A 
ENDBRANCH   6   7
ENDBRANCH   1   5
BRANCH   2  18
HETATM   18  C   UNL     1      -4.128   6.526 -30.204  1.00  0.00     0.227 C 
BRANCH  18  19
HETATM   19  N   UNL     1      -3.018   6.721 -29.284  1.00  0.00    -0.348 N 
HETATM   20  C   UNL     1      -1.713   6.736 -29.720  1.00  0.00     0.252 C 
HETATM   21  O   UNL     1      -1.401   6.485 -30.881  1.00  0.00    -0.268 OA
HETATM   22  H   UNL     1      -3.217   6.661 -28.293  1.00  0.00     0.163 HD
BRANCH  20  23
HETATM   23  C   UNL     1      -0.678   7.014 -28.691  1.00  0.00     0.032 A 
HETATM   24  C   UNL     1       0.381   7.873 -29.016  1.00  0.00     0.020 A 
HETATM   25  C   UNL     1       1.359   8.166 -28.064  1.00  0.00     0.043 A 
HETATM   26  C   UNL     1       1.267   7.611 -26.792  1.00  0.00     0.116 A 
HETATM   27  F   UNL     1       2.202   7.898 -25.877  1.00  0.00    -0.206 F 
HETATM   28  C   UNL     1       0.213   6.768 -26.451  1.00  0.00     0.043 A 
HETATM   29  C   UNL     1      -0.766   6.468 -27.401  1.00  0.00     0.020 A 
ENDBRANCH  20  23
ENDBRANCH  18  19
ENDBRANCH   2  18
TORSDOF 5
ENDMDL
MODEL 7
REMARK VINA RESULT:      -8.2      5.325      8.855
REMARK  5 active torsions:
REMARK  status: ('A' for Active; 'I' for Inactive)
REMARK    1  A    between atoms: C_7  and  C_8 
REMARK    2  A    between atoms: N_9  and  N_10 
REMARK       I    between atoms: N_10  and  C_11 
REMARK    3  A    between atoms: C_11  and  C_12 
REMARK    4  A    between atoms: C_12  and  N_13 
REMARK       I    between atoms: N_13  and  C_14 
REMARK    5  A    between atoms: C_14  and  C_15 
ROOT
HETATM    1  N   UNL     1      -5.146   3.626 -33.213  1.00  0.00    -0.246 N 
HETATM    2  C   UNL     1      -6.064   2.640 -32.883  1.00  0.00     0.255 C 
HETATM    3  O   UNL     1      -6.498   2.405 -31.757  1.00  0.00    -0.270 OA
HETATM    4  H   UNL     1      -4.923   3.787 -34.201  1.00  0.00     0.192 HD
ENDROOT
BRANCH   1   5
HETATM    5  N   UNL     1      -4.584   4.402 -32.244  1.00  0.00    -0.184 NA
HETATM    6  C   UNL     1      -3.980   5.466 -32.666  1.00  0.00     0.153 C 
BRANCH   6   7
HETATM    7  C   UNL     1      -3.319   6.355 -31.727  1.00  0.00     0.018 A 
HETATM    8  C   UNL     1      -3.883   7.433 -31.054  1.00  0.00     0.018 A 
HETATM    9  C   UNL     1      -5.262   7.993 -31.083  1.00  0.00     0.069 C 
HETATM   10  N   UNL     1      -2.909   7.988 -30.262  1.00  0.00    -0.358 N 
HETATM   11  H   UNL     1      -3.040   8.787 -29.658  1.00  0.00     0.166 HD
HETATM   12  C   UNL     1      -1.726   7.302 -30.394  1.00  0.00     0.043 A 
HETATM   13  C   UNL     1      -1.948   6.272 -31.307  1.00  0.00     0.004 A 
HETATM   14  C   UNL     1      -0.489   7.517 -29.773  1.00  0.00     0.030 A 
HETATM   15  C   UNL     1      -0.872   5.411 -31.615  1.00  0.00     0.014 A 
HETATM   16  C   UNL     1       0.372   5.611 -31.005  1.00  0.00     0.001 A 
HETATM   17  C   UNL     1       0.557   6.650 -30.096  1.00  0.00     0.002 A 
ENDBRANCH   6   7
ENDBRANCH   1   5
BRANCH   2  18
HETATM   18  C   UNL     1      -6.475   1.797 -34.090  1.00  0.00     0.227 C 
BRANCH  18  19
HETATM   19  N   UNL     1      -6.029   0.415 -34.009  1.00  0.00    -0.348 N 
HETATM   20  C   UNL     1      -6.712  -0.602 -34.636  1.00  0.00     0.252 C 
HETATM   21  O   UNL     1      -7.783  -0.424 -35.209  1.00  0.00    -0.268 OA
HETATM   22  H   UNL     1      -5.311   0.196 -33.330  1.00  0.00     0.163 HD
BRANCH  20  23
HETATM   23  C   UNL     1      -6.113  -1.958 -34.534  1.00  0.00     0.032 A 
HETATM   24  C   UNL     1      -6.904  -3.070 -34.853  1.00  0.00     0.020 A 
HETATM   25  C   UNL     1      -6.364  -4.355 -34.783  1.00  0.00     0.043 A 
HETATM   26  C   UNL     1      -5.035  -4.520 -34.407  1.00  0.00     0.116 A 
HETATM   27  F   UNL     1      -4.515  -5.753 -34.347  1.00  0.00    -0.206 F 
HETATM   28  C   UNL     1      -4.233  -3.425 -34.102  1.00  0.00     0.043 A 
HETATM   29  C   UNL     1      -4.771  -2.137 -34.166  1.00  0.00     0.020 A 
ENDBRANCH  20  23
ENDBRANCH  18  19
ENDBRANCH   2  18
TORSDOF 5
ENDMDL
MODEL 8
REMARK VINA RESULT:      -8.0      5.421      8.635
REMARK  5 active torsions:
REMARK  status: ('A' for Active; 'I' for Inactive)
REMARK    1  A    between atoms: C_7  and  C_8 
REMARK    2  A    between atoms: N_9  and  N_10 
REMARK       I    between atoms: N_10  and  C_11 
REMARK    3  A    between atoms: C_11  and  C_12 
REMARK    4  A    between atoms: C_12  and  N_13 
REMARK       I    between atoms: N_13  and  C_14 
REMARK    5  A    between atoms: C_14  and  C_15 
ROOT
HETATM    1  N   UNL     1      -5.858   3.623 -34.263  1.00  0.00    -0.246 N 
HETATM    2  C   UNL     1      -7.166   3.742 -33.815  1.00  0.00     0.255 C 
HETATM    3  O   UNL     1      -7.705   4.776 -33.427  1.00  0.00    -0.270 OA
HETATM    4  H   UNL     1      -5.544   2.726 -34.645  1.00  0.00     0.192 HD
ENDROOT
BRANCH   1   5
HETATM    5  N   UNL     1      -5.018   4.696 -34.239  1.00  0.00    -0.184 NA
HETATM    6  C   UNL     1      -4.186   4.728 -33.248  1.00  0.00     0.153 C 
BRANCH   6   7
HETATM    7  C   UNL     1      -3.261   5.838 -33.102  1.00  0.00     0.018 A 
HETATM    8  C   UNL     1      -2.094   6.057 -33.824  1.00  0.00     0.018 A 
HETATM    9  C   UNL     1      -1.453   5.268 -34.911  1.00  0.00     0.069 C 
HETATM   10  N   UNL     1      -1.535   7.225 -33.370  1.00  0.00    -0.358 N 
HETATM   11  H   UNL     1      -0.678   7.631 -33.721  1.00  0.00     0.166 HD
HETATM   12  C   UNL     1      -2.304   7.778 -32.376  1.00  0.00     0.043 A 
HETATM   13  C   UNL     1      -3.394   6.932 -32.181  1.00  0.00     0.004 A 
HETATM   14  C   UNL     1      -2.114   8.958 -31.644  1.00  0.00     0.030 A 
HETATM   15  C   UNL     1      -4.346   7.286 -31.199  1.00  0.00     0.014 A 
HETATM   16  C   UNL     1      -4.172   8.462 -30.458  1.00  0.00     0.001 A 
HETATM   17  C   UNL     1      -3.071   9.284 -30.681  1.00  0.00     0.002 A 
ENDBRANCH   6   7
ENDBRANCH   1   5
BRANCH   2  18
HETATM   18  C   UNL     1      -7.902   2.402 -33.800  1.00  0.00     0.227 C 
BRANCH  18  19
HETATM   19  N   UNL     1      -7.017   1.255 -33.928  1.00  0.00    -0.348 N 
HETATM   20  C   UNL     1      -7.453  -0.024 -33.670  1.00  0.00     0.252 C 
HETATM   21  O   UNL     1      -8.570  -0.264 -33.221  1.00  0.00    -0.268 OA
HETATM   22  H   UNL     1      -6.027   1.439 -34.032  1.00  0.00     0.163 HD
BRANCH  20  23
HETATM   23  C   UNL     1      -6.470  -1.115 -33.906  1.00  0.00     0.032 A 
HETATM   24  C   UNL     1      -5.201  -1.016 -33.320  1.00  0.00     0.020 A 
HETATM   25  C   UNL     1      -4.264  -2.033 -33.510  1.00  0.00     0.043 A 
HETATM   26  C   UNL     1      -4.604  -3.146 -34.273  1.00  0.00     0.116 A 
HETATM   27  F   UNL     1      -3.707  -4.124 -34.448  1.00  0.00    -0.206 F 
HETATM   28  C   UNL     1      -5.866  -3.264 -34.847  1.00  0.00     0.043 A 
HETATM   29  C   UNL     1      -6.806  -2.247 -34.663  1.00  0.00     0.020 A 
ENDBRANCH  20  23
ENDBRANCH  18  19
ENDBRANCH   2  18
TORSDOF 5
ENDMDL
MODEL 9
REMARK VINA RESULT:      -7.7      1.482      1.911
REMARK  5 active torsions:
REMARK  status: ('A' for Active; 'I' for Inactive)
REMARK    1  A    between atoms: C_7  and  C_8 
REMARK    2  A    between atoms: N_9  and  N_10 
REMARK       I    between atoms: N_10  and  C_11 
REMARK    3  A    between atoms: C_11  and  C_12 
REMARK    4  A    between atoms: C_12  and  N_13 
REMARK       I    between atoms: N_13  and  C_14 
REMARK    5  A    between atoms: C_14  and  C_15 
ROOT
HETATM    1  N   UNL     1      -8.442   3.109 -32.659  1.00  0.00    -0.246 N 
HETATM    2  C   UNL     1      -9.121   3.523 -31.522  1.00  0.00     0.255 C 
HETATM    3  O   UNL     1      -9.032   3.018 -30.405  1.00  0.00    -0.270 OA
HETATM    4  H   UNL     1      -8.529   3.662 -33.518  1.00  0.00     0.192 HD
ENDROOT
BRANCH   1   5
HETATM    5  N   UNL     1      -7.634   2.012 -32.623  1.00  0.00    -0.184 NA
HETATM    6  C   UNL     1      -6.401   2.220 -32.959  1.00  0.00     0.153 C 
BRANCH   6   7
HETATM    7  C   UNL     1      -5.453   1.121 -32.986  1.00  0.00     0.018 A 
HETATM    8  C   UNL     1      -4.180   1.099 -32.429  1.00  0.00     0.018 A 
HETATM    9  C   UNL     1      -3.422   2.135 -31.677  1.00  0.00     0.069 C 
HETATM   10  N   UNL     1      -3.636  -0.137 -32.678  1.00  0.00    -0.358 N 
HETATM   11  H   UNL     1      -2.716  -0.434 -32.384  1.00  0.00     0.166 HD
HETATM   12  C   UNL     1      -4.518  -0.924 -33.377  1.00  0.00     0.043 A 
HETATM   13  C   UNL     1      -5.668  -0.165 -33.589  1.00  0.00     0.004 A 
HETATM   14  C   UNL     1      -4.381  -2.242 -33.830  1.00  0.00     0.030 A 
HETATM   15  C   UNL     1      -6.739  -0.759 -34.292  1.00  0.00     0.014 A 
HETATM   16  C   UNL     1      -6.619  -2.076 -34.753  1.00  0.00     0.001 A 
HETATM   17  C   UNL     1      -5.455  -2.805 -34.523  1.00  0.00     0.002 A 
ENDBRANCH   6   7
ENDBRANCH   1   5
BRANCH   2  18
HETATM   18  C   UNL     1     -10.072   4.687 -31.800  1.00  0.00     0.227 C 
BRANCH  18  19
HETATM   19  N   UNL     1     -11.476   4.311 -31.744  1.00  0.00    -0.348 N 
HETATM   20  C   UNL     1     -12.090   3.655 -32.786  1.00  0.00     0.252 C 
HETATM   21  O   UNL     1     -11.526   3.439 -33.855  1.00  0.00    -0.268 OA
HETATM   22  H   UNL     1     -12.036   4.708 -30.999  1.00  0.00     0.163 HD
BRANCH  20  23
HETATM   23  C   UNL     1     -13.509   3.266 -32.575  1.00  0.00     0.032 A 
HETATM   24  C   UNL     1     -14.383   4.196 -31.997  1.00  0.00     0.020 A 
HETATM   25  C   UNL     1     -15.725   3.864 -31.802  1.00  0.00     0.043 A 
HETATM   26  C   UNL     1     -16.187   2.613 -32.197  1.00  0.00     0.116 A 
HETATM   27  F   UNL     1     -17.477   2.299 -32.017  1.00  0.00    -0.206 F 
HETATM   28  C   UNL     1     -15.334   1.686 -32.786  1.00  0.00     0.043 A 
HETATM   29  C   UNL     1     -13.989   2.011 -32.979  1.00  0.00     0.020 A 
ENDBRANCH  20  23
ENDBRANCH  18  19
ENDBRANCH   2  18
TORSDOF 5
ENDMDL
MODEL 10
REMARK VINA RESULT:      -7.6     15.510     17.554
REMARK  5 active torsions:
REMARK  status: ('A' for Active; 'I' for Inactive)
REMARK    1  A    between atoms: C_7  and  C_8 
REMARK    2  A    between atoms: N_9  and  N_10 
REMARK       I    between atoms: N_10  and  C_11 
REMARK    3  A    between atoms: C_11  and  C_12 
REMARK    4  A    between atoms: C_12  and  N_13 
REMARK       I    between atoms: N_13  and  C_14 
REMARK    5  A    between atoms: C_14  and  C_15 
ROOT
HETATM    1  N   UNL     1      -4.596 -14.335 -34.239  1.00  0.00    -0.246 N 
HETATM    2  C   UNL     1      -5.776 -14.611 -33.563  1.00  0.00     0.255 C 
HETATM    3  O   UNL     1      -6.870 -14.830 -34.080  1.00  0.00    -0.270 OA
HETATM    4  H   UNL     1      -3.725 -14.255 -33.704  1.00  0.00     0.192 HD
ENDROOT
BRANCH   1   5
HETATM    5  N   UNL     1      -4.586 -14.219 -35.596  1.00  0.00    -0.184 NA
HETATM    6  C   UNL     1      -4.400 -13.021 -36.050  1.00  0.00     0.153 C 
BRANCH   6   7
HETATM    7  C   UNL     1      -4.398 -12.770 -37.480  1.00  0.00     0.018 A 
HETATM    8  C   UNL     1      -3.289 -12.607 -38.301  1.00  0.00     0.018 A 
HETATM    9  C   UNL     1      -1.833 -12.630 -37.996  1.00  0.00     0.069 C 
HETATM   10  N   UNL     1      -3.742 -12.402 -39.581  1.00  0.00    -0.358 N 
HETATM   11  H   UNL     1      -3.151 -12.256 -40.387  1.00  0.00     0.166 HD
HETATM   12  C   UNL     1      -5.115 -12.430 -39.620  1.00  0.00     0.043 A 
HETATM   13  C   UNL     1      -5.559 -12.657 -38.318  1.00  0.00     0.004 A 
HETATM   14  C   UNL     1      -5.985 -12.274 -40.706  1.00  0.00     0.030 A 
HETATM   15  C   UNL     1      -6.951 -12.732 -38.093  1.00  0.00     0.014 A 
HETATM   16  C   UNL     1      -7.836 -12.579 -39.167  1.00  0.00     0.001 A 
HETATM   17  C   UNL     1      -7.356 -12.353 -40.455  1.00  0.00     0.002 A 
ENDBRANCH   6   7
ENDBRANCH   1   5
BRANCH   2  18
HETATM   18  C   UNL     1      -5.603 -14.571 -32.045  1.00  0.00     0.227 C 
BRANCH  18  19
HETATM   19  N   UNL     1      -4.301 -15.040 -31.598  1.00  0.00    -0.348 N 
HETATM   20  C   UNL     1      -4.135 -15.657 -30.380  1.00  0.00     0.252 C 
HETATM   21  O   UNL     1      -5.044 -15.755 -29.559  1.00  0.00    -0.268 OA
HETATM   22  H   UNL     1      -3.490 -14.737 -32.124  1.00  0.00     0.163 HD
BRANCH  20  23
HETATM   23  C   UNL     1      -2.768 -16.153 -30.073  1.00  0.00     0.032 A 
HETATM   24  C   UNL     1      -1.836 -16.249 -31.116  1.00  0.00     0.020 A 
HETATM   25  C   UNL     1      -0.540 -16.695 -30.854  1.00  0.00     0.043 A 
HETATM   26  C   UNL     1      -0.178 -17.029 -29.553  1.00  0.00     0.116 A 
HETATM   27  F   UNL     1       1.068 -17.450 -29.302  1.00  0.00    -0.206 F 
HETATM   28  C   UNL     1      -1.088 -16.924 -28.506  1.00  0.00     0.043 A 
HETATM   29  C   UNL     1      -2.388 -16.482 -28.763  1.00  0.00     0.020 A 
ENDBRANCH  20  23
ENDBRANCH  18  19
ENDBRANCH   2  18
TORSDOF 5
ENDMDL
