MODEL 1
REMARK VINA RESULT:      -9.4      0.000      0.000
REMARK  8 active torsions:
REMARK  status: ('A' for Active; 'I' for Inactive)
REMARK    1  A    between atoms: C_5  and  C_6 
REMARK    2  A    between atoms: C_8  and  C_9 
REMARK    3  A    between atoms: C_9  and  C_10 
REMARK    4  A    between atoms: C_10  and  C_11 
REMARK       I    between atoms: C_11  and  N_12 
REMARK    5  A    between atoms: N_12  and  N_13 
REMARK       I    between atoms: N_13  and  C_14 
REMARK    6  A    between atoms: C_14  and  C_15 
REMARK    7  A    between atoms: C_15  and  O_16 
REMARK    8  A    between atoms: O_16  and  C_17 
ROOT
HETATM    1  C   UNL     1      -5.407   5.305 -33.893  1.00  0.00     0.236 C 
HETATM    2  N   UNL     1      -4.532   4.874 -34.868  1.00  0.00    -0.267 N 
HETATM    3  O   UNL     1      -5.224   6.325 -33.232  1.00  0.00    -0.272 OA
HETATM    4  H   UNL     1      -4.528   3.914 -35.210  1.00  0.00     0.190 HD
ENDROOT
BRANCH   1   5
HETATM    5  C   UNL     1      -6.632   4.430 -33.732  1.00  0.00     0.112 C 
BRANCH   5   6
HETATM    6  C   UNL     1      -6.630   3.742 -32.369  1.00  0.00     0.096 C 
BRANCH   6   7
HETATM    7  C   UNL     1      -5.754   2.541 -32.367  1.00  0.00     0.146 A 
HETATM    8  O   UNL     1      -6.252   1.434 -32.989  1.00  0.00    -0.294 OA
HETATM    9  C   UNL     1      -5.243   0.513 -32.925  1.00  0.00     0.105 A 
HETATM   10  C   UNL     1      -4.208   1.105 -32.235  1.00  0.00     0.157 A 
HETATM   11  N   UNL     1      -4.534   2.399 -31.895  1.00  0.00    -0.238 NA
BRANCH   9  12
HETATM   12  C   UNL     1      -5.486  -0.767 -33.576  1.00  0.00    -0.001 A 
HETATM   13  C   UNL     1      -4.434  -1.664 -33.818  1.00  0.00     0.015 A 
HETATM   14  C   UNL     1      -4.667  -2.907 -34.414  1.00  0.00     0.007 A 
HETATM   15  C   UNL     1      -5.959  -3.276 -34.795  1.00  0.00    -0.062 A 
HETATM   16  C   UNL     1      -6.225  -4.617 -35.411  1.00  0.00     0.048 C 
HETATM   17  C   UNL     1      -7.015  -2.389 -34.555  1.00  0.00     0.007 A 
HETATM   18  C   UNL     1      -6.780  -1.147 -33.955  1.00  0.00     0.015 A 
ENDBRANCH   9  12
ENDBRANCH   6   7
ENDBRANCH   5   6
ENDBRANCH   1   5
BRANCH   2  19
HETATM   19  N   UNL     1      -3.351   5.595 -35.058  1.00  0.00    -0.266 N 
HETATM   20  C   UNL     1      -2.223   5.208 -34.362  1.00  0.00     0.260 C 
HETATM   21  O   UNL     1      -2.184   4.193 -33.667  1.00  0.00    -0.269 OA
HETATM   22  H   UNL     1      -3.440   6.533 -35.448  1.00  0.00     0.190 HD
BRANCH  20  23
HETATM   23  C   UNL     1      -1.056   6.179 -34.486  1.00  0.00     0.280 C 
BRANCH  23  24
HETATM   24  O   UNL     1      -1.437   7.441 -33.945  1.00  0.00    -0.342 OA
BRANCH  24  25
HETATM   25  C   UNL     1      -1.313   7.574 -32.590  1.00  0.00     0.069 A 
HETATM   26  C   UNL     1      -2.151   8.332 -31.773  1.00  0.00     0.037 A 
HETATM   27  C   UNL     1      -1.911   8.405 -30.396  1.00  0.00     0.009 A 
HETATM   28  C   UNL     1      -0.826   7.732 -29.824  1.00  0.00    -0.062 A 
HETATM   29  C   UNL     1      -0.583   7.783 -28.344  1.00  0.00     0.048 C 
HETATM   30  C   UNL     1       0.010   6.970 -30.648  1.00  0.00     0.009 A 
HETATM   31  C   UNL     1      -0.228   6.903 -32.024  1.00  0.00     0.037 A 
ENDBRANCH  24  25
ENDBRANCH  23  24
ENDBRANCH  20  23
ENDBRANCH   2  19
TORSDOF 8
ENDMDL
MODEL 2
REMARK VINA RESULT:      -9.1      2.098     10.193
REMARK  8 active torsions:
REMARK  status: ('A' for Active; 'I' for Inactive)
REMARK    1  A    between atoms: C_5  and  C_6 
REMARK    2  A    between atoms: C_8  and  C_9 
REMARK    3  A    between atoms: C_9  and  C_10 
REMARK    4  A    between atoms: C_10  and  C_11 
REMARK       I    between atoms: C_11  and  N_12 
REMARK    5  A    between atoms: N_12  and  N_13 
REMARK       I    between atoms: N_13  and  C_14 
REMARK    6  A    between atoms: C_14  and  C_15 
REMARK    7  A    between atoms: C_15  and  O_16 
REMARK    8  A    between atoms: O_16  and  C_17 
ROOT
HETATM    1  C   UNL     1      -2.765   4.768 -33.735  1.00  0.00     0.236 C 
HETATM    2  N   UNL     1      -2.773   3.774 -32.779  1.00  0.00    -0.267 N 
HETATM    3  O   UNL     1      -3.747   5.048 -34.420  1.00  0.00    -0.272 OA
HETATM    4  H   UNL     1      -1.916   3.358 -32.420  1.00  0.00     0.190 HD
ENDROOT
BRANCH   1   5
HETATM    5  C   UNL     1      -1.449   5.511 -33.843  1.00  0.00     0.112 C 
BRANCH   5   6
HETATM    6  C   UNL     1      -1.341   6.579 -32.758  1.00  0.00     0.096 C 
BRANCH   6   7
HETATM    7  C   UNL     1      -0.588   6.082 -31.578  1.00  0.00     0.146 A 
HETATM    8  O   UNL     1      -0.323   7.000 -30.604  1.00  0.00    -0.294 OA
HETATM    9  C   UNL     1       0.291   6.289 -29.610  1.00  0.00     0.105 A 
HETATM   10  C   UNL     1       0.396   4.989 -30.058  1.00  0.00     0.157 A 
HETATM   11  N   UNL     1      -0.176   4.862 -31.303  1.00  0.00    -0.238 NA
BRANCH   9  12
HETATM   12  C   UNL     1       0.637   7.022 -28.401  1.00  0.00    -0.001 A 
HETATM   13  C   UNL     1       1.298   8.258 -28.470  1.00  0.00     0.015 A 
HETATM   14  C   UNL     1       1.604   8.980 -27.313  1.00  0.00     0.007 A 
HETATM   15  C   UNL     1       1.267   8.474 -26.056  1.00  0.00    -0.062 A 
HETATM   16  C   UNL     1       1.566   9.253 -24.809  1.00  0.00     0.048 C 
HETATM   17  C   UNL     1       0.606   7.243 -25.976  1.00  0.00     0.007 A 
HETATM   18  C   UNL     1       0.296   6.524 -27.136  1.00  0.00     0.015 A 
ENDBRANCH   9  12
ENDBRANCH   6   7
ENDBRANCH   5   6
ENDBRANCH   1   5
BRANCH   2  19
HETATM   19  N   UNL     1      -3.932   3.006 -32.639  1.00  0.00    -0.266 N 
HETATM   20  C   UNL     1      -3.876   1.862 -31.868  1.00  0.00     0.260 C 
HETATM   21  O   UNL     1      -2.882   1.548 -31.213  1.00  0.00    -0.269 OA
HETATM   22  H   UNL     1      -4.664   3.143 -33.336  1.00  0.00     0.190 HD
BRANCH  20  23
HETATM   23  C   UNL     1      -5.128   1.000 -31.950  1.00  0.00     0.280 C 
BRANCH  23  24
HETATM   24  O   UNL     1      -5.462   0.786 -33.318  1.00  0.00    -0.342 OA
BRANCH  24  25
HETATM   25  C   UNL     1      -5.531  -0.519 -33.722  1.00  0.00     0.069 A 
HETATM   26  C   UNL     1      -4.461  -1.413 -33.751  1.00  0.00     0.037 A 
HETATM   27  C   UNL     1      -4.653  -2.724 -34.202  1.00  0.00     0.009 A 
HETATM   28  C   UNL     1      -5.912  -3.150 -34.639  1.00  0.00    -0.062 A 
HETATM   29  C   UNL     1      -6.128  -4.563 -35.095  1.00  0.00     0.048 C 
HETATM   30  C   UNL     1      -6.982  -2.250 -34.605  1.00  0.00     0.009 A 
HETATM   31  C   UNL     1      -6.787  -0.940 -34.159  1.00  0.00     0.037 A 
ENDBRANCH  24  25
ENDBRANCH  23  24
ENDBRANCH  20  23
ENDBRANCH   2  19
TORSDOF 8
ENDMDL
MODEL 3
REMARK VINA RESULT:      -8.9      2.815      4.013
REMARK  8 active torsions:
REMARK  status: ('A' for Active; 'I' for Inactive)
REMARK    1  A    between atoms: C_5  and  C_6 
REMARK    2  A    between atoms: C_8  and  C_9 
REMARK    3  A    between atoms: C_9  and  C_10 
REMARK    4  A    between atoms: C_10  and  C_11 
REMARK       I    between atoms: C_11  and  N_12 
REMARK    5  A    between atoms: N_12  and  N_13 
REMARK       I    between atoms: N_13  and  C_14 
REMARK    6  A    between atoms: C_14  and  C_15 
REMARK    7  A    between atoms: C_15  and  O_16 
REMARK    8  A    between atoms: O_16  and  C_17 
ROOT
HETATM    1  C   UNL     1      -2.210   4.638 -32.244  1.00  0.00     0.236 C 
HETATM    2  N   UNL     1      -2.043   4.647 -30.876  1.00  0.00    -0.267 N 
HETATM    3  O   UNL     1      -1.701   5.474 -32.988  1.00  0.00    -0.272 OA
HETATM    4  H   UNL     1      -2.670   4.147 -30.248  1.00  0.00     0.190 HD
ENDROOT
BRANCH   1   5
HETATM    5  C   UNL     1      -3.050   3.486 -32.757  1.00  0.00     0.112 C 
BRANCH   5   6
HETATM    6  C   UNL     1      -3.770   2.788 -31.607  1.00  0.00     0.096 C 
BRANCH   6   7
HETATM    7  C   UNL     1      -3.564   1.317 -31.648  1.00  0.00     0.146 A 
HETATM    8  O   UNL     1      -4.391   0.618 -32.478  1.00  0.00    -0.294 OA
HETATM    9  C   UNL     1      -3.951  -0.675 -32.402  1.00  0.00     0.105 A 
HETATM   10  C   UNL     1      -2.907  -0.688 -31.502  1.00  0.00     0.157 A 
HETATM   11  N   UNL     1      -2.657   0.583 -31.037  1.00  0.00    -0.238 NA
BRANCH   9  12
HETATM   12  C   UNL     1      -4.630  -1.646 -33.248  1.00  0.00    -0.001 A 
HETATM   13  C   UNL     1      -4.000  -2.844 -33.621  1.00  0.00     0.015 A 
HETATM   14  C   UNL     1      -4.660  -3.793 -34.407  1.00  0.00     0.007 A 
HETATM   15  C   UNL     1      -5.964  -3.558 -34.851  1.00  0.00    -0.062 A 
HETATM   16  C   UNL     1      -6.691  -4.581 -35.673  1.00  0.00     0.048 C 
HETATM   17  C   UNL     1      -6.601  -2.368 -34.483  1.00  0.00     0.007 A 
HETATM   18  C   UNL     1      -5.940  -1.422 -33.692  1.00  0.00     0.015 A 
ENDBRANCH   9  12
ENDBRANCH   6   7
ENDBRANCH   5   6
ENDBRANCH   1   5
BRANCH   2  19
HETATM   19  N   UNL     1      -1.319   5.699 -30.309  1.00  0.00    -0.266 N 
HETATM   20  C   UNL     1      -0.052   5.441 -29.823  1.00  0.00     0.260 C 
HETATM   21  O   UNL     1       0.507   4.353 -29.965  1.00  0.00    -0.269 OA
HETATM   22  H   UNL     1      -1.850   6.514 -30.004  1.00  0.00     0.190 HD
BRANCH  20  23
HETATM   23  C   UNL     1       0.561   6.601 -29.049  1.00  0.00     0.280 C 
BRANCH  23  24
HETATM   24  O   UNL     1      -0.393   7.095 -28.114  1.00  0.00    -0.342 OA
BRANCH  24  25
HETATM   25  C   UNL     1       0.114   7.797 -27.056  1.00  0.00     0.069 A 
HETATM   26  C   UNL     1      -0.620   8.629 -26.212  1.00  0.00     0.037 A 
HETATM   27  C   UNL     1       0.016   9.311 -25.168  1.00  0.00     0.009 A 
HETATM   28  C   UNL     1       1.394   9.178 -24.966  1.00  0.00    -0.062 A 
HETATM   29  C   UNL     1       2.075   9.883 -23.830  1.00  0.00     0.048 C 
HETATM   30  C   UNL     1       2.126   8.340 -25.813  1.00  0.00     0.009 A 
HETATM   31  C   UNL     1       1.489   7.664 -26.858  1.00  0.00     0.037 A 
ENDBRANCH  24  25
ENDBRANCH  23  24
ENDBRANCH  20  23
ENDBRANCH   2  19
TORSDOF 8
ENDMDL
MODEL 4
REMARK VINA RESULT:      -8.8      1.999      9.944
REMARK  8 active torsions:
REMARK  status: ('A' for Active; 'I' for Inactive)
REMARK    1  A    between atoms: C_5  and  C_6 
REMARK    2  A    between atoms: C_8  and  C_9 
REMARK    3  A    between atoms: C_9  and  C_10 
REMARK    4  A    between atoms: C_10  and  C_11 
REMARK       I    between atoms: C_11  and  N_12 
REMARK    5  A    between atoms: N_12  and  N_13 
REMARK       I    between atoms: N_13  and  C_14 
REMARK    6  A    between atoms: C_14  and  C_15 
REMARK    7  A    between atoms: C_15  and  O_16 
REMARK    8  A    between atoms: O_16  and  C_17 
ROOT
HETATM    1  C   UNL     1      -3.071   5.604 -33.702  1.00  0.00     0.236 C 
HETATM    2  N   UNL     1      -4.100   5.092 -32.940  1.00  0.00    -0.267 N 
HETATM    3  O   UNL     1      -2.653   5.055 -34.720  1.00  0.00    -0.272 OA
HETATM    4  H   UNL     1      -4.256   5.378 -31.974  1.00  0.00     0.190 HD
ENDROOT
BRANCH   1   5
HETATM    5  C   UNL     1      -2.521   6.921 -33.194  1.00  0.00     0.112 C 
BRANCH   5   6
HETATM    6  C   UNL     1      -0.996   6.886 -33.139  1.00  0.00     0.096 C 
BRANCH   6   7
HETATM    7  C   UNL     1      -0.512   6.268 -31.877  1.00  0.00     0.146 A 
HETATM    8  O   UNL     1      -0.146   7.133 -30.888  1.00  0.00    -0.294 OA
HETATM    9  C   UNL     1       0.175   6.334 -29.825  1.00  0.00     0.105 A 
HETATM   10  C   UNL     1       0.019   5.030 -30.247  1.00  0.00     0.157 A 
HETATM   11  N   UNL     1      -0.430   4.996 -31.548  1.00  0.00    -0.238 NA
BRANCH   9  12
HETATM   12  C   UNL     1       0.552   7.008 -28.591  1.00  0.00    -0.001 A 
HETATM   13  C   UNL     1       0.204   6.472 -27.341  1.00  0.00     0.015 A 
HETATM   14  C   UNL     1       0.591   7.100 -26.153  1.00  0.00     0.007 A 
HETATM   15  C   UNL     1       1.324   8.289 -26.189  1.00  0.00    -0.062 A 
HETATM   16  C   UNL     1       1.767   8.957 -24.921  1.00  0.00     0.048 C 
HETATM   17  C   UNL     1       1.677   8.830 -27.431  1.00  0.00     0.007 A 
HETATM   18  C   UNL     1       1.292   8.197 -28.619  1.00  0.00     0.015 A 
ENDBRANCH   9  12
ENDBRANCH   6   7
ENDBRANCH   5   6
ENDBRANCH   1   5
BRANCH   2  19
HETATM   19  N   UNL     1      -4.639   3.857 -33.308  1.00  0.00    -0.266 N 
HETATM   20  C   UNL     1      -5.869   3.836 -33.936  1.00  0.00     0.260 C 
HETATM   21  O   UNL     1      -6.459   4.859 -34.281  1.00  0.00    -0.269 OA
HETATM   22  H   UNL     1      -4.266   3.032 -32.839  1.00  0.00     0.190 HD
BRANCH  20  23
HETATM   23  C   UNL     1      -6.450   2.439 -34.106  1.00  0.00     0.280 C 
BRANCH  23  24
HETATM   24  O   UNL     1      -5.766   1.537 -33.242  1.00  0.00    -0.342 OA
BRANCH  24  25
HETATM   25  C   UNL     1      -5.749   0.227 -33.634  1.00  0.00     0.069 A 
HETATM   26  C   UNL     1      -4.655  -0.632 -33.533  1.00  0.00     0.037 A 
HETATM   27  C   UNL     1      -4.755  -1.952 -33.985  1.00  0.00     0.009 A 
HETATM   28  C   UNL     1      -5.943  -2.424 -34.554  1.00  0.00    -0.062 A 
HETATM   29  C   UNL     1      -6.064  -3.847 -35.012  1.00  0.00     0.048 C 
HETATM   30  C   UNL     1      -7.038  -1.558 -34.650  1.00  0.00     0.009 A 
HETATM   31  C   UNL     1      -6.935  -0.239 -34.202  1.00  0.00     0.037 A 
ENDBRANCH  24  25
ENDBRANCH  23  24
ENDBRANCH  20  23
ENDBRANCH   2  19
TORSDOF 8
ENDMDL
MODEL 5
REMARK VINA RESULT:      -8.8      4.829      8.709
REMARK  8 active torsions:
REMARK  status: ('A' for Active; 'I' for Inactive)
REMARK    1  A    between atoms: C_5  and  C_6 
REMARK    2  A    between atoms: C_8  and  C_9 
REMARK    3  A    between atoms: C_9  and  C_10 
REMARK    4  A    between atoms: C_10  and  C_11 
REMARK       I    between atoms: C_11  and  N_12 
REMARK    5  A    between atoms: N_12  and  N_13 
REMARK       I    between atoms: N_13  and  C_14 
REMARK    6  A    between atoms: C_14  and  C_15 
REMARK    7  A    between atoms: C_15  and  O_16 
REMARK    8  A    between atoms: O_16  and  C_17 
ROOT
HETATM    1  C   UNL     1      -8.189   2.495 -30.645  1.00  0.00     0.236 C 
HETATM    2  N   UNL     1      -8.562   1.288 -31.199  1.00  0.00    -0.267 N 
HETATM    3  O   UNL     1      -8.947   3.460 -30.568  1.00  0.00    -0.272 OA
HETATM    4  H   UNL     1      -7.879   0.601 -31.515  1.00  0.00     0.190 HD
ENDROOT
BRANCH   1   5
HETATM    5  C   UNL     1      -6.774   2.517 -30.107  1.00  0.00     0.112 C 
BRANCH   5   6
HETATM    6  C   UNL     1      -5.798   3.011 -31.171  1.00  0.00     0.096 C 
BRANCH   6   7
HETATM    7  C   UNL     1      -4.962   1.902 -31.700  1.00  0.00     0.146 A 
HETATM    8  O   UNL     1      -5.637   0.849 -32.244  1.00  0.00    -0.294 OA
HETATM    9  C   UNL     1      -4.663   0.018 -32.724  1.00  0.00     0.105 A 
HETATM   10  C   UNL     1      -3.454   0.600 -32.408  1.00  0.00     0.157 A 
HETATM   11  N   UNL     1      -3.651   1.804 -31.769  1.00  0.00    -0.238 NA
BRANCH   9  12
HETATM   12  C   UNL     1      -5.110  -1.179 -33.421  1.00  0.00    -0.001 A 
HETATM   13  C   UNL     1      -6.453  -1.334 -33.801  1.00  0.00     0.015 A 
HETATM   14  C   UNL     1      -6.880  -2.467 -34.498  1.00  0.00     0.007 A 
HETATM   15  C   UNL     1      -5.975  -3.481 -34.820  1.00  0.00    -0.062 A 
HETATM   16  C   UNL     1      -6.417  -4.689 -35.592  1.00  0.00     0.048 C 
HETATM   17  C   UNL     1      -4.633  -3.335 -34.449  1.00  0.00     0.007 A 
HETATM   18  C   UNL     1      -4.207  -2.197 -33.754  1.00  0.00     0.015 A 
ENDBRANCH   9  12
ENDBRANCH   6   7
ENDBRANCH   5   6
ENDBRANCH   1   5
BRANCH   2  19
HETATM   19  N   UNL     1      -9.837   1.189 -31.761  1.00  0.00    -0.266 N 
HETATM   20  C   UNL     1      -9.946   1.098 -33.135  1.00  0.00     0.260 C 
HETATM   21  O   UNL     1      -8.969   0.993 -33.876  1.00  0.00    -0.269 OA
HETATM   22  H   UNL     1     -10.621   1.488 -31.183  1.00  0.00     0.190 HD
BRANCH  20  23
HETATM   23  C   UNL     1     -11.376   1.199 -33.648  1.00  0.00     0.280 C 
BRANCH  23  24
HETATM   24  O   UNL     1     -11.854   2.526 -33.445  1.00  0.00    -0.342 OA
BRANCH  24  25
HETATM   25  C   UNL     1     -13.151   2.638 -33.025  1.00  0.00     0.069 A 
HETATM   26  C   UNL     1     -13.652   3.659 -32.219  1.00  0.00     0.037 A 
HETATM   27  C   UNL     1     -14.999   3.657 -31.839  1.00  0.00     0.009 A 
HETATM   28  C   UNL     1     -15.854   2.629 -32.250  1.00  0.00    -0.062 A 
HETATM   29  C   UNL     1     -17.306   2.640 -31.870  1.00  0.00     0.048 C 
HETATM   30  C   UNL     1     -15.347   1.609 -33.061  1.00  0.00     0.009 A 
HETATM   31  C   UNL     1     -14.000   1.610 -33.435  1.00  0.00     0.037 A 
ENDBRANCH  24  25
ENDBRANCH  23  24
ENDBRANCH  20  23
ENDBRANCH   2  19
TORSDOF 8
ENDMDL
MODEL 6
REMARK VINA RESULT:      -8.7      2.443      3.898
REMARK  8 active torsions:
REMARK  status: ('A' for Active; 'I' for Inactive)
REMARK    1  A    between atoms: C_5  and  C_6 
REMARK    2  A    between atoms: C_8  and  C_9 
REMARK    3  A    between atoms: C_9  and  C_10 
REMARK    4  A    between atoms: C_10  and  C_11 
REMARK       I    between atoms: C_11  and  N_12 
REMARK    5  A    between atoms: N_12  and  N_13 
REMARK       I    between atoms: N_13  and  C_14 
REMARK    6  A    between atoms: C_14  and  C_15 
REMARK    7  A    between atoms: C_15  and  O_16 
REMARK    8  A    between atoms: O_16  and  C_17 
ROOT
HETATM    1  C   UNL     1      -2.050   4.986 -31.945  1.00  0.00     0.236 C 
HETATM    2  N   UNL     1      -2.678   5.071 -30.721  1.00  0.00    -0.267 N 
HETATM    3  O   UNL     1      -1.079   5.676 -32.250  1.00  0.00    -0.272 OA
HETATM    4  H   UNL     1      -3.623   4.722 -30.569  1.00  0.00     0.190 HD
ENDROOT
BRANCH   1   5
HETATM    5  C   UNL     1      -2.639   3.943 -32.872  1.00  0.00     0.112 C 
BRANCH   5   6
HETATM    6  C   UNL     1      -3.908   3.343 -32.273  1.00  0.00     0.096 C 
BRANCH   6   7
HETATM    7  C   UNL     1      -3.761   1.883 -32.038  1.00  0.00     0.146 A 
HETATM    8  O   UNL     1      -4.514   1.068 -32.831  1.00  0.00    -0.294 OA
HETATM    9  C   UNL     1      -4.141  -0.202 -32.483  1.00  0.00     0.105 A 
HETATM   10  C   UNL     1      -3.212  -0.080 -31.472  1.00  0.00     0.157 A 
HETATM   11  N   UNL     1      -2.964   1.248 -31.204  1.00  0.00    -0.238 NA
BRANCH   9  12
HETATM   12  C   UNL     1      -4.757  -1.290 -33.228  1.00  0.00    -0.001 A 
HETATM   13  C   UNL     1      -6.075  -1.187 -33.700  1.00  0.00     0.015 A 
HETATM   14  C   UNL     1      -6.659  -2.217 -34.443  1.00  0.00     0.007 A 
HETATM   15  C   UNL     1      -5.941  -3.383 -34.720  1.00  0.00    -0.062 A 
HETATM   16  C   UNL     1      -6.548  -4.483 -35.539  1.00  0.00     0.048 C 
HETATM   17  C   UNL     1      -4.625  -3.494 -34.256  1.00  0.00     0.007 A 
HETATM   18  C   UNL     1      -4.041  -2.460 -33.516  1.00  0.00     0.015 A 
ENDBRANCH   9  12
ENDBRANCH   6   7
ENDBRANCH   5   6
ENDBRANCH   1   5
BRANCH   2  19
HETATM   19  N   UNL     1      -2.229   6.037 -29.817  1.00  0.00    -0.266 N 
HETATM   20  C   UNL     1      -2.996   7.170 -29.628  1.00  0.00     0.260 C 
HETATM   21  O   UNL     1      -4.107   7.315 -30.138  1.00  0.00    -0.269 OA
HETATM   22  H   UNL     1      -1.240   6.017 -29.573  1.00  0.00     0.190 HD
BRANCH  20  23
HETATM   23  C   UNL     1      -2.319   8.240 -28.783  1.00  0.00     0.280 C 
BRANCH  23  24
HETATM   24  O   UNL     1      -0.954   8.354 -29.177  1.00  0.00    -0.342 OA
BRANCH  24  25
HETATM   25  C   UNL     1      -0.040   8.405 -28.162  1.00  0.00     0.069 A 
HETATM   26  C   UNL     1       0.780   7.351 -27.760  1.00  0.00     0.037 A 
HETATM   27  C   UNL     1       1.669   7.520 -26.692  1.00  0.00     0.009 A 
HETATM   28  C   UNL     1       1.738   8.738 -26.007  1.00  0.00    -0.062 A 
HETATM   29  C   UNL     1       2.711   8.932 -24.882  1.00  0.00     0.048 C 
HETATM   30  C   UNL     1       0.916   9.793 -26.417  1.00  0.00     0.009 A 
HETATM   31  C   UNL     1       0.025   9.621 -27.480  1.00  0.00     0.037 A 
ENDBRANCH  24  25
ENDBRANCH  23  24
ENDBRANCH  20  23
ENDBRANCH   2  19
TORSDOF 8
ENDMDL
MODEL 7
REMARK VINA RESULT:      -8.5      3.676      7.549
REMARK  8 active torsions:
REMARK  status: ('A' for Active; 'I' for Inactive)
REMARK    1  A    between atoms: C_5  and  C_6 
REMARK    2  A    between atoms: C_8  and  C_9 
REMARK    3  A    between atoms: C_9  and  C_10 
REMARK    4  A    between atoms: C_10  and  C_11 
REMARK       I    between atoms: C_11  and  N_12 
REMARK    5  A    between atoms: N_12  and  N_13 
REMARK       I    between atoms: N_13  and  C_14 
REMARK    6  A    between atoms: C_14  and  C_15 
REMARK    7  A    between atoms: C_15  and  O_16 
REMARK    8  A    between atoms: O_16  and  C_17 
ROOT
HETATM    1  C   UNL     1      -5.948   3.106 -31.378  1.00  0.00     0.236 C 
HETATM    2  N   UNL     1      -6.319   3.701 -32.566  1.00  0.00    -0.267 N 
HETATM    3  O   UNL     1      -6.707   2.402 -30.715  1.00  0.00    -0.272 OA
HETATM    4  H   UNL     1      -5.808   4.489 -32.962  1.00  0.00     0.190 HD
ENDROOT
BRANCH   1   5
HETATM    5  C   UNL     1      -4.510   3.366 -30.979  1.00  0.00     0.112 C 
BRANCH   5   6
HETATM    6  C   UNL     1      -3.548   2.783 -32.010  1.00  0.00     0.096 C 
BRANCH   6   7
HETATM    7  C   UNL     1      -3.453   1.305 -31.891  1.00  0.00     0.146 A 
HETATM    8  O   UNL     1      -4.274   0.583 -32.707  1.00  0.00    -0.294 OA
HETATM    9  C   UNL     1      -3.942  -0.723 -32.471  1.00  0.00     0.105 A 
HETATM   10  C   UNL     1      -2.965  -0.715 -31.499  1.00  0.00     0.157 A 
HETATM   11  N   UNL     1      -2.650   0.577 -31.144  1.00  0.00    -0.238 NA
BRANCH   9  12
HETATM   12  C   UNL     1      -4.636  -1.726 -33.266  1.00  0.00    -0.001 A 
HETATM   13  C   UNL     1      -5.935  -1.496 -33.746  1.00  0.00     0.015 A 
HETATM   14  C   UNL     1      -6.592  -2.444 -34.536  1.00  0.00     0.007 A 
HETATM   15  C   UNL     1      -5.969  -3.653 -34.852  1.00  0.00    -0.062 A 
HETATM   16  C   UNL     1      -6.654  -4.666 -35.721  1.00  0.00     0.048 C 
HETATM   17  C   UNL     1      -4.673  -3.891 -34.380  1.00  0.00     0.007 A 
HETATM   18  C   UNL     1      -4.015  -2.939 -33.593  1.00  0.00     0.015 A 
ENDBRANCH   9  12
ENDBRANCH   6   7
ENDBRANCH   5   6
ENDBRANCH   1   5
BRANCH   2  19
HETATM   19  N   UNL     1      -7.641   3.552 -32.992  1.00  0.00    -0.266 N 
HETATM   20  C   UNL     1      -8.232   4.590 -33.684  1.00  0.00     0.260 C 
HETATM   21  O   UNL     1      -7.613   5.595 -34.036  1.00  0.00    -0.269 OA
HETATM   22  H   UNL     1      -8.199   2.838 -32.524  1.00  0.00     0.190 HD
BRANCH  20  23
HETATM   23  C   UNL     1      -9.725   4.405 -33.919  1.00  0.00     0.280 C 
BRANCH  23  24
HETATM   24  O   UNL     1      -9.922   3.392 -34.901  1.00  0.00    -0.342 OA
BRANCH  24  25
HETATM   25  C   UNL     1     -10.915   2.488 -34.639  1.00  0.00     0.069 A 
HETATM   26  C   UNL     1     -12.207   2.534 -35.159  1.00  0.00     0.037 A 
HETATM   27  C   UNL     1     -13.144   1.558 -34.803  1.00  0.00     0.009 A 
HETATM   28  C   UNL     1     -12.802   0.534 -33.912  1.00  0.00    -0.062 A 
HETATM   29  C   UNL     1     -13.795  -0.532 -33.551  1.00  0.00     0.048 C 
HETATM   30  C   UNL     1     -11.503   0.490 -33.395  1.00  0.00     0.009 A 
HETATM   31  C   UNL     1     -10.571   1.469 -33.749  1.00  0.00     0.037 A 
ENDBRANCH  24  25
ENDBRANCH  23  24
ENDBRANCH  20  23
ENDBRANCH   2  19
TORSDOF 8
ENDMDL
MODEL 8
REMARK VINA RESULT:      -8.4      2.195      2.737
REMARK  8 active torsions:
REMARK  status: ('A' for Active; 'I' for Inactive)
REMARK    1  A    between atoms: C_5  and  C_6 
REMARK    2  A    between atoms: C_8  and  C_9 
REMARK    3  A    between atoms: C_9  and  C_10 
REMARK    4  A    between atoms: C_10  and  C_11 
REMARK       I    between atoms: C_11  and  N_12 
REMARK    5  A    between atoms: N_12  and  N_13 
REMARK       I    between atoms: N_13  and  C_14 
REMARK    6  A    between atoms: C_14  and  C_15 
REMARK    7  A    between atoms: C_15  and  O_16 
REMARK    8  A    between atoms: O_16  and  C_17 
ROOT
HETATM    1  C   UNL     1      -6.088   3.588 -30.821  1.00  0.00     0.236 C 
HETATM    2  N   UNL     1      -4.774   3.252 -30.570  1.00  0.00    -0.267 N 
HETATM    3  O   UNL     1      -6.425   4.670 -31.297  1.00  0.00    -0.272 OA
HETATM    4  H   UNL     1      -4.516   2.500 -29.934  1.00  0.00     0.190 HD
ENDROOT
BRANCH   1   5
HETATM    5  C   UNL     1      -7.080   2.492 -30.489  1.00  0.00     0.112 C 
BRANCH   5   6
HETATM    6  C   UNL     1      -8.292   2.562 -31.414  1.00  0.00     0.096 C 
BRANCH   6   7
HETATM    7  C   UNL     1      -8.106   1.714 -32.620  1.00  0.00     0.146 A 
HETATM    8  O   UNL     1      -7.146   0.750 -32.533  1.00  0.00    -0.294 OA
HETATM    9  C   UNL     1      -7.228   0.066 -33.715  1.00  0.00     0.105 A 
HETATM   10  C   UNL     1      -8.209   0.682 -34.463  1.00  0.00     0.157 A 
HETATM   11  N   UNL     1      -8.772   1.720 -33.755  1.00  0.00    -0.238 NA
BRANCH   9  12
HETATM   12  C   UNL     1      -6.339  -1.076 -33.872  1.00  0.00    -0.001 A 
HETATM   13  C   UNL     1      -5.078  -1.100 -33.255  1.00  0.00     0.015 A 
HETATM   14  C   UNL     1      -4.235  -2.209 -33.376  1.00  0.00     0.007 A 
HETATM   15  C   UNL     1      -4.629  -3.315 -34.133  1.00  0.00    -0.062 A 
HETATM   16  C   UNL     1      -3.743  -4.521 -34.248  1.00  0.00     0.048 C 
HETATM   17  C   UNL     1      -5.885  -3.302 -34.750  1.00  0.00     0.007 A 
HETATM   18  C   UNL     1      -6.729  -2.193 -34.623  1.00  0.00     0.015 A 
ENDBRANCH   9  12
ENDBRANCH   6   7
ENDBRANCH   5   6
ENDBRANCH   1   5
BRANCH   2  19
HETATM   19  N   UNL     1      -3.793   4.218 -30.805  1.00  0.00    -0.266 N 
HETATM   20  C   UNL     1      -2.766   3.917 -31.678  1.00  0.00     0.260 C 
HETATM   21  O   UNL     1      -2.736   2.879 -32.338  1.00  0.00    -0.269 OA
HETATM   22  H   UNL     1      -3.703   4.963 -30.114  1.00  0.00     0.190 HD
BRANCH  20  23
HETATM   23  C   UNL     1      -1.652   4.955 -31.702  1.00  0.00     0.280 C 
BRANCH  23  24
HETATM   24  O   UNL     1      -2.150   6.190 -31.196  1.00  0.00    -0.342 OA
BRANCH  24  25
HETATM   25  C   UNL     1      -1.345   6.840 -30.301  1.00  0.00     0.069 A 
HETATM   26  C   UNL     1      -1.706   7.963 -29.558  1.00  0.00     0.037 A 
HETATM   27  C   UNL     1      -0.786   8.552 -28.683  1.00  0.00     0.009 A 
HETATM   28  C   UNL     1       0.507   8.032 -28.553  1.00  0.00    -0.062 A 
HETATM   29  C   UNL     1       1.486   8.643 -27.594  1.00  0.00     0.048 C 
HETATM   30  C   UNL     1       0.863   6.904 -29.299  1.00  0.00     0.009 A 
HETATM   31  C   UNL     1      -0.056   6.320 -30.175  1.00  0.00     0.037 A 
ENDBRANCH  24  25
ENDBRANCH  23  24
ENDBRANCH  20  23
ENDBRANCH   2  19
TORSDOF 8
ENDMDL
MODEL 9
REMARK VINA RESULT:      -8.3      4.460      7.862
REMARK  8 active torsions:
REMARK  status: ('A' for Active; 'I' for Inactive)
REMARK    1  A    between atoms: C_5  and  C_6 
REMARK    2  A    between atoms: C_8  and  C_9 
REMARK    3  A    between atoms: C_9  and  C_10 
REMARK    4  A    between atoms: C_10  and  C_11 
REMARK       I    between atoms: C_11  and  N_12 
REMARK    5  A    between atoms: N_12  and  N_13 
REMARK       I    between atoms: N_13  and  C_14 
REMARK    6  A    between atoms: C_14  and  C_15 
REMARK    7  A    between atoms: C_15  and  O_16 
REMARK    8  A    between atoms: O_16  and  C_17 
ROOT
HETATM    1  C   UNL     1      -8.490   2.614 -30.709  1.00  0.00     0.236 C 
HETATM    2  N   UNL     1      -8.570   1.365 -31.288  1.00  0.00    -0.267 N 
HETATM    3  O   UNL     1      -9.463   3.351 -30.568  1.00  0.00    -0.272 OA
HETATM    4  H   UNL     1      -7.752   0.882 -31.656  1.00  0.00     0.190 HD
ENDROOT
BRANCH   1   5
HETATM    5  C   UNL     1      -7.102   2.985 -30.229  1.00  0.00     0.112 C 
BRANCH   5   6
HETATM    6  C   UNL     1      -6.213   3.385 -31.404  1.00  0.00     0.096 C 
BRANCH   6   7
HETATM    7  C   UNL     1      -5.317   2.272 -31.812  1.00  0.00     0.146 A 
HETATM    8  O   UNL     1      -5.927   1.180 -32.357  1.00  0.00    -0.294 OA
HETATM    9  C   UNL     1      -4.901   0.350 -32.720  1.00  0.00     0.105 A 
HETATM   10  C   UNL     1      -3.733   0.974 -32.337  1.00  0.00     0.157 A 
HETATM   11  N   UNL     1      -4.003   2.200 -31.774  1.00  0.00    -0.238 NA
BRANCH   9  12
HETATM   12  C   UNL     1      -5.269  -0.887 -33.392  1.00  0.00    -0.001 A 
HETATM   13  C   UNL     1      -6.609  -1.172 -33.698  1.00  0.00     0.015 A 
HETATM   14  C   UNL     1      -6.964  -2.344 -34.372  1.00  0.00     0.007 A 
HETATM   15  C   UNL     1      -5.984  -3.268 -34.744  1.00  0.00    -0.062 A 
HETATM   16  C   UNL     1      -6.349  -4.516 -35.492  1.00  0.00     0.048 C 
HETATM   17  C   UNL     1      -4.644  -2.992 -34.446  1.00  0.00     0.007 A 
HETATM   18  C   UNL     1      -4.292  -1.815 -33.775  1.00  0.00     0.015 A 
ENDBRANCH   9  12
ENDBRANCH   6   7
ENDBRANCH   5   6
ENDBRANCH   1   5
BRANCH   2  19
HETATM   19  N   UNL     1      -9.804   0.955 -31.800  1.00  0.00    -0.266 N 
HETATM   20  C   UNL     1     -10.009   1.028 -33.164  1.00  0.00     0.260 C 
HETATM   21  O   UNL     1      -9.118   1.335 -33.956  1.00  0.00    -0.269 OA
HETATM   22  H   UNL     1     -10.584   0.913 -31.145  1.00  0.00     0.190 HD
BRANCH  20  23
HETATM   23  C   UNL     1     -11.445   0.753 -33.587  1.00  0.00     0.280 C 
BRANCH  23  24
HETATM   24  O   UNL     1     -12.292   1.773 -33.065  1.00  0.00    -0.342 OA
BRANCH  24  25
HETATM   25  C   UNL     1     -12.389   2.913 -33.813  1.00  0.00     0.069 A 
HETATM   26  C   UNL     1     -12.501   2.960 -35.202  1.00  0.00     0.037 A 
HETATM   27  C   UNL     1     -12.577   4.193 -35.860  1.00  0.00     0.009 A 
HETATM   28  C   UNL     1     -12.528   5.391 -35.137  1.00  0.00    -0.062 A 
HETATM   29  C   UNL     1     -12.639   6.714 -35.836  1.00  0.00     0.048 C 
HETATM   30  C   UNL     1     -12.418   5.337 -33.744  1.00  0.00     0.009 A 
HETATM   31  C   UNL     1     -12.338   4.105 -33.090  1.00  0.00     0.037 A 
ENDBRANCH  24  25
ENDBRANCH  23  24
ENDBRANCH  20  23
ENDBRANCH   2  19
TORSDOF 8
ENDMDL
MODEL 10
REMARK VINA RESULT:      -8.3      1.763      2.222
REMARK  8 active torsions:
REMARK  status: ('A' for Active; 'I' for Inactive)
REMARK    1  A    between atoms: C_5  and  C_6 
REMARK    2  A    between atoms: C_8  and  C_9 
REMARK    3  A    between atoms: C_9  and  C_10 
REMARK    4  A    between atoms: C_10  and  C_11 
REMARK       I    between atoms: C_11  and  N_12 
REMARK    5  A    between atoms: N_12  and  N_13 
REMARK       I    between atoms: N_13  and  C_14 
REMARK    6  A    between atoms: C_14  and  C_15 
REMARK    7  A    between atoms: C_15  and  O_16 
REMARK    8  A    between atoms: O_16  and  C_17 
ROOT
HETATM    1  C   UNL     1      -5.476   4.732 -32.757  1.00  0.00     0.236 C 
HETATM    2  N   UNL     1      -4.905   5.924 -33.151  1.00  0.00    -0.267 N 
HETATM    3  O   UNL     1      -4.878   3.891 -32.089  1.00  0.00    -0.272 OA
HETATM    4  H   UNL     1      -5.281   6.481 -33.917  1.00  0.00     0.190 HD
ENDROOT
BRANCH   1   5
HETATM    5  C   UNL     1      -6.917   4.564 -33.191  1.00  0.00     0.112 C 
BRANCH   5   6
HETATM    6  C   UNL     1      -7.566   3.386 -32.468  1.00  0.00     0.096 C 
BRANCH   6   7
HETATM    7  C   UNL     1      -7.687   2.202 -33.358  1.00  0.00     0.146 A 
HETATM    8  O   UNL     1      -6.712   1.257 -33.235  1.00  0.00    -0.294 OA
HETATM    9  C   UNL     1      -7.090   0.252 -34.083  1.00  0.00     0.105 A 
HETATM   10  C   UNL     1      -8.253   0.666 -34.696  1.00  0.00     0.157 A 
HETATM   11  N   UNL     1      -8.634   1.901 -34.221  1.00  0.00    -0.238 NA
BRANCH   9  12
HETATM   12  C   UNL     1      -6.244  -0.933 -34.109  1.00  0.00    -0.001 A 
HETATM   13  C   UNL     1      -4.983  -0.933 -33.493  1.00  0.00     0.015 A 
HETATM   14  C   UNL     1      -4.181  -2.078 -33.488  1.00  0.00     0.007 A 
HETATM   15  C   UNL     1      -4.618  -3.248 -34.113  1.00  0.00    -0.062 A 
HETATM   16  C   UNL     1      -3.778  -4.491 -34.091  1.00  0.00     0.048 C 
HETATM   17  C   UNL     1      -5.876  -3.259 -34.728  1.00  0.00     0.007 A 
HETATM   18  C   UNL     1      -6.678  -2.113 -34.728  1.00  0.00     0.015 A 
ENDBRANCH   9  12
ENDBRANCH   6   7
ENDBRANCH   5   6
ENDBRANCH   1   5
BRANCH   2  19
HETATM   19  N   UNL     1      -3.563   6.148 -32.833  1.00  0.00    -0.266 N 
HETATM   20  C   UNL     1      -2.609   5.921 -33.805  1.00  0.00     0.260 C 
HETATM   21  O   UNL     1      -2.896   5.636 -34.968  1.00  0.00    -0.269 OA
HETATM   22  H   UNL     1      -3.320   6.169 -31.843  1.00  0.00     0.190 HD
BRANCH  20  23
HETATM   23  C   UNL     1      -1.177   5.998 -33.294  1.00  0.00     0.280 C 
BRANCH  23  24
HETATM   24  O   UNL     1      -1.047   5.179 -32.136  1.00  0.00    -0.342 OA
BRANCH  24  25
HETATM   25  C   UNL     1      -0.571   5.798 -31.014  1.00  0.00     0.069 A 
HETATM   26  C   UNL     1      -0.733   7.148 -30.705  1.00  0.00     0.037 A 
HETATM   27  C   UNL     1      -0.183   7.671 -29.530  1.00  0.00     0.009 A 
HETATM   28  C   UNL     1       0.545   6.854 -28.658  1.00  0.00    -0.062 A 
HETATM   29  C   UNL     1       1.110   7.405 -27.382  1.00  0.00     0.048 C 
HETATM   30  C   UNL     1       0.702   5.500 -28.970  1.00  0.00     0.009 A 
HETATM   31  C   UNL     1       0.156   4.980 -30.147  1.00  0.00     0.037 A 
ENDBRANCH  24  25
ENDBRANCH  23  24
ENDBRANCH  20  23
ENDBRANCH   2  19
TORSDOF 8
ENDMDL
