MODEL 1
REMARK VINA RESULT:      -7.7      0.000      0.000
REMARK  6 active torsions:
REMARK  status: ('A' for Active; 'I' for Inactive)
REMARK    1  A    between atoms: C_2  and  C_3 
REMARK    2  A    between atoms: C_13  and  C_14 
REMARK       I    between atoms: C_14  and  N_15 
REMARK    3  A    between atoms: N_15  and  C_16 
REMARK    4  A    between atoms: C_16  and  C_17 
REMARK    5  A    between atoms: C_17  and  C_18 
REMARK    6  A    between atoms: C_18  and  C_19 
ROOT
HETATM    1  C   UNL     1      -7.641   1.182 -31.915  1.00  0.00     0.251 C 
HETATM    2  N   UNL     1      -7.156  -0.102 -32.053  1.00  0.00    -0.357 N 
HETATM    3  O   UNL     1      -7.028   2.075 -31.343  1.00  0.00    -0.268 OA
HETATM    4  H   UNL     1      -7.760  -0.839 -32.383  1.00  0.00     0.162 HD
ENDROOT
BRANCH   1   5
HETATM    5  C   UNL     1      -9.001   1.456 -32.466  1.00  0.00     0.032 A 
HETATM    6  C   UNL     1      -9.798   0.472 -33.059  1.00  0.00     0.017 A 
HETATM    7  C   UNL     1     -11.081   0.784 -33.538  1.00  0.00     0.008 A 
HETATM    8  C   UNL     1     -11.586   2.089 -33.455  1.00  0.00    -0.052 A 
HETATM    9  C   UNL     1     -10.767   3.072 -32.869  1.00  0.00     0.008 A 
HETATM   10  C   UNL     1      -9.493   2.760 -32.384  1.00  0.00     0.017 A 
BRANCH   8  11
HETATM   11  C   UNL     1     -12.969   2.501 -33.944  1.00  0.00     0.044 C 
HETATM   12  C   UNL     1     -13.924   1.323 -34.195  1.00  0.00     0.241 C 
HETATM   13  N   UNL     1     -14.652   0.903 -32.957  1.00  0.00    -0.074 N 
HETATM   14  H   UNL     1     -14.000   0.439 -32.312  1.00  0.00     0.277 HD
HETATM   15  H   UNL     1     -15.332   0.174 -33.212  1.00  0.00     0.277 HD
HETATM   16  C   UNL     1     -15.373   2.007 -32.260  1.00  0.00     0.232 C 
HETATM   17  C   UNL     1     -14.388   3.098 -31.879  1.00  0.00     0.028 C 
HETATM   18  C   UNL     1     -13.608   3.610 -33.088  1.00  0.00     0.013 C 
ENDBRANCH   8  11
ENDBRANCH   1   5
BRANCH   2  19
HETATM   19  C   UNL     1      -5.901  -0.507 -31.445  1.00  0.00     0.123 C 
BRANCH  19  20
HETATM   20  C   UNL     1      -4.742  -0.516 -32.442  1.00  0.00     0.026 C 
BRANCH  20  21
HETATM   21  C   UNL     1      -5.215  -0.812 -33.866  1.00  0.00     0.061 C 
BRANCH  21  22
HETATM   22  C   UNL     1      -5.307  -2.271 -34.169  1.00  0.00     0.044 A 
HETATM   23  N   UNL     1      -4.221  -3.074 -33.859  1.00  0.00    -0.229 NA
HETATM   24  C   UNL     1      -4.449  -4.312 -34.222  1.00  0.00     0.164 A 
HETATM   25  N   UNL     1      -3.564  -5.304 -34.043  1.00  0.00    -0.378 N 
HETATM   26  S   UNL     1      -5.981  -4.597 -34.940  1.00  0.00    -0.062 SA
HETATM   27  H   UNL     1      -2.827  -5.116 -33.373  1.00  0.00     0.158 HD
HETATM   28  H   UNL     1      -3.917  -6.252 -34.017  1.00  0.00     0.158 HD
HETATM   29  C   UNL     1      -6.359  -2.934 -34.773  1.00  0.00     0.080 A 
ENDBRANCH  21  22
ENDBRANCH  20  21
ENDBRANCH  19  20
ENDBRANCH   2  19
TORSDOF 6
ENDMDL
MODEL 2
REMARK VINA RESULT:      -7.6      5.254      8.605
REMARK  6 active torsions:
REMARK  status: ('A' for Active; 'I' for Inactive)
REMARK    1  A    between atoms: C_2  and  C_3 
REMARK    2  A    between atoms: C_13  and  C_14 
REMARK       I    between atoms: C_14  and  N_15 
REMARK    3  A    between atoms: N_15  and  C_16 
REMARK    4  A    between atoms: C_16  and  C_17 
REMARK    5  A    between atoms: C_17  and  C_18 
REMARK    6  A    between atoms: C_18  and  C_19 
ROOT
HETATM    1  C   UNL     1      -5.295   2.886 -32.720  1.00  0.00     0.251 C 
HETATM    2  N   UNL     1      -5.677   1.889 -31.846  1.00  0.00    -0.357 N 
HETATM    3  O   UNL     1      -5.753   3.002 -33.850  1.00  0.00    -0.268 OA
HETATM    4  H   UNL     1      -5.158   1.735 -30.996  1.00  0.00     0.162 HD
ENDROOT
BRANCH   1   5
HETATM    5  C   UNL     1      -4.239   3.831 -32.251  1.00  0.00     0.032 A 
HETATM    6  C   UNL     1      -4.480   4.845 -31.317  1.00  0.00     0.017 A 
HETATM    7  C   UNL     1      -3.441   5.688 -30.895  1.00  0.00     0.008 A 
HETATM    8  C   UNL     1      -2.145   5.553 -31.411  1.00  0.00    -0.052 A 
HETATM    9  C   UNL     1      -1.920   4.540 -32.360  1.00  0.00     0.008 A 
HETATM   10  C   UNL     1      -2.952   3.693 -32.775  1.00  0.00     0.017 A 
BRANCH   8  11
HETATM   11  C   UNL     1      -0.966   6.425 -30.995  1.00  0.00     0.044 C 
HETATM   12  C   UNL     1      -1.177   7.180 -29.672  1.00  0.00     0.241 C 
HETATM   13  N   UNL     1      -0.797   6.358 -28.480  1.00  0.00    -0.074 N 
HETATM   14  H   UNL     1      -1.485   5.608 -28.341  1.00  0.00     0.277 HD
HETATM   15  H   UNL     1      -0.880   6.948 -27.640  1.00  0.00     0.277 HD
HETATM   16  C   UNL     1       0.582   5.794 -28.532  1.00  0.00     0.232 C 
HETATM   17  C   UNL     1       0.729   4.924 -29.768  1.00  0.00     0.028 C 
HETATM   18  C   UNL     1       0.383   5.684 -31.046  1.00  0.00     0.013 C 
ENDBRANCH   8  11
ENDBRANCH   1   5
BRANCH   2  19
HETATM   19  C   UNL     1      -6.603   0.844 -32.248  1.00  0.00     0.123 C 
BRANCH  19  20
HETATM   20  C   UNL     1      -5.942  -0.533 -32.306  1.00  0.00     0.026 C 
BRANCH  20  21
HETATM   21  C   UNL     1      -5.297  -0.802 -33.666  1.00  0.00     0.061 C 
BRANCH  21  22
HETATM   22  C   UNL     1      -5.328  -2.241 -34.064  1.00  0.00     0.044 A 
HETATM   23  N   UNL     1      -4.225  -3.027 -33.765  1.00  0.00    -0.229 NA
HETATM   24  C   UNL     1      -4.397  -4.245 -34.213  1.00  0.00     0.164 A 
HETATM   25  N   UNL     1      -3.484  -5.217 -34.065  1.00  0.00    -0.378 N 
HETATM   26  S   UNL     1      -5.892  -4.534 -35.004  1.00  0.00    -0.062 SA
HETATM   27  H   UNL     1      -2.778  -5.048 -33.357  1.00  0.00     0.158 HD
HETATM   28  H   UNL     1      -3.804  -6.176 -34.111  1.00  0.00     0.158 HD
HETATM   29  C   UNL     1      -6.334  -2.899 -34.746  1.00  0.00     0.080 A 
ENDBRANCH  21  22
ENDBRANCH  20  21
ENDBRANCH  19  20
ENDBRANCH   2  19
TORSDOF 6
ENDMDL
MODEL 3
REMARK VINA RESULT:      -7.6      4.840      7.796
REMARK  6 active torsions:
REMARK  status: ('A' for Active; 'I' for Inactive)
REMARK    1  A    between atoms: C_2  and  C_3 
REMARK    2  A    between atoms: C_13  and  C_14 
REMARK       I    between atoms: C_14  and  N_15 
REMARK    3  A    between atoms: N_15  and  C_16 
REMARK    4  A    between atoms: C_16  and  C_17 
REMARK    5  A    between atoms: C_17  and  C_18 
REMARK    6  A    between atoms: C_18  and  C_19 
ROOT
HETATM    1  C   UNL     1      -6.794   2.564 -33.259  1.00  0.00     0.251 C 
HETATM    2  N   UNL     1      -6.707   1.225 -32.938  1.00  0.00    -0.357 N 
HETATM    3  O   UNL     1      -7.858   3.138 -33.463  1.00  0.00    -0.268 OA
HETATM    4  H   UNL     1      -5.811   0.761 -32.943  1.00  0.00     0.162 HD
ENDROOT
BRANCH   1   5
HETATM    5  C   UNL     1      -5.512   3.314 -33.399  1.00  0.00     0.032 A 
HETATM    6  C   UNL     1      -5.355   4.406 -34.258  1.00  0.00     0.017 A 
HETATM    7  C   UNL     1      -4.129   5.089 -34.328  1.00  0.00     0.008 A 
HETATM    8  C   UNL     1      -3.030   4.682 -33.561  1.00  0.00    -0.052 A 
HETATM    9  C   UNL     1      -3.198   3.571 -32.713  1.00  0.00     0.008 A 
HETATM   10  C   UNL     1      -4.420   2.897 -32.635  1.00  0.00     0.017 A 
BRANCH   8  11
HETATM   11  C   UNL     1      -1.673   5.376 -33.578  1.00  0.00     0.044 C 
HETATM   12  C   UNL     1      -1.725   6.846 -34.028  1.00  0.00     0.241 C 
HETATM   13  N   UNL     1      -2.021   7.779 -32.896  1.00  0.00    -0.074 N 
HETATM   14  H   UNL     1      -3.000   7.672 -32.605  1.00  0.00     0.277 HD
HETATM   15  H   UNL     1      -1.955   8.745 -33.247  1.00  0.00     0.277 HD
HETATM   16  C   UNL     1      -1.112   7.635 -31.723  1.00  0.00     0.232 C 
HETATM   17  C   UNL     1      -1.189   6.215 -31.192  1.00  0.00     0.028 C 
HETATM   18  C   UNL     1      -0.878   5.183 -32.274  1.00  0.00     0.013 C 
ENDBRANCH   8  11
ENDBRANCH   1   5
BRANCH   2  19
HETATM   19  C   UNL     1      -7.885   0.376 -32.901  1.00  0.00     0.123 C 
BRANCH  19  20
HETATM   20  C   UNL     1      -7.739  -0.867 -33.779  1.00  0.00     0.026 C 
BRANCH  20  21
HETATM   21  C   UNL     1      -6.440  -0.847 -34.588  1.00  0.00     0.061 C 
BRANCH  21  22
HETATM   22  C   UNL     1      -5.411  -1.804 -34.082  1.00  0.00     0.044 A 
HETATM   23  N   UNL     1      -4.625  -1.413 -33.009  1.00  0.00    -0.229 NA
HETATM   24  C   UNL     1      -3.753  -2.345 -32.718  1.00  0.00     0.164 A 
HETATM   25  N   UNL     1      -2.862  -2.231 -31.721  1.00  0.00    -0.378 N 
HETATM   26  S   UNL     1      -3.830  -3.755 -33.694  1.00  0.00    -0.062 SA
HETATM   27  H   UNL     1      -3.067  -1.516 -31.032  1.00  0.00     0.158 HD
HETATM   28  H   UNL     1      -2.475  -3.082 -31.334  1.00  0.00     0.158 HD
HETATM   29  C   UNL     1      -5.111  -3.054 -34.588  1.00  0.00     0.080 A 
ENDBRANCH  21  22
ENDBRANCH  20  21
ENDBRANCH  19  20
ENDBRANCH   2  19
TORSDOF 6
ENDMDL
MODEL 4
REMARK VINA RESULT:      -7.4      6.487      9.055
REMARK  6 active torsions:
REMARK  status: ('A' for Active; 'I' for Inactive)
REMARK    1  A    between atoms: C_2  and  C_3 
REMARK    2  A    between atoms: C_13  and  C_14 
REMARK       I    between atoms: C_14  and  N_15 
REMARK    3  A    between atoms: N_15  and  C_16 
REMARK    4  A    between atoms: C_16  and  C_17 
REMARK    5  A    between atoms: C_17  and  C_18 
REMARK    6  A    between atoms: C_18  and  C_19 
ROOT
HETATM    1  C   UNL     1      -4.013   5.248 -33.614  1.00  0.00     0.251 C 
HETATM    2  N   UNL     1      -2.667   5.391 -33.880  1.00  0.00    -0.357 N 
HETATM    3  O   UNL     1      -4.798   6.189 -33.591  1.00  0.00    -0.268 OA
HETATM    4  H   UNL     1      -2.036   4.620 -33.726  1.00  0.00     0.162 HD
ENDROOT
BRANCH   1   5
HETATM    5  C   UNL     1      -4.501   3.872 -33.303  1.00  0.00     0.032 A 
HETATM    6  C   UNL     1      -5.764   3.405 -33.680  1.00  0.00     0.017 A 
HETATM    7  C   UNL     1      -6.158   2.091 -33.381  1.00  0.00     0.008 A 
HETATM    8  C   UNL     1      -5.310   1.224 -32.680  1.00  0.00    -0.052 A 
HETATM    9  C   UNL     1      -4.049   1.712 -32.293  1.00  0.00     0.008 A 
HETATM   10  C   UNL     1      -3.651   3.017 -32.598  1.00  0.00     0.017 A 
BRANCH   8  11
HETATM   11  C   UNL     1      -5.665  -0.216 -32.327  1.00  0.00     0.044 C 
HETATM   12  C   UNL     1      -6.879  -0.770 -33.092  1.00  0.00     0.241 C 
HETATM   13  N   UNL     1      -6.501  -1.347 -34.420  1.00  0.00    -0.074 N 
HETATM   14  H   UNL     1      -6.243  -0.591 -35.066  1.00  0.00     0.277 HD
HETATM   15  H   UNL     1      -7.339  -1.775 -34.837  1.00  0.00     0.277 HD
HETATM   16  C   UNL     1      -5.420  -2.373 -34.363  1.00  0.00     0.232 C 
HETATM   17  C   UNL     1      -4.174  -1.764 -33.745  1.00  0.00     0.028 C 
HETATM   18  C   UNL     1      -4.454  -1.165 -32.368  1.00  0.00     0.013 C 
ENDBRANCH   8  11
ENDBRANCH   1   5
BRANCH   2  19
HETATM   19  C   UNL     1      -2.068   6.700 -34.070  1.00  0.00     0.123 C 
BRANCH  19  20
HETATM   20  C   UNL     1      -1.079   7.060 -32.961  1.00  0.00     0.026 C 
BRANCH  20  21
HETATM   21  C   UNL     1      -1.753   7.108 -31.588  1.00  0.00     0.061 C 
BRANCH  21  22
HETATM   22  C   UNL     1      -0.839   6.741 -30.465  1.00  0.00     0.044 A 
HETATM   23  N   UNL     1      -0.249   5.487 -30.486  1.00  0.00    -0.229 NA
HETATM   24  C   UNL     1       0.487   5.311 -29.416  1.00  0.00     0.164 A 
HETATM   25  N   UNL     1       1.173   4.183 -29.175  1.00  0.00    -0.378 N 
HETATM   26  S   UNL     1       0.533   6.637 -28.329  1.00  0.00    -0.062 SA
HETATM   27  H   UNL     1       1.320   3.581 -29.978  1.00  0.00     0.158 HD
HETATM   28  H   UNL     1       1.965   4.238 -28.547  1.00  0.00     0.158 HD
HETATM   29  C   UNL     1      -0.529   7.504 -29.356  1.00  0.00     0.080 A 
ENDBRANCH  21  22
ENDBRANCH  20  21
ENDBRANCH  19  20
ENDBRANCH   2  19
TORSDOF 6
ENDMDL
MODEL 5
REMARK VINA RESULT:      -7.4      7.132      9.481
REMARK  6 active torsions:
REMARK  status: ('A' for Active; 'I' for Inactive)
REMARK    1  A    between atoms: C_2  and  C_3 
REMARK    2  A    between atoms: C_13  and  C_14 
REMARK       I    between atoms: C_14  and  N_15 
REMARK    3  A    between atoms: N_15  and  C_16 
REMARK    4  A    between atoms: C_16  and  C_17 
REMARK    5  A    between atoms: C_17  and  C_18 
REMARK    6  A    between atoms: C_18  and  C_19 
ROOT
HETATM    1  C   UNL     1      -2.246   4.436 -31.935  1.00  0.00     0.251 C 
HETATM    2  N   UNL     1      -2.267   5.638 -32.612  1.00  0.00    -0.357 N 
HETATM    3  O   UNL     1      -1.313   4.082 -31.224  1.00  0.00    -0.268 OA
HETATM    4  H   UNL     1      -2.974   5.813 -33.310  1.00  0.00     0.162 HD
ENDROOT
BRANCH   1   5
HETATM    5  C   UNL     1      -3.412   3.527 -32.130  1.00  0.00     0.032 A 
HETATM    6  C   UNL     1      -4.539   3.879 -32.880  1.00  0.00     0.017 A 
HETATM    7  C   UNL     1      -5.597   2.970 -33.049  1.00  0.00     0.008 A 
HETATM    8  C   UNL     1      -5.562   1.701 -32.456  1.00  0.00    -0.052 A 
HETATM    9  C   UNL     1      -4.429   1.366 -31.692  1.00  0.00     0.008 A 
HETATM   10  C   UNL     1      -3.371   2.266 -31.530  1.00  0.00     0.017 A 
BRANCH   8  11
HETATM   11  C   UNL     1      -6.665   0.660 -32.601  1.00  0.00     0.044 C 
HETATM   12  C   UNL     1      -7.606   0.903 -33.794  1.00  0.00     0.241 C 
HETATM   13  N   UNL     1      -7.083   0.308 -35.064  1.00  0.00    -0.074 N 
HETATM   14  H   UNL     1      -6.273   0.848 -35.393  1.00  0.00     0.277 HD
HETATM   15  H   UNL     1      -7.796   0.431 -35.796  1.00  0.00     0.277 HD
HETATM   16  C   UNL     1      -6.739  -1.140 -34.971  1.00  0.00     0.232 C 
HETATM   17  C   UNL     1      -5.692  -1.345 -33.890  1.00  0.00     0.028 C 
HETATM   18  C   UNL     1      -6.145  -0.787 -32.543  1.00  0.00     0.013 C 
ENDBRANCH   8  11
ENDBRANCH   1   5
BRANCH   2  19
HETATM   19  C   UNL     1      -1.129   6.540 -32.592  1.00  0.00     0.123 C 
BRANCH  19  20
HETATM   20  C   UNL     1      -0.974   7.258 -31.251  1.00  0.00     0.026 C 
BRANCH  20  21
HETATM   21  C   UNL     1       0.428   7.080 -30.665  1.00  0.00     0.061 C 
BRANCH  21  22
HETATM   22  C   UNL     1       0.457   7.116 -29.172  1.00  0.00     0.044 A 
HETATM   23  N   UNL     1      -0.274   6.162 -28.481  1.00  0.00    -0.229 NA
HETATM   24  C   UNL     1      -0.173   6.357 -27.190  1.00  0.00     0.164 A 
HETATM   25  N   UNL     1      -0.782   5.580 -26.281  1.00  0.00    -0.378 N 
HETATM   26  S   UNL     1       0.814   7.680 -26.721  1.00  0.00    -0.062 SA
HETATM   27  H   UNL     1      -1.099   4.678 -26.619  1.00  0.00     0.158 HD
HETATM   28  H   UNL     1      -0.399   5.561 -25.344  1.00  0.00     0.158 HD
HETATM   29  C   UNL     1       1.111   8.031 -28.370  1.00  0.00     0.080 A 
ENDBRANCH  21  22
ENDBRANCH  20  21
ENDBRANCH  19  20
ENDBRANCH   2  19
TORSDOF 6
ENDMDL
MODEL 6
REMARK VINA RESULT:      -7.3      5.718      7.942
REMARK  6 active torsions:
REMARK  status: ('A' for Active; 'I' for Inactive)
REMARK    1  A    between atoms: C_2  and  C_3 
REMARK    2  A    between atoms: C_13  and  C_14 
REMARK       I    between atoms: C_14  and  N_15 
REMARK    3  A    between atoms: N_15  and  C_16 
REMARK    4  A    between atoms: C_16  and  C_17 
REMARK    5  A    between atoms: C_17  and  C_18 
REMARK    6  A    between atoms: C_18  and  C_19 
ROOT
HETATM    1  C   UNL     1      -2.708   4.266 -31.123  1.00  0.00     0.251 C 
HETATM    2  N   UNL     1      -3.241   5.418 -30.582  1.00  0.00    -0.357 N 
HETATM    3  O   UNL     1      -1.511   4.115 -31.335  1.00  0.00    -0.268 OA
HETATM    4  H   UNL     1      -4.240   5.561 -30.580  1.00  0.00     0.162 HD
ENDROOT
BRANCH   1   5
HETATM    5  C   UNL     1      -3.667   3.185 -31.496  1.00  0.00     0.032 A 
HETATM    6  C   UNL     1      -3.323   2.110 -32.321  1.00  0.00     0.017 A 
HETATM    7  C   UNL     1      -4.262   1.108 -32.617  1.00  0.00     0.008 A 
HETATM    8  C   UNL     1      -5.568   1.170 -32.115  1.00  0.00    -0.052 A 
HETATM    9  C   UNL     1      -5.905   2.266 -31.298  1.00  0.00     0.008 A 
HETATM   10  C   UNL     1      -4.969   3.259 -30.995  1.00  0.00     0.017 A 
BRANCH   8  11
HETATM   11  C   UNL     1      -6.638   0.119 -32.385  1.00  0.00     0.044 C 
HETATM   12  C   UNL     1      -8.073   0.594 -32.100  1.00  0.00     0.241 C 
HETATM   13  N   UNL     1      -8.683   1.300 -33.270  1.00  0.00    -0.074 N 
HETATM   14  H   UNL     1      -8.238   2.218 -33.392  1.00  0.00     0.277 HD
HETATM   15  H   UNL     1      -9.665   1.512 -33.044  1.00  0.00     0.277 HD
HETATM   16  C   UNL     1      -8.644   0.529 -34.546  1.00  0.00     0.232 C 
HETATM   17  C   UNL     1      -7.203   0.200 -34.896  1.00  0.00     0.028 C 
HETATM   18  C   UNL     1      -6.498  -0.546 -33.766  1.00  0.00     0.013 C 
ENDBRANCH   8  11
ENDBRANCH   1   5
BRANCH   2  19
HETATM   19  C   UNL     1      -2.412   6.577 -30.302  1.00  0.00     0.123 C 
BRANCH  19  20
HETATM   20  C   UNL     1      -2.928   7.845 -30.984  1.00  0.00     0.026 C 
BRANCH  20  21
HETATM   21  C   UNL     1      -2.118   8.191 -32.235  1.00  0.00     0.061 C 
BRANCH  21  22
HETATM   22  C   UNL     1      -2.117   7.106 -33.260  1.00  0.00     0.044 A 
HETATM   23  N   UNL     1      -3.338   6.624 -33.705  1.00  0.00    -0.229 NA
HETATM   24  C   UNL     1      -3.161   5.655 -34.567  1.00  0.00     0.164 A 
HETATM   25  N   UNL     1      -4.174   5.004 -35.159  1.00  0.00    -0.378 N 
HETATM   26  S   UNL     1      -1.525   5.270 -34.915  1.00  0.00    -0.062 SA
HETATM   27  H   UNL     1      -5.074   5.470 -35.120  1.00  0.00     0.158 HD
HETATM   28  H   UNL     1      -3.986   4.535 -36.036  1.00  0.00     0.158 HD
HETATM   29  C   UNL     1      -1.016   6.477 -33.810  1.00  0.00     0.080 A 
ENDBRANCH  21  22
ENDBRANCH  20  21
ENDBRANCH  19  20
ENDBRANCH   2  19
TORSDOF 6
ENDMDL
MODEL 7
REMARK VINA RESULT:      -7.1      1.794      2.335
REMARK  6 active torsions:
REMARK  status: ('A' for Active; 'I' for Inactive)
REMARK    1  A    between atoms: C_2  and  C_3 
REMARK    2  A    between atoms: C_13  and  C_14 
REMARK       I    between atoms: C_14  and  N_15 
REMARK    3  A    between atoms: N_15  and  C_16 
REMARK    4  A    between atoms: C_16  and  C_17 
REMARK    5  A    between atoms: C_17  and  C_18 
REMARK    6  A    between atoms: C_18  and  C_19 
ROOT
HETATM    1  C   UNL     1      -6.468   0.492 -30.940  1.00  0.00     0.251 C 
HETATM    2  N   UNL     1      -5.290   0.765 -31.602  1.00  0.00    -0.357 N 
HETATM    3  O   UNL     1      -6.526  -0.194 -29.926  1.00  0.00    -0.268 OA
HETATM    4  H   UNL     1      -5.310   1.191 -32.516  1.00  0.00     0.162 HD
ENDROOT
BRANCH   1   5
HETATM    5  C   UNL     1      -7.723   1.038 -31.533  1.00  0.00     0.032 A 
HETATM    6  C   UNL     1      -8.470   0.359 -32.502  1.00  0.00     0.017 A 
HETATM    7  C   UNL     1      -9.657   0.913 -33.006  1.00  0.00     0.008 A 
HETATM    8  C   UNL     1     -10.113   2.165 -32.572  1.00  0.00    -0.052 A 
HETATM    9  C   UNL     1      -9.344   2.844 -31.609  1.00  0.00     0.008 A 
HETATM   10  C   UNL     1      -8.166   2.289 -31.099  1.00  0.00     0.017 A 
BRANCH   8  11
HETATM   11  C   UNL     1     -11.394   2.826 -33.066  1.00  0.00     0.044 C 
HETATM   12  C   UNL     1     -11.166   3.957 -34.084  1.00  0.00     0.241 C 
HETATM   13  N   UNL     1     -11.063   3.449 -35.488  1.00  0.00    -0.074 N 
HETATM   14  H   UNL     1     -10.175   2.948 -35.612  1.00  0.00     0.277 HD
HETATM   15  H   UNL     1     -10.998   4.258 -36.121  1.00  0.00     0.277 HD
HETATM   16  C   UNL     1     -12.205   2.594 -35.921  1.00  0.00     0.232 C 
HETATM   17  C   UNL     1     -12.323   1.396 -34.996  1.00  0.00     0.028 C 
HETATM   18  C   UNL     1     -12.456   1.814 -33.534  1.00  0.00     0.013 C 
ENDBRANCH   8  11
ENDBRANCH   1   5
BRANCH   2  19
HETATM   19  C   UNL     1      -4.030   0.178 -31.181  1.00  0.00     0.123 C 
BRANCH  19  20
HETATM   20  C   UNL     1      -3.646  -1.046 -32.013  1.00  0.00     0.026 C 
BRANCH  20  21
HETATM   21  C   UNL     1      -4.136  -0.933 -33.458  1.00  0.00     0.061 C 
BRANCH  21  22
HETATM   22  C   UNL     1      -4.808  -2.170 -33.955  1.00  0.00     0.044 A 
HETATM   23  N   UNL     1      -4.129  -3.373 -33.846  1.00  0.00    -0.229 NA
HETATM   24  C   UNL     1      -4.837  -4.346 -34.362  1.00  0.00     0.164 A 
HETATM   25  N   UNL     1      -4.420  -5.621 -34.394  1.00  0.00    -0.378 N 
HETATM   26  S   UNL     1      -6.366  -3.888 -34.992  1.00  0.00    -0.062 SA
HETATM   27  H   UNL     1      -3.659  -5.847 -33.762  1.00  0.00     0.158 HD
HETATM   28  H   UNL     1      -5.122  -6.346 -34.474  1.00  0.00     0.158 HD
HETATM   29  C   UNL     1      -6.046  -2.261 -34.563  1.00  0.00     0.080 A 
ENDBRANCH  21  22
ENDBRANCH  20  21
ENDBRANCH  19  20
ENDBRANCH   2  19
TORSDOF 6
ENDMDL
MODEL 8
REMARK VINA RESULT:      -7.1      4.762      8.028
REMARK  6 active torsions:
REMARK  status: ('A' for Active; 'I' for Inactive)
REMARK    1  A    between atoms: C_2  and  C_3 
REMARK    2  A    between atoms: C_13  and  C_14 
REMARK       I    between atoms: C_14  and  N_15 
REMARK    3  A    between atoms: N_15  and  C_16 
REMARK    4  A    between atoms: C_16  and  C_17 
REMARK    5  A    between atoms: C_17  and  C_18 
REMARK    6  A    between atoms: C_18  and  C_19 
ROOT
HETATM    1  C   UNL     1      -6.639   1.312 -30.393  1.00  0.00     0.251 C 
HETATM    2  N   UNL     1      -7.569   2.316 -30.561  1.00  0.00    -0.357 N 
HETATM    3  O   UNL     1      -5.989   1.163 -29.365  1.00  0.00    -0.268 OA
HETATM    4  H   UNL     1      -7.956   2.500 -31.474  1.00  0.00     0.162 HD
ENDROOT
BRANCH   1   5
HETATM    5  C   UNL     1      -6.405   0.402 -31.553  1.00  0.00     0.032 A 
HETATM    6  C   UNL     1      -7.404   0.058 -32.468  1.00  0.00     0.017 A 
HETATM    7  C   UNL     1      -7.118  -0.784 -33.555  1.00  0.00     0.008 A 
HETATM    8  C   UNL     1      -5.835  -1.316 -33.739  1.00  0.00    -0.052 A 
HETATM    9  C   UNL     1      -4.843  -0.973 -32.802  1.00  0.00     0.008 A 
HETATM   10  C   UNL     1      -5.124  -0.128 -31.724  1.00  0.00     0.017 A 
BRANCH   8  11
HETATM   11  C   UNL     1      -5.448  -2.228 -34.897  1.00  0.00     0.044 C 
HETATM   12  C   UNL     1      -4.076  -2.904 -34.733  1.00  0.00     0.241 C 
HETATM   13  N   UNL     1      -4.158  -4.179 -33.952  1.00  0.00    -0.074 N 
HETATM   14  H   UNL     1      -4.346  -3.970 -32.965  1.00  0.00     0.277 HD
HETATM   15  H   UNL     1      -3.228  -4.620 -33.955  1.00  0.00     0.277 HD
HETATM   16  C   UNL     1      -5.152  -5.160 -34.474  1.00  0.00     0.232 C 
HETATM   17  C   UNL     1      -6.533  -4.527 -34.486  1.00  0.00     0.028 C 
HETATM   18  C   UNL     1      -6.557  -3.224 -35.281  1.00  0.00     0.013 C 
ENDBRANCH   8  11
ENDBRANCH   1   5
BRANCH   2  19
HETATM   19  C   UNL     1      -7.782   3.330 -29.543  1.00  0.00     0.123 C 
BRANCH  19  20
HETATM   20  C   UNL     1      -7.340   4.721 -29.999  1.00  0.00     0.026 C 
BRANCH  20  21
HETATM   21  C   UNL     1      -6.928   4.736 -31.472  1.00  0.00     0.061 C 
BRANCH  21  22
HETATM   22  C   UNL     1      -5.519   5.180 -31.690  1.00  0.00     0.044 A 
HETATM   23  N   UNL     1      -4.497   4.350 -31.256  1.00  0.00    -0.229 NA
HETATM   24  C   UNL     1      -3.332   4.902 -31.486  1.00  0.00     0.164 A 
HETATM   25  N   UNL     1      -2.167   4.319 -31.164  1.00  0.00    -0.378 N 
HETATM   26  S   UNL     1      -3.383   6.437 -32.252  1.00  0.00    -0.062 SA
HETATM   27  H   UNL     1      -2.213   3.321 -30.986  1.00  0.00     0.158 HD
HETATM   28  H   UNL     1      -1.337   4.613 -31.664  1.00  0.00     0.158 HD
HETATM   29  C   UNL     1      -5.095   6.367 -32.255  1.00  0.00     0.080 A 
ENDBRANCH  21  22
ENDBRANCH  20  21
ENDBRANCH  19  20
ENDBRANCH   2  19
TORSDOF 6
ENDMDL
MODEL 9
REMARK VINA RESULT:      -7.0      3.145      7.883
REMARK  6 active torsions:
REMARK  status: ('A' for Active; 'I' for Inactive)
REMARK    1  A    between atoms: C_2  and  C_3 
REMARK    2  A    between atoms: C_13  and  C_14 
REMARK       I    between atoms: C_14  and  N_15 
REMARK    3  A    between atoms: N_15  and  C_16 
REMARK    4  A    between atoms: C_16  and  C_17 
REMARK    5  A    between atoms: C_17  and  C_18 
REMARK    6  A    between atoms: C_18  and  C_19 
ROOT
HETATM    1  C   UNL     1      -6.613   1.684 -30.934  1.00  0.00     0.251 C 
HETATM    2  N   UNL     1      -7.903   2.121 -30.719  1.00  0.00    -0.357 N 
HETATM    3  O   UNL     1      -5.643   2.132 -30.333  1.00  0.00    -0.268 OA
HETATM    4  H   UNL     1      -8.643   1.846 -31.347  1.00  0.00     0.162 HD
ENDROOT
BRANCH   1   5
HETATM    5  C   UNL     1      -6.415   0.644 -31.985  1.00  0.00     0.032 A 
HETATM    6  C   UNL     1      -7.470   0.072 -32.703  1.00  0.00     0.017 A 
HETATM    7  C   UNL     1      -7.220  -0.886 -33.699  1.00  0.00     0.008 A 
HETATM    8  C   UNL     1      -5.915  -1.309 -33.984  1.00  0.00    -0.052 A 
HETATM    9  C   UNL     1      -4.865  -0.736 -33.244  1.00  0.00     0.008 A 
HETATM   10  C   UNL     1      -5.112   0.224 -32.258  1.00  0.00     0.017 A 
BRANCH   8  11
HETATM   11  C   UNL     1      -5.566  -2.336 -35.054  1.00  0.00     0.044 C 
HETATM   12  C   UNL     1      -4.142  -2.908 -34.935  1.00  0.00     0.241 C 
HETATM   13  N   UNL     1      -4.072  -4.076 -34.002  1.00  0.00    -0.074 N 
HETATM   14  H   UNL     1      -4.191  -3.755 -33.034  1.00  0.00     0.277 HD
HETATM   15  H   UNL     1      -3.118  -4.461 -34.037  1.00  0.00     0.277 HD
HETATM   16  C   UNL     1      -5.038  -5.170 -34.309  1.00  0.00     0.232 C 
HETATM   17  C   UNL     1      -6.454  -4.623 -34.270  1.00  0.00     0.028 C 
HETATM   18  C   UNL     1      -6.633  -3.434 -35.211  1.00  0.00     0.013 C 
ENDBRANCH   8  11
ENDBRANCH   1   5
BRANCH   2  19
HETATM   19  C   UNL     1      -8.191   3.217 -29.810  1.00  0.00     0.123 C 
BRANCH  19  20
HETATM   20  C   UNL     1      -8.780   4.433 -30.526  1.00  0.00     0.026 C 
BRANCH  20  21
HETATM   21  C   UNL     1     -10.226   4.193 -30.965  1.00  0.00     0.061 C 
BRANCH  21  22
HETATM   22  C   UNL     1     -10.363   3.900 -32.422  1.00  0.00     0.044 A 
HETATM   23  N   UNL     1     -10.135   2.603 -32.853  1.00  0.00    -0.229 NA
HETATM   24  C   UNL     1     -10.258   2.525 -34.155  1.00  0.00     0.164 A 
HETATM   25  N   UNL     1     -10.088   1.385 -34.841  1.00  0.00    -0.378 N 
HETATM   26  S   UNL     1     -10.670   3.992 -34.943  1.00  0.00    -0.062 SA
HETATM   27  H   UNL     1     -10.130   0.534 -34.291  1.00  0.00     0.158 HD
HETATM   28  H   UNL     1     -10.524   1.313 -35.752  1.00  0.00     0.158 HD
HETATM   29  C   UNL     1     -10.662   4.796 -33.431  1.00  0.00     0.080 A 
ENDBRANCH  21  22
ENDBRANCH  20  21
ENDBRANCH  19  20
ENDBRANCH   2  19
TORSDOF 6
ENDMDL
MODEL 10
REMARK VINA RESULT:      -6.8      3.990      7.921
REMARK  6 active torsions:
REMARK  status: ('A' for Active; 'I' for Inactive)
REMARK    1  A    between atoms: C_2  and  C_3 
REMARK    2  A    between atoms: C_13  and  C_14 
REMARK       I    between atoms: C_14  and  N_15 
REMARK    3  A    between atoms: N_15  and  C_16 
REMARK    4  A    between atoms: C_16  and  C_17 
REMARK    5  A    between atoms: C_17  and  C_18 
REMARK    6  A    between atoms: C_18  and  C_19 
ROOT
HETATM    1  C   UNL     1      -8.571   1.634 -32.447  1.00  0.00     0.251 C 
HETATM    2  N   UNL     1      -8.148   2.087 -31.215  1.00  0.00    -0.357 N 
HETATM    3  O   UNL     1      -9.602   2.018 -32.987  1.00  0.00    -0.268 OA
HETATM    4  H   UNL     1      -7.389   1.625 -30.739  1.00  0.00     0.162 HD
ENDROOT
BRANCH   1   5
HETATM    5  C   UNL     1      -7.732   0.594 -33.113  1.00  0.00     0.032 A 
HETATM    6  C   UNL     1      -6.788  -0.178 -32.429  1.00  0.00     0.017 A 
HETATM    7  C   UNL     1      -6.045  -1.160 -33.105  1.00  0.00     0.008 A 
HETATM    8  C   UNL     1      -6.211  -1.375 -34.479  1.00  0.00    -0.052 A 
HETATM    9  C   UNL     1      -7.153  -0.579 -35.157  1.00  0.00     0.008 A 
HETATM   10  C   UNL     1      -7.901   0.392 -34.484  1.00  0.00     0.017 A 
BRANCH   8  11
HETATM   11  C   UNL     1      -5.447  -2.424 -35.278  1.00  0.00     0.044 C 
HETATM   12  C   UNL     1      -4.061  -2.765 -34.705  1.00  0.00     0.241 C 
HETATM   13  N   UNL     1      -4.124  -3.827 -33.652  1.00  0.00    -0.074 N 
HETATM   14  H   UNL     1      -4.555  -3.447 -32.800  1.00  0.00     0.277 HD
HETATM   15  H   UNL     1      -3.162  -4.067 -33.376  1.00  0.00     0.277 HD
HETATM   16  C   UNL     1      -4.823  -5.075 -34.075  1.00  0.00     0.232 C 
HETATM   17  C   UNL     1      -6.245  -4.744 -34.494  1.00  0.00     0.028 C 
HETATM   18  C   UNL     1      -6.285  -3.678 -35.587  1.00  0.00     0.013 C 
ENDBRANCH   8  11
ENDBRANCH   1   5
BRANCH   2  19
HETATM   19  C   UNL     1      -8.955   3.003 -30.427  1.00  0.00     0.123 C 
BRANCH  19  20
HETATM   20  C   UNL     1      -8.215   4.299 -30.096  1.00  0.00     0.026 C 
BRANCH  20  21
HETATM   21  C   UNL     1      -7.954   5.144 -31.345  1.00  0.00     0.061 C 
BRANCH  21  22
HETATM   22  C   UNL     1      -6.515   5.188 -31.741  1.00  0.00     0.044 A 
HETATM   23  N   UNL     1      -5.630   4.346 -31.087  1.00  0.00    -0.229 NA
HETATM   24  C   UNL     1      -4.410   4.537 -31.524  1.00  0.00     0.164 A 
HETATM   25  N   UNL     1      -3.350   3.856 -31.062  1.00  0.00    -0.378 N 
HETATM   26  S   UNL     1      -4.247   5.722 -32.754  1.00  0.00    -0.062 SA
HETATM   27  H   UNL     1      -3.565   3.001 -30.561  1.00  0.00     0.158 HD
HETATM   28  H   UNL     1      -2.533   3.795 -31.656  1.00  0.00     0.158 HD
HETATM   29  C   UNL     1      -5.933   6.017 -32.681  1.00  0.00     0.080 A 
ENDBRANCH  21  22
ENDBRANCH  20  21
ENDBRANCH  19  20
ENDBRANCH   2  19
TORSDOF 6
ENDMDL
