MODEL 1
REMARK VINA RESULT:      -9.8      0.000      0.000
REMARK  1 active torsions:
REMARK  status: ('A' for Active; 'I' for Inactive)
REMARK    1  A    between atoms: C_8  and  C_9 
ROOT
HETATM    1  C   UNL     1      -9.116   0.637 -34.697  1.00  0.00     0.073 C 
HETATM    2  C   UNL     1      -8.795   0.921 -33.273  1.00  0.00     0.062 C 
HETATM    3  N   UNL     1      -9.741   0.744 -32.346  1.00  0.00    -0.178 NA
HETATM    4  N   UNL     1      -9.119   1.025 -31.198  1.00  0.00    -0.262 N 
HETATM    5  H   UNL     1      -9.648   0.943 -30.338  1.00  0.00     0.191 HD
HETATM    6  C   UNL     1      -7.848   1.507 -31.363  1.00  0.00     0.134 C 
HETATM    7  C   UNL     1      -7.549   1.355 -32.703  1.00  0.00     0.032 C 
HETATM    8  C   UNL     1      -6.265   1.512 -33.457  1.00  0.00     0.119 C 
HETATM    9  S   UNL     1      -4.950   2.602 -32.842  1.00  0.00    -0.141 SA
HETATM   10  C   UNL     1      -5.766   3.634 -31.599  1.00  0.00     0.136 C 
HETATM   11  C   UNL     1      -6.878   4.534 -32.124  1.00  0.00     0.031 C 
HETATM   12  C   UNL     1      -6.107   2.862 -30.329  1.00  0.00     0.236 C 
HETATM   13  O   UNL     1      -5.512   3.093 -29.270  1.00  0.00    -0.272 OA
HETATM   14  N   UNL     1      -7.145   1.979 -30.287  1.00  0.00    -0.311 N 
HETATM   15  H   UNL     1      -7.416   1.722 -29.344  1.00  0.00     0.170 HD
ENDROOT
BRANCH   8  16
HETATM   16  C   UNL     1      -5.722   0.090 -33.606  1.00  0.00    -0.039 A 
HETATM   17  C   UNL     1      -6.471  -0.928 -34.232  1.00  0.00     0.021 A 
HETATM   18  C   UNL     1      -5.982  -2.238 -34.354  1.00  0.00    -0.025 A 
HETATM   19  C   UNL     1      -4.704  -2.548 -33.843  1.00  0.00    -0.026 A 
HETATM   20  C   UNL     1      -6.741  -3.246 -34.971  1.00  0.00     0.012 A 
HETATM   21  C   UNL     1      -3.955  -1.540 -33.216  1.00  0.00     0.013 A 
HETATM   22  C   UNL     1      -4.217  -3.860 -33.966  1.00  0.00     0.012 A 
HETATM   23  C   UNL     1      -4.458  -0.241 -33.094  1.00  0.00     0.009 A 
HETATM   24  C   UNL     1      -4.983  -4.852 -34.582  1.00  0.00     0.001 A 
HETATM   25  C   UNL     1      -6.244  -4.545 -35.082  1.00  0.00     0.001 A 
ENDBRANCH   8  16
TORSDOF 1
ENDMDL
MODEL 2
REMARK VINA RESULT:      -9.6      1.798      3.061
REMARK  1 active torsions:
REMARK  status: ('A' for Active; 'I' for Inactive)
REMARK    1  A    between atoms: C_8  and  C_9 
ROOT
HETATM    1  C   UNL     1      -9.188   2.824 -31.464  1.00  0.00     0.073 C 
HETATM    2  C   UNL     1      -7.778   2.992 -31.021  1.00  0.00     0.062 C 
HETATM    3  N   UNL     1      -7.488   2.887 -29.721  1.00  0.00    -0.178 NA
HETATM    4  N   UNL     1      -6.161   3.029 -29.678  1.00  0.00    -0.262 N 
HETATM    5  H   UNL     1      -5.706   2.969 -28.775  1.00  0.00     0.191 HD
HETATM    6  C   UNL     1      -5.601   3.355 -30.884  1.00  0.00     0.134 C 
HETATM    7  C   UNL     1      -6.609   3.236 -31.821  1.00  0.00     0.032 C 
HETATM    8  C   UNL     1      -6.582   3.269 -33.318  1.00  0.00     0.119 C 
HETATM    9  S   UNL     1      -5.268   4.153 -34.206  1.00  0.00    -0.141 SA
HETATM   10  C   UNL     1      -4.510   5.213 -32.951  1.00  0.00     0.136 C 
HETATM   11  C   UNL     1      -5.427   6.271 -32.349  1.00  0.00     0.031 C 
HETATM   12  C   UNL     1      -3.685   4.426 -31.941  1.00  0.00     0.236 C 
HETATM   13  O   UNL     1      -2.452   4.525 -31.916  1.00  0.00    -0.272 OA
HETATM   14  N   UNL     1      -4.273   3.679 -30.963  1.00  0.00    -0.311 N 
HETATM   15  H   UNL     1      -3.635   3.409 -30.223  1.00  0.00     0.170 HD
ENDROOT
BRANCH   8  16
HETATM   16  C   UNL     1      -6.587   1.800 -33.743  1.00  0.00    -0.039 A 
HETATM   17  C   UNL     1      -5.544   0.922 -33.386  1.00  0.00     0.021 A 
HETATM   18  C   UNL     1      -5.537  -0.423 -33.789  1.00  0.00    -0.025 A 
HETATM   19  C   UNL     1      -6.605  -0.914 -34.569  1.00  0.00    -0.026 A 
HETATM   20  C   UNL     1      -4.486  -1.286 -33.435  1.00  0.00     0.012 A 
HETATM   21  C   UNL     1      -7.646  -0.045 -34.930  1.00  0.00     0.013 A 
HETATM   22  C   UNL     1      -6.596  -2.261 -34.971  1.00  0.00     0.012 A 
HETATM   23  C   UNL     1      -7.635   1.295 -34.528  1.00  0.00     0.009 A 
HETATM   24  C   UNL     1      -5.545  -3.107 -34.612  1.00  0.00     0.001 A 
HETATM   25  C   UNL     1      -4.491  -2.619 -33.846  1.00  0.00     0.001 A 
ENDBRANCH   8  16
TORSDOF 1
ENDMDL
MODEL 3
REMARK VINA RESULT:      -9.5      2.268      3.281
REMARK  1 active torsions:
REMARK  status: ('A' for Active; 'I' for Inactive)
REMARK    1  A    between atoms: C_8  and  C_9 
ROOT
HETATM    1  C   UNL     1      -2.945   3.678 -32.978  1.00  0.00     0.073 C 
HETATM    2  C   UNL     1      -4.423   3.836 -33.014  1.00  0.00     0.062 C 
HETATM    3  N   UNL     1      -4.965   4.679 -33.897  1.00  0.00    -0.178 NA
HETATM    4  N   UNL     1      -6.280   4.540 -33.706  1.00  0.00    -0.262 N 
HETATM    5  H   UNL     1      -6.905   5.084 -34.288  1.00  0.00     0.191 HD
HETATM    6  C   UNL     1      -6.601   3.741 -32.642  1.00  0.00     0.134 C 
HETATM    7  C   UNL     1      -5.417   3.167 -32.220  1.00  0.00     0.032 C 
HETATM    8  C   UNL     1      -5.141   2.069 -31.240  1.00  0.00     0.119 C 
HETATM    9  S   UNL     1      -6.300   1.714 -29.888  1.00  0.00    -0.141 SA
HETATM   10  C   UNL     1      -7.363   3.176 -29.811  1.00  0.00     0.136 C 
HETATM   11  C   UNL     1      -6.658   4.480 -29.459  1.00  0.00     0.031 C 
HETATM   12  C   UNL     1      -8.326   3.262 -30.989  1.00  0.00     0.236 C 
HETATM   13  O   UNL     1      -9.541   3.100 -30.827  1.00  0.00    -0.272 OA
HETATM   14  N   UNL     1      -7.903   3.628 -32.233  1.00  0.00    -0.311 N 
HETATM   15  H   UNL     1      -8.660   3.881 -32.858  1.00  0.00     0.170 HD
ENDROOT
BRANCH   8  16
HETATM   16  C   UNL     1      -4.956   0.816 -32.096  1.00  0.00    -0.039 A 
HETATM   17  C   UNL     1      -6.055   0.129 -32.652  1.00  0.00     0.021 A 
HETATM   18  C   UNL     1      -5.889  -1.032 -33.424  1.00  0.00    -0.025 A 
HETATM   19  C   UNL     1      -4.588  -1.524 -33.658  1.00  0.00    -0.026 A 
HETATM   20  C   UNL     1      -6.993  -1.714 -33.964  1.00  0.00     0.012 A 
HETATM   21  C   UNL     1      -3.490  -0.847 -33.106  1.00  0.00     0.013 A 
HETATM   22  C   UNL     1      -4.425  -2.687 -34.432  1.00  0.00     0.012 A 
HETATM   23  C   UNL     1      -3.670   0.304 -32.332  1.00  0.00     0.009 A 
HETATM   24  C   UNL     1      -5.531  -3.353 -34.961  1.00  0.00     0.001 A 
HETATM   25  C   UNL     1      -6.813  -2.868 -34.726  1.00  0.00     0.001 A 
ENDBRANCH   8  16
TORSDOF 1
ENDMDL
MODEL 4
REMARK VINA RESULT:      -9.4      1.970      2.827
REMARK  1 active torsions:
REMARK  status: ('A' for Active; 'I' for Inactive)
REMARK    1  A    between atoms: C_8  and  C_9 
ROOT
HETATM    1  C   UNL     1      -8.807   2.330 -31.409  1.00  0.00     0.073 C 
HETATM    2  C   UNL     1      -7.606   2.986 -30.827  1.00  0.00     0.062 C 
HETATM    3  N   UNL     1      -7.526   3.137 -29.502  1.00  0.00    -0.178 NA
HETATM    4  N   UNL     1      -6.326   3.694 -29.317  1.00  0.00    -0.262 N 
HETATM    5  H   UNL     1      -6.036   3.891 -28.367  1.00  0.00     0.191 HD
HETATM    6  C   UNL     1      -5.689   4.030 -30.480  1.00  0.00     0.134 C 
HETATM    7  C   UNL     1      -6.441   3.488 -31.503  1.00  0.00     0.032 C 
HETATM    8  C   UNL     1      -6.169   3.346 -32.969  1.00  0.00     0.119 C 
HETATM    9  S   UNL     1      -5.039   4.484 -33.820  1.00  0.00    -0.141 SA
HETATM   10  C   UNL     1      -4.853   5.873 -32.676  1.00  0.00     0.136 C 
HETATM   11  C   UNL     1      -6.128   6.653 -32.381  1.00  0.00     0.031 C 
HETATM   12  C   UNL     1      -4.018   5.515 -31.452  1.00  0.00     0.236 C 
HETATM   13  O   UNL     1      -2.892   6.000 -31.289  1.00  0.00    -0.272 OA
HETATM   14  N   UNL     1      -4.521   4.745 -30.445  1.00  0.00    -0.311 N 
HETATM   15  H   UNL     1      -3.969   4.782 -29.595  1.00  0.00     0.170 HD
ENDROOT
BRANCH   8  16
HETATM   16  C   UNL     1      -5.670   1.910 -33.138  1.00  0.00    -0.039 A 
HETATM   17  C   UNL     1      -6.388   0.960 -33.893  1.00  0.00     0.021 A 
HETATM   18  C   UNL     1      -5.942  -0.364 -34.035  1.00  0.00    -0.025 A 
HETATM   19  C   UNL     1      -4.740  -0.756 -33.411  1.00  0.00    -0.026 A 
HETATM   20  C   UNL     1      -6.671  -1.304 -34.782  1.00  0.00     0.012 A 
HETATM   21  C   UNL     1      -4.021   0.183 -32.656  1.00  0.00     0.013 A 
HETATM   22  C   UNL     1      -4.295  -2.082 -33.555  1.00  0.00     0.012 A 
HETATM   23  C   UNL     1      -4.482   1.497 -32.516  1.00  0.00     0.009 A 
HETATM   24  C   UNL     1      -5.031  -3.005 -34.300  1.00  0.00     0.001 A 
HETATM   25  C   UNL     1      -6.218  -2.616 -34.912  1.00  0.00     0.001 A 
ENDBRANCH   8  16
TORSDOF 1
ENDMDL
MODEL 5
REMARK VINA RESULT:      -9.2      3.562      5.033
REMARK  1 active torsions:
REMARK  status: ('A' for Active; 'I' for Inactive)
REMARK    1  A    between atoms: C_8  and  C_9 
ROOT
HETATM    1  C   UNL     1      -8.099   3.632 -31.241  1.00  0.00     0.073 C 
HETATM    2  C   UNL     1      -8.758   3.860 -32.555  1.00  0.00     0.062 C 
HETATM    3  N   UNL     1      -8.531   5.005 -33.206  1.00  0.00    -0.178 NA
HETATM    4  N   UNL     1      -9.211   4.863 -34.346  1.00  0.00    -0.262 N 
HETATM    5  H   UNL     1      -9.173   5.619 -35.019  1.00  0.00     0.191 HD
HETATM    6  C   UNL     1      -9.975   3.728 -34.396  1.00  0.00     0.134 C 
HETATM    7  C   UNL     1      -9.628   2.981 -33.287  1.00  0.00     0.032 C 
HETATM    8  C   UNL     1      -9.966   1.577 -32.891  1.00  0.00     0.119 C 
HETATM    9  S   UNL     1     -11.481   0.777 -33.494  1.00  0.00    -0.141 SA
HETATM   10  C   UNL     1     -12.490   2.141 -34.122  1.00  0.00     0.136 C 
HETATM   11  C   UNL     1     -12.917   3.171 -33.083  1.00  0.00     0.031 C 
HETATM   12  C   UNL     1     -11.945   2.724 -35.421  1.00  0.00     0.236 C 
HETATM   13  O   UNL     1     -12.550   2.568 -36.488  1.00  0.00    -0.272 OA
HETATM   14  N   UNL     1     -10.841   3.525 -35.437  1.00  0.00    -0.311 N 
HETATM   15  H   UNL     1     -10.727   4.036 -36.305  1.00  0.00     0.170 HD
ENDROOT
BRANCH   8  16
HETATM   16  C   UNL     1      -8.750   0.749 -33.309  1.00  0.00    -0.039 A 
HETATM   17  C   UNL     1      -7.739   0.401 -32.389  1.00  0.00     0.021 A 
HETATM   18  C   UNL     1      -6.613  -0.344 -32.774  1.00  0.00    -0.025 A 
HETATM   19  C   UNL     1      -6.488  -0.762 -34.115  1.00  0.00    -0.026 A 
HETATM   20  C   UNL     1      -5.607  -0.676 -31.851  1.00  0.00     0.012 A 
HETATM   21  C   UNL     1      -7.489  -0.417 -35.036  1.00  0.00     0.013 A 
HETATM   22  C   UNL     1      -5.360  -1.508 -34.498  1.00  0.00     0.012 A 
HETATM   23  C   UNL     1      -8.602   0.333 -34.641  1.00  0.00     0.009 A 
HETATM   24  C   UNL     1      -4.368  -1.831 -33.569  1.00  0.00     0.001 A 
HETATM   25  C   UNL     1      -4.492  -1.414 -32.248  1.00  0.00     0.001 A 
ENDBRANCH   8  16
TORSDOF 1
ENDMDL
MODEL 6
REMARK VINA RESULT:      -9.1      1.322      2.105
REMARK  1 active torsions:
REMARK  status: ('A' for Active; 'I' for Inactive)
REMARK    1  A    between atoms: C_8  and  C_9 
ROOT
HETATM    1  C   UNL     1      -9.969   0.483 -33.310  1.00  0.00     0.073 C 
HETATM    2  C   UNL     1      -9.077   1.204 -32.365  1.00  0.00     0.062 C 
HETATM    3  N   UNL     1      -9.423   1.284 -31.076  1.00  0.00    -0.178 NA
HETATM    4  N   UNL     1      -8.400   1.930 -30.510  1.00  0.00    -0.262 N 
HETATM    5  H   UNL     1      -8.437   2.095 -29.512  1.00  0.00     0.191 HD
HETATM    6  C   UNL     1      -7.472   2.387 -31.407  1.00  0.00     0.134 C 
HETATM    7  C   UNL     1      -7.816   1.842 -32.629  1.00  0.00     0.032 C 
HETATM    8  C   UNL     1      -7.093   1.810 -33.940  1.00  0.00     0.119 C 
HETATM    9  S   UNL     1      -5.875   3.088 -34.364  1.00  0.00    -0.141 SA
HETATM   10  C   UNL     1      -6.189   4.419 -33.179  1.00  0.00     0.136 C 
HETATM   11  C   UNL     1      -7.564   5.068 -33.273  1.00  0.00     0.031 C 
HETATM   12  C   UNL     1      -5.740   4.063 -31.766  1.00  0.00     0.236 C 
HETATM   13  O   UNL     1      -4.773   4.632 -31.247  1.00  0.00    -0.272 OA
HETATM   14  N   UNL     1      -6.449   3.195 -30.989  1.00  0.00    -0.311 N 
HETATM   15  H   UNL     1      -6.192   3.230 -30.009  1.00  0.00     0.170 HD
ENDROOT
BRANCH   8  16
HETATM   16  C   UNL     1      -6.427   0.434 -33.986  1.00  0.00    -0.039 A 
HETATM   17  C   UNL     1      -5.463   0.045 -33.033  1.00  0.00     0.021 A 
HETATM   18  C   UNL     1      -4.837  -1.211 -33.083  1.00  0.00    -0.025 A 
HETATM   19  C   UNL     1      -5.183  -2.113 -34.111  1.00  0.00    -0.026 A 
HETATM   20  C   UNL     1      -3.871  -1.583 -32.134  1.00  0.00     0.012 A 
HETATM   21  C   UNL     1      -6.139  -1.732 -35.064  1.00  0.00     0.013 A 
HETATM   22  C   UNL     1      -4.555  -3.370 -34.159  1.00  0.00     0.012 A 
HETATM   23  C   UNL     1      -6.749  -0.474 -35.007  1.00  0.00     0.009 A 
HETATM   24  C   UNL     1      -3.596  -3.726 -33.208  1.00  0.00     0.001 A 
HETATM   25  C   UNL     1      -3.254  -2.833 -32.198  1.00  0.00     0.001 A 
ENDBRANCH   8  16
TORSDOF 1
ENDMDL
MODEL 7
REMARK VINA RESULT:      -9.0      2.635      3.607
REMARK  1 active torsions:
REMARK  status: ('A' for Active; 'I' for Inactive)
REMARK    1  A    between atoms: C_8  and  C_9 
ROOT
HETATM    1  C   UNL     1      -3.027   3.409 -31.940  1.00  0.00     0.073 C 
HETATM    2  C   UNL     1      -4.224   3.706 -32.770  1.00  0.00     0.062 C 
HETATM    3  N   UNL     1      -4.099   4.520 -33.823  1.00  0.00    -0.178 NA
HETATM    4  N   UNL     1      -5.318   4.526 -34.367  1.00  0.00    -0.262 N 
HETATM    5  H   UNL     1      -5.462   5.077 -35.205  1.00  0.00     0.191 HD
HETATM    6  C   UNL     1      -6.256   3.855 -33.629  1.00  0.00     0.134 C 
HETATM    7  C   UNL     1      -5.564   3.207 -32.625  1.00  0.00     0.032 C 
HETATM    8  C   UNL     1      -5.995   2.175 -31.628  1.00  0.00     0.119 C 
HETATM    9  S   UNL     1      -7.730   2.050 -31.108  1.00  0.00    -0.141 SA
HETATM   10  C   UNL     1      -8.474   3.610 -31.645  1.00  0.00     0.136 C 
HETATM   11  C   UNL     1      -7.905   4.864 -30.993  1.00  0.00     0.031 C 
HETATM   12  C   UNL     1      -8.641   3.688 -33.158  1.00  0.00     0.236 C 
HETATM   13  O   UNL     1      -9.765   3.660 -33.673  1.00  0.00    -0.272 OA
HETATM   14  N   UNL     1      -7.578   3.904 -33.984  1.00  0.00    -0.311 N 
HETATM   15  H   UNL     1      -7.846   4.175 -34.923  1.00  0.00     0.170 HD
ENDROOT
BRANCH   8  16
HETATM   16  C   UNL     1      -5.543   0.841 -32.226  1.00  0.00    -0.039 A 
HETATM   17  C   UNL     1      -6.379   0.090 -33.078  1.00  0.00     0.021 A 
HETATM   18  C   UNL     1      -5.974  -1.143 -33.614  1.00  0.00    -0.025 A 
HETATM   19  C   UNL     1      -4.695  -1.645 -33.297  1.00  0.00    -0.026 A 
HETATM   20  C   UNL     1      -6.820  -1.887 -34.454  1.00  0.00     0.012 A 
HETATM   21  C   UNL     1      -3.859  -0.904 -32.448  1.00  0.00     0.013 A 
HETATM   22  C   UNL     1      -4.292  -2.880 -33.835  1.00  0.00     0.012 A 
HETATM   23  C   UNL     1      -4.279   0.319 -31.914  1.00  0.00     0.009 A 
HETATM   24  C   UNL     1      -5.143  -3.608 -34.668  1.00  0.00     0.001 A 
HETATM   25  C   UNL     1      -6.406  -3.112 -34.975  1.00  0.00     0.001 A 
ENDBRANCH   8  16
TORSDOF 1
ENDMDL
MODEL 8
REMARK VINA RESULT:      -8.9      3.714      5.599
REMARK  1 active torsions:
REMARK  status: ('A' for Active; 'I' for Inactive)
REMARK    1  A    between atoms: C_8  and  C_9 
ROOT
HETATM    1  C   UNL     1      -6.502   6.783 -32.012  1.00  0.00     0.073 C 
HETATM    2  C   UNL     1      -5.235   6.399 -31.336  1.00  0.00     0.062 C 
HETATM    3  N   UNL     1      -5.108   6.612 -30.023  1.00  0.00    -0.178 NA
HETATM    4  N   UNL     1      -3.903   6.113 -29.734  1.00  0.00    -0.262 N 
HETATM    5  H   UNL     1      -3.592   6.151 -28.771  1.00  0.00     0.191 HD
HETATM    6  C   UNL     1      -3.195   5.709 -30.833  1.00  0.00     0.134 C 
HETATM    7  C   UNL     1      -4.069   5.776 -31.901  1.00  0.00     0.032 C 
HETATM    8  C   UNL     1      -3.952   5.289 -33.312  1.00  0.00     0.119 C 
HETATM    9  S   UNL     1      -2.326   5.088 -34.096  1.00  0.00    -0.141 SA
HETATM   10  C   UNL     1      -1.195   6.013 -33.029  1.00  0.00     0.136 C 
HETATM   11  C   UNL     1      -1.460   7.511 -32.937  1.00  0.00     0.031 C 
HETATM   12  C   UNL     1      -0.949   5.319 -31.695  1.00  0.00     0.236 C 
HETATM   13  O   UNL     1       0.153   4.824 -31.432  1.00  0.00    -0.272 OA
HETATM   14  N   UNL     1      -1.889   5.317 -30.706  1.00  0.00    -0.311 N 
HETATM   15  H   UNL     1      -1.522   5.043 -29.802  1.00  0.00     0.170 HD
ENDROOT
BRANCH   8  16
HETATM   16  C   UNL     1      -4.695   3.953 -33.328  1.00  0.00    -0.039 A 
HETATM   17  C   UNL     1      -4.256   2.851 -32.565  1.00  0.00     0.021 A 
HETATM   18  C   UNL     1      -4.927   1.618 -32.591  1.00  0.00    -0.025 A 
HETATM   19  C   UNL     1      -6.075   1.475 -33.398  1.00  0.00    -0.026 A 
HETATM   20  C   UNL     1      -4.474   0.524 -31.834  1.00  0.00     0.012 A 
HETATM   21  C   UNL     1      -6.516   2.566 -34.161  1.00  0.00     0.013 A 
HETATM   22  C   UNL     1      -6.745   0.239 -33.422  1.00  0.00     0.012 A 
HETATM   23  C   UNL     1      -5.833   3.787 -34.132  1.00  0.00     0.009 A 
HETATM   24  C   UNL     1      -6.283  -0.839 -32.664  1.00  0.00     0.001 A 
HETATM   25  C   UNL     1      -5.148  -0.696 -31.873  1.00  0.00     0.001 A 
ENDBRANCH   8  16
TORSDOF 1
ENDMDL
MODEL 9
REMARK VINA RESULT:      -8.8      3.121      5.458
REMARK  1 active torsions:
REMARK  status: ('A' for Active; 'I' for Inactive)
REMARK    1  A    between atoms: C_8  and  C_9 
ROOT
HETATM    1  C   UNL     1      -8.369   4.633 -31.438  1.00  0.00     0.073 C 
HETATM    2  C   UNL     1      -7.678   3.437 -30.888  1.00  0.00     0.062 C 
HETATM    3  N   UNL     1      -7.513   3.331 -29.566  1.00  0.00    -0.178 NA
HETATM    4  N   UNL     1      -6.923   2.143 -29.413  1.00  0.00    -0.262 N 
HETATM    5  H   UNL     1      -6.710   1.837 -28.471  1.00  0.00     0.191 HD
HETATM    6  C   UNL     1      -6.580   1.540 -30.593  1.00  0.00     0.134 C 
HETATM    7  C   UNL     1      -7.152   2.301 -31.594  1.00  0.00     0.032 C 
HETATM    8  C   UNL     1      -7.300   2.057 -33.064  1.00  0.00     0.119 C 
HETATM    9  S   UNL     1      -6.140   0.976 -33.950  1.00  0.00    -0.141 SA
HETATM   10  C   UNL     1      -4.737   0.801 -32.822  1.00  0.00     0.136 C 
HETATM   11  C   UNL     1      -3.987   2.089 -32.505  1.00  0.00     0.031 C 
HETATM   12  C   UNL     1      -5.062  -0.069 -31.614  1.00  0.00     0.236 C 
HETATM   13  O   UNL     1      -4.547  -1.185 -31.480  1.00  0.00    -0.272 OA
HETATM   14  N   UNL     1      -5.835   0.391 -30.589  1.00  0.00    -0.311 N 
HETATM   15  H   UNL     1      -5.776  -0.178 -29.753  1.00  0.00     0.170 HD
ENDROOT
BRANCH   8  16
HETATM   16  C   UNL     1      -8.724   1.525 -33.232  1.00  0.00    -0.039 A 
HETATM   17  C   UNL     1      -9.706   2.246 -33.942  1.00  0.00     0.021 A 
HETATM   18  C   UNL     1     -11.018   1.768 -34.083  1.00  0.00    -0.025 A 
HETATM   19  C   UNL     1     -11.367   0.530 -33.503  1.00  0.00    -0.026 A 
HETATM   20  C   UNL     1     -11.990   2.500 -34.785  1.00  0.00     0.012 A 
HETATM   21  C   UNL     1     -10.396  -0.191 -32.793  1.00  0.00     0.013 A 
HETATM   22  C   UNL     1     -12.682   0.054 -33.645  1.00  0.00     0.012 A 
HETATM   23  C   UNL     1      -9.094   0.301 -32.653  1.00  0.00     0.009 A 
HETATM   24  C   UNL     1     -13.638   0.793 -34.346  1.00  0.00     0.001 A 
HETATM   25  C   UNL     1     -13.292   2.015 -34.913  1.00  0.00     0.001 A 
ENDBRANCH   8  16
TORSDOF 1
ENDMDL
MODEL 10
REMARK VINA RESULT:      -8.4      3.212      5.729
REMARK  1 active torsions:
REMARK  status: ('A' for Active; 'I' for Inactive)
REMARK    1  A    between atoms: C_8  and  C_9 
ROOT
HETATM    1  C   UNL     1      -8.274   5.671 -31.750  1.00  0.00     0.073 C 
HETATM    2  C   UNL     1      -7.965   4.353 -31.134  1.00  0.00     0.062 C 
HETATM    3  N   UNL     1      -8.028   4.226 -29.805  1.00  0.00    -0.178 NA
HETATM    4  N   UNL     1      -7.756   2.936 -29.595  1.00  0.00    -0.262 N 
HETATM    5  H   UNL     1      -7.761   2.599 -28.640  1.00  0.00     0.191 HD
HETATM    6  C   UNL     1      -7.388   2.258 -30.726  1.00  0.00     0.134 C 
HETATM    7  C   UNL     1      -7.614   3.119 -31.782  1.00  0.00     0.032 C 
HETATM    8  C   UNL     1      -7.593   2.901 -33.263  1.00  0.00     0.119 C 
HETATM    9  S   UNL     1      -6.592   1.573 -33.994  1.00  0.00    -0.141 SA
HETATM   10  C   UNL     1      -5.451   1.092 -32.676  1.00  0.00     0.136 C 
HETATM   11  C   UNL     1      -4.482   2.176 -32.221  1.00  0.00     0.031 C 
HETATM   12  C   UNL     1      -6.143   0.332 -31.550  1.00  0.00     0.236 C 
HETATM   13  O   UNL     1      -5.923  -0.871 -31.370  1.00  0.00    -0.272 OA
HETATM   14  N   UNL     1      -6.935   0.969 -30.640  1.00  0.00    -0.311 N 
HETATM   15  H   UNL     1      -7.133   0.410 -29.818  1.00  0.00     0.170 HD
ENDROOT
BRANCH   8  16
HETATM   16  C   UNL     1      -9.059   2.709 -33.652  1.00  0.00    -0.039 A 
HETATM   17  C   UNL     1      -9.767   1.535 -33.320  1.00  0.00     0.021 A 
HETATM   18  C   UNL     1     -11.108   1.349 -33.690  1.00  0.00    -0.025 A 
HETATM   19  C   UNL     1     -11.771   2.364 -34.411  1.00  0.00    -0.026 A 
HETATM   20  C   UNL     1     -11.799   0.171 -33.362  1.00  0.00     0.012 A 
HETATM   21  C   UNL     1     -11.072   3.533 -34.748  1.00  0.00     0.013 A 
HETATM   22  C   UNL     1     -13.114   2.175 -34.782  1.00  0.00     0.012 A 
HETATM   23  C   UNL     1      -9.733   3.702 -34.379  1.00  0.00     0.009 A 
HETATM   24  C   UNL     1     -13.788   0.999 -34.448  1.00  0.00     0.001 A 
HETATM   25  C   UNL     1     -13.131  -0.002 -33.740  1.00  0.00     0.001 A 
ENDBRANCH   8  16
TORSDOF 1
ENDMDL
