MODEL 1
REMARK VINA RESULT:      -8.5      0.000      0.000
REMARK  8 active torsions:
REMARK  status: ('A' for Active; 'I' for Inactive)
REMARK    1  A    between atoms: O_2  and  C_3 
REMARK    2  A    between atoms: C_4  and  O_5 
REMARK    3  A    between atoms: C_8  and  C_9 
REMARK    4  A    between atoms: C_14  and  C_15 
REMARK    5  A    between atoms: N_16  and  N_17 
REMARK       I    between atoms: N_17  and  C_18 
REMARK    6  A    between atoms: C_18  and  C_19 
REMARK    7  A    between atoms: C_19  and  C_20 
REMARK    8  A    between atoms: C_20  and  C_21 
ROOT
HETATM    1  C   UNL     1      -7.705   0.703 -32.189  1.00  0.00     0.100 A 
HETATM    2  N   UNL     1      -8.875   0.387 -31.604  1.00  0.00    -0.174 NA
HETATM    3  N   UNL     1      -9.316   1.534 -31.078  1.00  0.00    -0.288 N 
HETATM    4  H   UNL     1     -10.195   1.524 -30.573  1.00  0.00     0.188 HD
HETATM    5  C   UNL     1      -8.493   2.589 -31.308  1.00  0.00     0.124 A 
HETATM    6  C   UNL     1      -7.433   2.103 -32.048  1.00  0.00     0.031 A 
ENDROOT
BRANCH   6   7
HETATM    7  C   UNL     1      -6.325   2.886 -32.553  1.00  0.00     0.154 C 
HETATM    8  N   UNL     1      -5.508   3.420 -31.699  1.00  0.00    -0.184 NA
BRANCH   8   9
HETATM    9  N   UNL     1      -4.452   4.163 -32.163  1.00  0.00    -0.247 N 
HETATM   10  C   UNL     1      -3.108   3.835 -32.043  1.00  0.00     0.237 C 
HETATM   11  O   UNL     1      -2.658   2.843 -31.476  1.00  0.00    -0.272 OA
HETATM   12  H   UNL     1      -4.717   4.836 -32.877  1.00  0.00     0.192 HD
BRANCH  10  13
HETATM   13  C   UNL     1      -2.192   4.847 -32.703  1.00  0.00     0.105 C 
BRANCH  13  14
HETATM   14  C   UNL     1      -0.966   5.176 -31.851  1.00  0.00     0.014 C 
BRANCH  14  15
HETATM   15  C   UNL     1      -0.416   6.613 -32.000  1.00  0.00    -0.014 C 
HETATM   16  C   UNL     1      -1.478   7.710 -31.806  1.00  0.00     0.004 C 
HETATM   17  C   UNL     1      -1.956   7.828 -30.360  1.00  0.00     0.000 C 
HETATM   18  C   UNL     1      -0.791   8.040 -29.399  1.00  0.00     0.000 C 
HETATM   19  C   UNL     1       0.292   6.978 -29.565  1.00  0.00     0.000 C 
HETATM   20  C   UNL     1       0.748   6.854 -31.019  1.00  0.00     0.004 C 
ENDBRANCH  14  15
ENDBRANCH  13  14
ENDBRANCH  10  13
ENDBRANCH   8   9
ENDBRANCH   6   7
BRANCH   1  21
HETATM   21  C   UNL     1      -6.911  -0.347 -32.837  1.00  0.00    -0.002 A 
HETATM   22  C   UNL     1      -5.639  -0.668 -32.339  1.00  0.00     0.053 A 
HETATM   23  C   UNL     1      -4.845  -1.644 -32.955  1.00  0.00     0.102 A 
HETATM   24  C   UNL     1      -5.334  -2.328 -34.084  1.00  0.00     0.101 A 
HETATM   25  C   UNL     1      -6.595  -2.002 -34.590  1.00  0.00     0.040 A 
HETATM   26  C   UNL     1      -7.373  -1.012 -33.979  1.00  0.00     0.017 A 
BRANCH  23  27
HETATM   27  O   UNL     1      -3.591  -2.005 -32.524  1.00  0.00    -0.353 OA
HETATM   28  C   UNL     1      -2.786  -0.990 -31.941  1.00  0.00     0.210 C 
ENDBRANCH  23  27
BRANCH  24  29
HETATM   29  O   UNL     1      -4.501  -3.276 -34.625  1.00  0.00    -0.353 OA
HETATM   30  C   UNL     1      -4.855  -4.640 -34.458  1.00  0.00     0.210 C 
ENDBRANCH  24  29
ENDBRANCH   1  21
TORSDOF 8
ENDMDL
MODEL 2
REMARK VINA RESULT:      -8.2      2.715      9.391
REMARK  8 active torsions:
REMARK  status: ('A' for Active; 'I' for Inactive)
REMARK    1  A    between atoms: O_2  and  C_3 
REMARK    2  A    between atoms: C_4  and  O_5 
REMARK    3  A    between atoms: C_8  and  C_9 
REMARK    4  A    between atoms: C_14  and  C_15 
REMARK    5  A    between atoms: N_16  and  N_17 
REMARK       I    between atoms: N_17  and  C_18 
REMARK    6  A    between atoms: C_18  and  C_19 
REMARK    7  A    between atoms: C_19  and  C_20 
REMARK    8  A    between atoms: C_20  and  C_21 
ROOT
HETATM    1  C   UNL     1      -1.692   6.116 -32.511  1.00  0.00     0.100 A 
HETATM    2  N   UNL     1      -1.606   7.216 -33.282  1.00  0.00    -0.174 NA
HETATM    3  N   UNL     1      -2.125   6.850 -34.459  1.00  0.00    -0.288 N 
HETATM    4  H   UNL     1      -2.152   7.536 -35.206  1.00  0.00     0.188 HD
HETATM    5  C   UNL     1      -2.561   5.565 -34.484  1.00  0.00     0.124 A 
HETATM    6  C   UNL     1      -2.318   5.046 -33.228  1.00  0.00     0.031 A 
ENDROOT
BRANCH   6   7
HETATM    7  C   UNL     1      -2.656   3.709 -32.786  1.00  0.00     0.154 C 
HETATM    8  N   UNL     1      -3.491   3.577 -31.803  1.00  0.00    -0.184 NA
BRANCH   8   9
HETATM    9  N   UNL     1      -3.822   2.315 -31.376  1.00  0.00    -0.247 N 
HETATM   10  C   UNL     1      -5.108   1.804 -31.259  1.00  0.00     0.237 C 
HETATM   11  O   UNL     1      -6.148   2.413 -31.494  1.00  0.00    -0.272 OA
HETATM   12  H   UNL     1      -3.050   1.657 -31.431  1.00  0.00     0.192 HD
BRANCH  10  13
HETATM   13  C   UNL     1      -5.129   0.358 -30.800  1.00  0.00     0.105 C 
BRANCH  13  14
HETATM   14  C   UNL     1      -5.762  -0.577 -31.831  1.00  0.00     0.014 C 
BRANCH  14  15
HETATM   15  C   UNL     1      -5.297  -0.372 -33.291  1.00  0.00    -0.014 C 
HETATM   16  C   UNL     1      -4.091  -1.241 -33.689  1.00  0.00     0.004 C 
HETATM   17  C   UNL     1      -4.434  -2.726 -33.794  1.00  0.00     0.000 C 
HETATM   18  C   UNL     1      -5.600  -2.966 -34.749  1.00  0.00     0.000 C 
HETATM   19  C   UNL     1      -6.816  -2.114 -34.396  1.00  0.00     0.000 C 
HETATM   20  C   UNL     1      -6.457  -0.634 -34.272  1.00  0.00     0.004 C 
ENDBRANCH  14  15
ENDBRANCH  13  14
ENDBRANCH  10  13
ENDBRANCH   8   9
ENDBRANCH   6   7
BRANCH   1  21
HETATM   21  C   UNL     1      -1.163   6.147 -31.142  1.00  0.00    -0.002 A 
HETATM   22  C   UNL     1      -1.831   6.887 -30.153  1.00  0.00     0.053 A 
HETATM   23  C   UNL     1      -1.334   6.961 -28.845  1.00  0.00     0.102 A 
HETATM   24  C   UNL     1      -0.155   6.270 -28.509  1.00  0.00     0.101 A 
HETATM   25  C   UNL     1       0.519   5.542 -29.495  1.00  0.00     0.040 A 
HETATM   26  C   UNL     1       0.024   5.490 -30.803  1.00  0.00     0.017 A 
BRANCH  23  27
HETATM   27  O   UNL     1      -1.931   7.669 -27.831  1.00  0.00    -0.353 OA
HETATM   28  C   UNL     1      -3.136   7.143 -27.292  1.00  0.00     0.210 C 
ENDBRANCH  23  27
BRANCH  24  29
HETATM   29  O   UNL     1       0.263   6.384 -27.206  1.00  0.00    -0.353 OA
HETATM   30  C   UNL     1       1.290   7.322 -26.922  1.00  0.00     0.210 C 
ENDBRANCH  24  29
ENDBRANCH   1  21
TORSDOF 8
ENDMDL
MODEL 3
REMARK VINA RESULT:      -7.9      1.481      2.426
REMARK  8 active torsions:
REMARK  status: ('A' for Active; 'I' for Inactive)
REMARK    1  A    between atoms: O_2  and  C_3 
REMARK    2  A    between atoms: C_4  and  O_5 
REMARK    3  A    between atoms: C_8  and  C_9 
REMARK    4  A    between atoms: C_14  and  C_15 
REMARK    5  A    between atoms: N_16  and  N_17 
REMARK       I    between atoms: N_17  and  C_18 
REMARK    6  A    between atoms: C_18  and  C_19 
REMARK    7  A    between atoms: C_19  and  C_20 
REMARK    8  A    between atoms: C_20  and  C_21 
ROOT
HETATM    1  C   UNL     1      -7.241   0.600 -32.941  1.00  0.00     0.100 A 
HETATM    2  N   UNL     1      -8.433   0.282 -32.403  1.00  0.00    -0.174 NA
HETATM    3  N   UNL     1      -9.047   1.455 -32.215  1.00  0.00    -0.288 N 
HETATM    4  H   UNL     1      -9.974   1.451 -31.802  1.00  0.00     0.188 HD
HETATM    5  C   UNL     1      -8.315   2.523 -32.622  1.00  0.00     0.124 A 
HETATM    6  C   UNL     1      -7.132   2.017 -33.124  1.00  0.00     0.031 A 
ENDROOT
BRANCH   6   7
HETATM    7  C   UNL     1      -6.059   2.796 -33.704  1.00  0.00     0.154 C 
HETATM    8  N   UNL     1      -5.182   3.326 -32.910  1.00  0.00    -0.184 NA
BRANCH   8   9
HETATM    9  N   UNL     1      -4.158   4.065 -33.447  1.00  0.00    -0.247 N 
HETATM   10  C   UNL     1      -4.146   5.444 -33.613  1.00  0.00     0.237 C 
HETATM   11  O   UNL     1      -5.063   6.211 -33.330  1.00  0.00    -0.272 OA
HETATM   12  H   UNL     1      -3.267   3.577 -33.447  1.00  0.00     0.192 HD
BRANCH  10  13
HETATM   13  C   UNL     1      -2.844   5.958 -34.196  1.00  0.00     0.105 C 
BRANCH  13  14
HETATM   14  C   UNL     1      -1.937   6.594 -33.143  1.00  0.00     0.014 C 
BRANCH  14  15
HETATM   15  C   UNL     1      -1.729   5.765 -31.854  1.00  0.00    -0.014 C 
HETATM   16  C   UNL     1      -0.261   5.392 -31.584  1.00  0.00     0.004 C 
HETATM   17  C   UNL     1       0.598   6.593 -31.191  1.00  0.00     0.000 C 
HETATM   18  C   UNL     1       0.009   7.335 -29.995  1.00  0.00     0.000 C 
HETATM   19  C   UNL     1      -1.452   7.716 -30.217  1.00  0.00     0.000 C 
HETATM   20  C   UNL     1      -2.296   6.511 -30.630  1.00  0.00     0.004 C 
ENDBRANCH  14  15
ENDBRANCH  13  14
ENDBRANCH  10  13
ENDBRANCH   8   9
ENDBRANCH   6   7
BRANCH   1  21
HETATM   21  C   UNL     1      -6.274  -0.462 -33.241  1.00  0.00    -0.002 A 
HETATM   22  C   UNL     1      -6.540  -1.377 -34.271  1.00  0.00     0.053 A 
HETATM   23  C   UNL     1      -5.650  -2.420 -34.560  1.00  0.00     0.102 A 
HETATM   24  C   UNL     1      -4.461  -2.546 -33.817  1.00  0.00     0.101 A 
HETATM   25  C   UNL     1      -4.200  -1.644 -32.782  1.00  0.00     0.040 A 
HETATM   26  C   UNL     1      -5.104  -0.617 -32.489  1.00  0.00     0.017 A 
BRANCH  23  27
HETATM   27  O   UNL     1      -5.849  -3.353 -35.549  1.00  0.00    -0.353 OA
HETATM   28  C   UNL     1      -6.699  -4.450 -35.248  1.00  0.00     0.210 C 
ENDBRANCH  23  27
BRANCH  24  29
HETATM   29  O   UNL     1      -3.638  -3.588 -34.166  1.00  0.00    -0.353 OA
HETATM   30  C   UNL     1      -3.486  -4.650 -33.236  1.00  0.00     0.210 C 
ENDBRANCH  24  29
ENDBRANCH   1  21
TORSDOF 8
ENDMDL
MODEL 4
REMARK VINA RESULT:      -7.6      2.870      9.468
REMARK  8 active torsions:
REMARK  status: ('A' for Active; 'I' for Inactive)
REMARK    1  A    between atoms: O_2  and  C_3 
REMARK    2  A    between atoms: C_4  and  O_5 
REMARK    3  A    between atoms: C_8  and  C_9 
REMARK    4  A    between atoms: C_14  and  C_15 
REMARK    5  A    between atoms: N_16  and  N_17 
REMARK       I    between atoms: N_17  and  C_18 
REMARK    6  A    between atoms: C_18  and  C_19 
REMARK    7  A    between atoms: C_19  and  C_20 
REMARK    8  A    between atoms: C_20  and  C_21 
ROOT
HETATM    1  C   UNL     1      -1.222   5.764 -32.474  1.00  0.00     0.100 A 
HETATM    2  N   UNL     1      -0.780   6.652 -33.384  1.00  0.00    -0.174 NA
HETATM    3  N   UNL     1      -1.248   6.204 -34.554  1.00  0.00    -0.288 N 
HETATM    4  H   UNL     1      -1.022   6.726 -35.393  1.00  0.00     0.188 HD
HETATM    5  C   UNL     1      -1.989   5.072 -34.445  1.00  0.00     0.124 A 
HETATM    6  C   UNL     1      -2.020   4.753 -33.101  1.00  0.00     0.031 A 
ENDROOT
BRANCH   6   7
HETATM    7  C   UNL     1      -2.729   3.636 -32.514  1.00  0.00     0.154 C 
HETATM    8  N   UNL     1      -4.005   3.537 -32.724  1.00  0.00    -0.184 NA
BRANCH   8   9
HETATM    9  N   UNL     1      -4.690   2.481 -32.174  1.00  0.00    -0.247 N 
HETATM   10  C   UNL     1      -5.873   2.564 -31.453  1.00  0.00     0.237 C 
HETATM   11  O   UNL     1      -6.474   3.597 -31.172  1.00  0.00    -0.272 OA
HETATM   12  H   UNL     1      -4.440   1.585 -32.582  1.00  0.00     0.192 HD
BRANCH  10  13
HETATM   13  C   UNL     1      -6.397   1.207 -31.021  1.00  0.00     0.105 C 
BRANCH  13  14
HETATM   14  C   UNL     1      -6.039   0.097 -32.008  1.00  0.00     0.014 C 
BRANCH  14  15
HETATM   15  C   UNL     1      -7.231  -0.731 -32.543  1.00  0.00    -0.014 C 
HETATM   16  C   UNL     1      -8.459   0.118 -32.921  1.00  0.00     0.004 C 
HETATM   17  C   UNL     1      -8.233   0.971 -34.168  1.00  0.00     0.000 C 
HETATM   18  C   UNL     1      -7.786   0.123 -35.354  1.00  0.00     0.000 C 
HETATM   19  C   UNL     1      -6.575  -0.743 -35.019  1.00  0.00     0.000 C 
HETATM   20  C   UNL     1      -6.805  -1.577 -33.759  1.00  0.00     0.004 C 
ENDBRANCH  14  15
ENDBRANCH  13  14
ENDBRANCH  10  13
ENDBRANCH   8   9
ENDBRANCH   6   7
BRANCH   1  21
HETATM   21  C   UNL     1      -0.851   5.926 -31.063  1.00  0.00    -0.002 A 
HETATM   22  C   UNL     1      -1.652   6.707 -30.216  1.00  0.00     0.053 A 
HETATM   23  C   UNL     1      -1.306   6.906 -28.873  1.00  0.00     0.102 A 
HETATM   24  C   UNL     1      -0.146   6.299 -28.356  1.00  0.00     0.101 A 
HETATM   25  C   UNL     1       0.661   5.530 -29.201  1.00  0.00     0.040 A 
HETATM   26  C   UNL     1       0.317   5.354 -30.546  1.00  0.00     0.017 A 
BRANCH  23  27
HETATM   27  O   UNL     1      -2.039   7.661 -27.990  1.00  0.00    -0.353 OA
HETATM   28  C   UNL     1      -2.571   8.888 -28.468  1.00  0.00     0.210 C 
ENDBRANCH  23  27
BRANCH  24  29
HETATM   29  O   UNL     1       0.120   6.533 -27.030  1.00  0.00    -0.353 OA
HETATM   30  C   UNL     1       1.288   7.275 -26.711  1.00  0.00     0.210 C 
ENDBRANCH  24  29
ENDBRANCH   1  21
TORSDOF 8
ENDMDL
MODEL 5
REMARK VINA RESULT:      -7.5      1.996      2.453
REMARK  8 active torsions:
REMARK  status: ('A' for Active; 'I' for Inactive)
REMARK    1  A    between atoms: O_2  and  C_3 
REMARK    2  A    between atoms: C_4  and  O_5 
REMARK    3  A    between atoms: C_8  and  C_9 
REMARK    4  A    between atoms: C_14  and  C_15 
REMARK    5  A    between atoms: N_16  and  N_17 
REMARK       I    between atoms: N_17  and  C_18 
REMARK    6  A    between atoms: C_18  and  C_19 
REMARK    7  A    between atoms: C_19  and  C_20 
REMARK    8  A    between atoms: C_20  and  C_21 
ROOT
HETATM    1  C   UNL     1      -9.167   0.968 -33.205  1.00  0.00     0.100 A 
HETATM    2  N   UNL     1     -10.385   0.454 -33.455  1.00  0.00    -0.174 NA
HETATM    3  N   UNL     1     -11.243   1.416 -33.097  1.00  0.00    -0.288 N 
HETATM    4  H   UNL     1     -12.236   1.235 -33.195  1.00  0.00     0.188 HD
HETATM    5  C   UNL     1     -10.636   2.541 -32.641  1.00  0.00     0.124 A 
HETATM    6  C   UNL     1      -9.277   2.308 -32.709  1.00  0.00     0.031 A 
ENDROOT
BRANCH   6   7
HETATM    7  C   UNL     1      -8.238   3.252 -32.355  1.00  0.00     0.154 C 
HETATM    8  N   UNL     1      -8.206   4.392 -32.970  1.00  0.00    -0.184 NA
BRANCH   8   9
HETATM    9  N   UNL     1      -7.227   5.298 -32.643  1.00  0.00    -0.247 N 
HETATM   10  C   UNL     1      -6.040   5.502 -33.333  1.00  0.00     0.237 C 
HETATM   11  O   UNL     1      -5.671   4.883 -34.328  1.00  0.00    -0.272 OA
HETATM   12  H   UNL     1      -7.554   6.036 -32.026  1.00  0.00     0.192 HD
BRANCH  10  13
HETATM   13  C   UNL     1      -5.193   6.610 -32.737  1.00  0.00     0.105 C 
BRANCH  13  14
HETATM   14  C   UNL     1      -3.817   6.120 -32.286  1.00  0.00     0.014 C 
BRANCH  14  15
HETATM   15  C   UNL     1      -2.643   6.463 -33.233  1.00  0.00    -0.014 C 
HETATM   16  C   UNL     1      -1.903   7.760 -32.862  1.00  0.00     0.004 C 
HETATM   17  C   UNL     1      -1.090   7.637 -31.574  1.00  0.00     0.000 C 
HETATM   18  C   UNL     1      -0.115   6.465 -31.637  1.00  0.00     0.000 C 
HETATM   19  C   UNL     1      -0.808   5.159 -32.012  1.00  0.00     0.000 C 
HETATM   20  C   UNL     1      -1.633   5.300 -33.290  1.00  0.00     0.004 C 
ENDBRANCH  14  15
ENDBRANCH  13  14
ENDBRANCH  10  13
ENDBRANCH   8   9
ENDBRANCH   6   7
BRANCH   1  21
HETATM   21  C   UNL     1      -7.972   0.150 -33.443  1.00  0.00    -0.002 A 
HETATM   22  C   UNL     1      -7.025  -0.016 -32.421  1.00  0.00     0.053 A 
HETATM   23  C   UNL     1      -5.859  -0.765 -32.628  1.00  0.00     0.102 A 
HETATM   24  C   UNL     1      -5.639  -1.377 -33.876  1.00  0.00     0.101 A 
HETATM   25  C   UNL     1      -6.574  -1.204 -34.900  1.00  0.00     0.040 A 
HETATM   26  C   UNL     1      -7.726  -0.438 -34.689  1.00  0.00     0.017 A 
BRANCH  23  27
HETATM   27  O   UNL     1      -4.889  -0.964 -31.675  1.00  0.00    -0.353 OA
HETATM   28  C   UNL     1      -4.553   0.141 -30.848  1.00  0.00     0.210 C 
ENDBRANCH  23  27
BRANCH  24  29
HETATM   29  O   UNL     1      -4.478  -2.102 -33.998  1.00  0.00    -0.353 OA
HETATM   30  C   UNL     1      -4.582  -3.444 -34.448  1.00  0.00     0.210 C 
ENDBRANCH  24  29
ENDBRANCH   1  21
TORSDOF 8
ENDMDL
MODEL 6
REMARK VINA RESULT:      -7.4      3.035      4.250
REMARK  8 active torsions:
REMARK  status: ('A' for Active; 'I' for Inactive)
REMARK    1  A    between atoms: O_2  and  C_3 
REMARK    2  A    between atoms: C_4  and  O_5 
REMARK    3  A    between atoms: C_8  and  C_9 
REMARK    4  A    between atoms: C_14  and  C_15 
REMARK    5  A    between atoms: N_16  and  N_17 
REMARK       I    between atoms: N_17  and  C_18 
REMARK    6  A    between atoms: C_18  and  C_19 
REMARK    7  A    between atoms: C_19  and  C_20 
REMARK    8  A    between atoms: C_20  and  C_21 
ROOT
HETATM    1  C   UNL     1      -4.733   0.070 -32.112  1.00  0.00     0.100 A 
HETATM    2  N   UNL     1      -4.569  -1.265 -32.080  1.00  0.00    -0.174 NA
HETATM    3  N   UNL     1      -3.334  -1.446 -31.599  1.00  0.00    -0.288 N 
HETATM    4  H   UNL     1      -2.993  -2.396 -31.498  1.00  0.00     0.188 HD
HETATM    5  C   UNL     1      -2.692  -0.288 -31.301  1.00  0.00     0.124 A 
HETATM    6  C   UNL     1      -3.571   0.734 -31.600  1.00  0.00     0.031 A 
ENDROOT
BRANCH   6   7
HETATM    7  C   UNL     1      -3.322   2.147 -31.406  1.00  0.00     0.154 C 
HETATM    8  N   UNL     1      -3.159   2.893 -32.454  1.00  0.00    -0.184 NA
BRANCH   8   9
HETATM    9  N   UNL     1      -2.924   4.235 -32.285  1.00  0.00    -0.247 N 
HETATM   10  C   UNL     1      -2.296   5.075 -33.195  1.00  0.00     0.237 C 
HETATM   11  O   UNL     1      -1.829   4.739 -34.280  1.00  0.00    -0.272 OA
HETATM   12  H   UNL     1      -3.509   4.658 -31.570  1.00  0.00     0.192 HD
BRANCH  10  13
HETATM   13  C   UNL     1      -2.233   6.515 -32.724  1.00  0.00     0.105 C 
BRANCH  13  14
HETATM   14  C   UNL     1      -1.955   6.633 -31.226  1.00  0.00     0.014 C 
BRANCH  14  15
HETATM   15  C   UNL     1      -0.595   7.264 -30.848  1.00  0.00    -0.014 C 
HETATM   16  C   UNL     1      -0.513   7.737 -29.385  1.00  0.00     0.004 C 
HETATM   17  C   UNL     1      -0.482   6.582 -28.385  1.00  0.00     0.000 C 
HETATM   18  C   UNL     1       0.648   5.604 -28.693  1.00  0.00     0.000 C 
HETATM   19  C   UNL     1       0.610   5.117 -30.139  1.00  0.00     0.000 C 
HETATM   20  C   UNL     1       0.558   6.280 -31.128  1.00  0.00     0.004 C 
ENDBRANCH  14  15
ENDBRANCH  13  14
ENDBRANCH  10  13
ENDBRANCH   8   9
ENDBRANCH   6   7
BRANCH   1  21
HETATM   21  C   UNL     1      -5.982   0.635 -32.638  1.00  0.00    -0.002 A 
HETATM   22  C   UNL     1      -6.931   1.171 -31.755  1.00  0.00     0.053 A 
HETATM   23  C   UNL     1      -8.146   1.689 -32.224  1.00  0.00     0.102 A 
HETATM   24  C   UNL     1      -8.414   1.689 -33.606  1.00  0.00     0.101 A 
HETATM   25  C   UNL     1      -7.476   1.144 -34.487  1.00  0.00     0.040 A 
HETATM   26  C   UNL     1      -6.274   0.612 -34.006  1.00  0.00     0.017 A 
BRANCH  23  27
HETATM   27  O   UNL     1      -9.121   2.223 -31.417  1.00  0.00    -0.353 OA
HETATM   28  C   UNL     1      -8.712   3.173 -30.443  1.00  0.00     0.210 C 
ENDBRANCH  23  27
BRANCH  24  29
HETATM   29  O   UNL     1      -9.621   2.221 -33.988  1.00  0.00    -0.353 OA
HETATM   30  C   UNL     1     -10.672   1.319 -34.299  1.00  0.00     0.210 C 
ENDBRANCH  24  29
ENDBRANCH   1  21
TORSDOF 8
ENDMDL
MODEL 7
REMARK VINA RESULT:      -7.4      2.909      8.328
REMARK  8 active torsions:
REMARK  status: ('A' for Active; 'I' for Inactive)
REMARK    1  A    between atoms: O_2  and  C_3 
REMARK    2  A    between atoms: C_4  and  O_5 
REMARK    3  A    between atoms: C_8  and  C_9 
REMARK    4  A    between atoms: C_14  and  C_15 
REMARK    5  A    between atoms: N_16  and  N_17 
REMARK       I    between atoms: N_17  and  C_18 
REMARK    6  A    between atoms: C_18  and  C_19 
REMARK    7  A    between atoms: C_19  and  C_20 
REMARK    8  A    between atoms: C_20  and  C_21 
ROOT
HETATM    1  C   UNL     1      -4.865   6.177 -29.695  1.00  0.00     0.100 A 
HETATM    2  N   UNL     1      -4.949   7.251 -28.887  1.00  0.00    -0.174 NA
HETATM    3  N   UNL     1      -5.774   6.875 -27.904  1.00  0.00    -0.288 N 
HETATM    4  H   UNL     1      -5.989   7.548 -27.175  1.00  0.00     0.188 HD
HETATM    5  C   UNL     1      -6.220   5.599 -28.026  1.00  0.00     0.124 A 
HETATM    6  C   UNL     1      -5.639   5.091 -29.172  1.00  0.00     0.031 A 
ENDROOT
BRANCH   6   7
HETATM    7  C   UNL     1      -5.804   3.744 -29.676  1.00  0.00     0.154 C 
HETATM    8  N   UNL     1      -7.007   3.297 -29.859  1.00  0.00    -0.184 NA
BRANCH   8   9
HETATM    9  N   UNL     1      -7.178   2.023 -30.340  1.00  0.00    -0.247 N 
HETATM   10  C   UNL     1      -7.734   1.681 -31.566  1.00  0.00     0.237 C 
HETATM   11  O   UNL     1      -8.182   2.466 -32.397  1.00  0.00    -0.272 OA
HETATM   12  H   UNL     1      -6.596   1.336 -29.871  1.00  0.00     0.192 HD
BRANCH  10  13
HETATM   13  C   UNL     1      -7.738   0.185 -31.815  1.00  0.00     0.105 C 
BRANCH  13  14
HETATM   14  C   UNL     1      -6.331  -0.386 -31.996  1.00  0.00     0.014 C 
BRANCH  14  15
HETATM   15  C   UNL     1      -5.693  -0.161 -33.386  1.00  0.00    -0.014 C 
HETATM   16  C   UNL     1      -4.303  -0.800 -33.544  1.00  0.00     0.004 C 
HETATM   17  C   UNL     1      -4.349  -2.327 -33.591  1.00  0.00     0.000 C 
HETATM   18  C   UNL     1      -5.292  -2.826 -34.682  1.00  0.00     0.000 C 
HETATM   19  C   UNL     1      -6.682  -2.207 -34.567  1.00  0.00     0.000 C 
HETATM   20  C   UNL     1      -6.621  -0.682 -34.501  1.00  0.00     0.004 C 
ENDBRANCH  14  15
ENDBRANCH  13  14
ENDBRANCH  10  13
ENDBRANCH   8   9
ENDBRANCH   6   7
BRANCH   1  21
HETATM   21  C   UNL     1      -4.063   6.253 -30.922  1.00  0.00    -0.002 A 
HETATM   22  C   UNL     1      -2.734   6.701 -30.859  1.00  0.00     0.053 A 
HETATM   23  C   UNL     1      -1.953   6.814 -32.017  1.00  0.00     0.102 A 
HETATM   24  C   UNL     1      -2.501   6.457 -33.263  1.00  0.00     0.101 A 
HETATM   25  C   UNL     1      -3.828   6.022 -33.330  1.00  0.00     0.040 A 
HETATM   26  C   UNL     1      -4.606   5.931 -32.170  1.00  0.00     0.017 A 
BRANCH  23  27
HETATM   27  O   UNL     1      -0.650   7.249 -32.030  1.00  0.00    -0.353 OA
HETATM   28  C   UNL     1       0.191   6.818 -30.970  1.00  0.00     0.210 C 
ENDBRANCH  23  27
BRANCH  24  29
HETATM   29  O   UNL     1      -1.670   6.587 -34.349  1.00  0.00    -0.353 OA
HETATM   30  C   UNL     1      -1.251   5.400 -35.005  1.00  0.00     0.210 C 
ENDBRANCH  24  29
ENDBRANCH   1  21
TORSDOF 8
ENDMDL
MODEL 8
REMARK VINA RESULT:      -7.3      2.607      9.622
REMARK  8 active torsions:
REMARK  status: ('A' for Active; 'I' for Inactive)
REMARK    1  A    between atoms: O_2  and  C_3 
REMARK    2  A    between atoms: C_4  and  O_5 
REMARK    3  A    between atoms: C_8  and  C_9 
REMARK    4  A    between atoms: C_14  and  C_15 
REMARK    5  A    between atoms: N_16  and  N_17 
REMARK       I    between atoms: N_17  and  C_18 
REMARK    6  A    between atoms: C_18  and  C_19 
REMARK    7  A    between atoms: C_19  and  C_20 
REMARK    8  A    between atoms: C_20  and  C_21 
ROOT
HETATM    1  C   UNL     1      -1.790   6.250 -32.845  1.00  0.00     0.100 A 
HETATM    2  N   UNL     1      -1.269   6.956 -33.865  1.00  0.00    -0.174 NA
HETATM    3  N   UNL     1      -1.279   6.114 -34.904  1.00  0.00    -0.288 N 
HETATM    4  H   UNL     1      -0.914   6.443 -35.792  1.00  0.00     0.188 HD
HETATM    5  C   UNL     1      -1.800   4.896 -34.611  1.00  0.00     0.124 A 
HETATM    6  C   UNL     1      -2.168   4.938 -33.280  1.00  0.00     0.031 A 
ENDROOT
BRANCH   6   7
HETATM    7  C   UNL     1      -2.802   3.866 -32.544  1.00  0.00     0.154 C 
HETATM    8  N   UNL     1      -3.989   3.488 -32.904  1.00  0.00    -0.184 NA
BRANCH   8   9
HETATM    9  N   UNL     1      -4.602   2.471 -32.216  1.00  0.00    -0.247 N 
HETATM   10  C   UNL     1      -5.910   2.040 -32.391  1.00  0.00     0.237 C 
HETATM   11  O   UNL     1      -6.729   2.522 -33.169  1.00  0.00    -0.272 OA
HETATM   12  H   UNL     1      -3.946   1.837 -31.769  1.00  0.00     0.192 HD
BRANCH  10  13
HETATM   13  C   UNL     1      -6.267   0.862 -31.505  1.00  0.00     0.105 C 
BRANCH  13  14
HETATM   14  C   UNL     1      -5.818  -0.475 -32.093  1.00  0.00     0.014 C 
BRANCH  14  15
HETATM   15  C   UNL     1      -5.412  -0.445 -33.585  1.00  0.00    -0.014 C 
HETATM   16  C   UNL     1      -4.164  -1.286 -33.908  1.00  0.00     0.004 C 
HETATM   17  C   UNL     1      -4.414  -2.789 -33.800  1.00  0.00     0.000 C 
HETATM   18  C   UNL     1      -5.590  -3.226 -34.668  1.00  0.00     0.000 C 
HETATM   19  C   UNL     1      -6.847  -2.409 -34.386  1.00  0.00     0.000 C 
HETATM   20  C   UNL     1      -6.581  -0.907 -34.477  1.00  0.00     0.004 C 
ENDBRANCH  14  15
ENDBRANCH  13  14
ENDBRANCH  10  13
ENDBRANCH   8   9
ENDBRANCH   6   7
BRANCH   1  21
HETATM   21  C   UNL     1      -1.889   6.863 -31.514  1.00  0.00    -0.002 A 
HETATM   22  C   UNL     1      -0.747   6.955 -30.703  1.00  0.00     0.053 A 
HETATM   23  C   UNL     1      -0.816   7.506 -29.417  1.00  0.00     0.102 A 
HETATM   24  C   UNL     1      -2.046   7.991 -28.933  1.00  0.00     0.101 A 
HETATM   25  C   UNL     1      -3.187   7.889 -29.733  1.00  0.00     0.040 A 
HETATM   26  C   UNL     1      -3.111   7.320 -31.010  1.00  0.00     0.017 A 
BRANCH  23  27
HETATM   27  O   UNL     1       0.258   7.624 -28.568  1.00  0.00    -0.353 OA
HETATM   28  C   UNL     1       0.755   6.431 -27.978  1.00  0.00     0.210 C 
ENDBRANCH  23  27
BRANCH  24  29
HETATM   29  O   UNL     1      -2.030   8.524 -27.667  1.00  0.00    -0.353 OA
HETATM   30  C   UNL     1      -2.382   9.891 -27.522  1.00  0.00     0.210 C 
ENDBRANCH  24  29
ENDBRANCH   1  21
TORSDOF 8
ENDMDL
MODEL 9
REMARK VINA RESULT:      -7.3      5.694      9.335
REMARK  8 active torsions:
REMARK  status: ('A' for Active; 'I' for Inactive)
REMARK    1  A    between atoms: O_2  and  C_3 
REMARK    2  A    between atoms: C_4  and  O_5 
REMARK    3  A    between atoms: C_8  and  C_9 
REMARK    4  A    between atoms: C_14  and  C_15 
REMARK    5  A    between atoms: N_16  and  N_17 
REMARK       I    between atoms: N_17  and  C_18 
REMARK    6  A    between atoms: C_18  and  C_19 
REMARK    7  A    between atoms: C_19  and  C_20 
REMARK    8  A    between atoms: C_20  and  C_21 
ROOT
HETATM    1  C   UNL     1     -13.749   2.687 -33.195  1.00  0.00     0.100 A 
HETATM    2  N   UNL     1     -15.022   2.410 -32.859  1.00  0.00    -0.174 NA
HETATM    3  N   UNL     1     -15.352   1.351 -33.607  1.00  0.00    -0.288 N 
HETATM    4  H   UNL     1     -16.289   0.975 -33.519  1.00  0.00     0.188 HD
HETATM    5  C   UNL     1     -14.344   0.916 -34.405  1.00  0.00     0.124 A 
HETATM    6  C   UNL     1     -13.266   1.744 -34.160  1.00  0.00     0.031 A 
ENDROOT
BRANCH   6   7
HETATM    7  C   UNL     1     -11.956   1.628 -34.766  1.00  0.00     0.154 C 
HETATM    8  N   UNL     1     -10.956   1.292 -34.012  1.00  0.00    -0.184 NA
BRANCH   8   9
HETATM    9  N   UNL     1      -9.709   1.176 -34.574  1.00  0.00    -0.247 N 
HETATM   10  C   UNL     1      -8.498   1.267 -33.899  1.00  0.00     0.237 C 
HETATM   11  O   UNL     1      -8.358   1.493 -32.700  1.00  0.00    -0.272 OA
HETATM   12  H   UNL     1      -9.717   0.715 -35.479  1.00  0.00     0.192 HD
BRANCH  10  13
HETATM   13  C   UNL     1      -7.301   1.048 -34.804  1.00  0.00     0.105 C 
BRANCH  13  14
HETATM   14  C   UNL     1      -7.134  -0.413 -35.218  1.00  0.00     0.014 C 
BRANCH  14  15
HETATM   15  C   UNL     1      -7.029  -1.428 -34.056  1.00  0.00    -0.014 C 
HETATM   16  C   UNL     1      -6.878  -2.889 -34.516  1.00  0.00     0.004 C 
HETATM   17  C   UNL     1      -5.520  -3.175 -35.155  1.00  0.00     0.000 C 
HETATM   18  C   UNL     1      -4.371  -2.787 -34.229  1.00  0.00     0.000 C 
HETATM   19  C   UNL     1      -4.488  -1.346 -33.741  1.00  0.00     0.000 C 
HETATM   20  C   UNL     1      -5.857  -1.066 -33.122  1.00  0.00     0.004 C 
ENDBRANCH  14  15
ENDBRANCH  13  14
ENDBRANCH  10  13
ENDBRANCH   8   9
ENDBRANCH   6   7
BRANCH   1  21
HETATM   21  C   UNL     1     -13.072   3.838 -32.587  1.00  0.00    -0.002 A 
HETATM   22  C   UNL     1     -12.354   4.732 -33.395  1.00  0.00     0.053 A 
HETATM   23  C   UNL     1     -11.671   5.823 -32.840  1.00  0.00     0.102 A 
HETATM   24  C   UNL     1     -11.718   6.037 -31.449  1.00  0.00     0.101 A 
HETATM   25  C   UNL     1     -12.421   5.141 -30.640  1.00  0.00     0.040 A 
HETATM   26  C   UNL     1     -13.084   4.044 -31.203  1.00  0.00     0.017 A 
BRANCH  23  27
HETATM   27  O   UNL     1     -10.947   6.733 -33.570  1.00  0.00    -0.353 OA
HETATM   28  C   UNL     1     -10.451   6.310 -34.832  1.00  0.00     0.210 C 
ENDBRANCH  23  27
BRANCH  24  29
HETATM   29  O   UNL     1     -11.031   7.131 -30.983  1.00  0.00    -0.353 OA
HETATM   30  C   UNL     1     -10.062   6.919 -29.968  1.00  0.00     0.210 C 
ENDBRANCH  24  29
ENDBRANCH   1  21
TORSDOF 8
ENDMDL
MODEL 10
REMARK VINA RESULT:      -7.1      3.736      9.092
REMARK  8 active torsions:
REMARK  status: ('A' for Active; 'I' for Inactive)
REMARK    1  A    between atoms: O_2  and  C_3 
REMARK    2  A    between atoms: C_4  and  O_5 
REMARK    3  A    between atoms: C_8  and  C_9 
REMARK    4  A    between atoms: C_14  and  C_15 
REMARK    5  A    between atoms: N_16  and  N_17 
REMARK       I    between atoms: N_17  and  C_18 
REMARK    6  A    between atoms: C_18  and  C_19 
REMARK    7  A    between atoms: C_19  and  C_20 
REMARK    8  A    between atoms: C_20  and  C_21 
ROOT
HETATM    1  C   UNL     1      -3.647   0.723 -31.640  1.00  0.00     0.100 A 
HETATM    2  N   UNL     1      -2.593   0.106 -31.074  1.00  0.00    -0.174 NA
HETATM    3  N   UNL     1      -2.691  -1.168 -31.468  1.00  0.00    -0.288 N 
HETATM    4  H   UNL     1      -1.990  -1.826 -31.144  1.00  0.00     0.188 HD
HETATM    5  C   UNL     1      -3.752  -1.406 -32.280  1.00  0.00     0.124 A 
HETATM    6  C   UNL     1      -4.400  -0.197 -32.440  1.00  0.00     0.031 A 
ENDROOT
BRANCH   6   7
HETATM    7  C   UNL     1      -5.572   0.033 -33.259  1.00  0.00     0.154 C 
HETATM    8  N   UNL     1      -6.713   0.204 -32.667  1.00  0.00    -0.184 NA
BRANCH   8   9
HETATM    9  N   UNL     1      -7.832   0.425 -33.431  1.00  0.00    -0.247 N 
HETATM   10  C   UNL     1      -9.125   0.592 -32.954  1.00  0.00     0.237 C 
HETATM   11  O   UNL     1      -9.470   0.540 -31.777  1.00  0.00    -0.272 OA
HETATM   12  H   UNL     1      -7.620   0.763 -34.365  1.00  0.00     0.192 HD
BRANCH  10  13
HETATM   13  C   UNL     1     -10.131   0.864 -34.057  1.00  0.00     0.105 C 
BRANCH  13  14
HETATM   14  C   UNL     1     -11.574   0.638 -33.606  1.00  0.00     0.014 C 
BRANCH  14  15
HETATM   15  C   UNL     1     -12.660   1.278 -34.501  1.00  0.00    -0.014 C 
HETATM   16  C   UNL     1     -14.098   1.009 -34.024  1.00  0.00     0.004 C 
HETATM   17  C   UNL     1     -14.445   1.745 -32.731  1.00  0.00     0.000 C 
HETATM   18  C   UNL     1     -14.197   3.246 -32.856  1.00  0.00     0.000 C 
HETATM   19  C   UNL     1     -12.783   3.557 -33.338  1.00  0.00     0.000 C 
HETATM   20  C   UNL     1     -12.440   2.799 -34.620  1.00  0.00     0.004 C 
ENDBRANCH  14  15
ENDBRANCH  13  14
ENDBRANCH  10  13
ENDBRANCH   8   9
ENDBRANCH   6   7
BRANCH   1  21
HETATM   21  C   UNL     1      -3.880   2.148 -31.378  1.00  0.00    -0.002 A 
HETATM   22  C   UNL     1      -3.003   3.107 -31.910  1.00  0.00     0.053 A 
HETATM   23  C   UNL     1      -3.181   4.473 -31.651  1.00  0.00     0.102 A 
HETATM   24  C   UNL     1      -4.266   4.895 -30.859  1.00  0.00     0.101 A 
HETATM   25  C   UNL     1      -5.133   3.941 -30.318  1.00  0.00     0.040 A 
HETATM   26  C   UNL     1      -4.935   2.578 -30.567  1.00  0.00     0.017 A 
BRANCH  23  27
HETATM   27  O   UNL     1      -2.361   5.463 -32.133  1.00  0.00    -0.353 OA
HETATM   28  C   UNL     1      -0.971   5.181 -32.204  1.00  0.00     0.210 C 
ENDBRANCH  23  27
BRANCH  24  29
HETATM   29  O   UNL     1      -4.378   6.249 -30.659  1.00  0.00    -0.353 OA
HETATM   30  C   UNL     1      -5.498   6.910 -31.226  1.00  0.00     0.210 C 
ENDBRANCH  24  29
ENDBRANCH   1  21
TORSDOF 8
ENDMDL
