MODEL 1
REMARK VINA RESULT:      -9.2      0.000      0.000
REMARK  7 active torsions:
REMARK  status: ('A' for Active; 'I' for Inactive)
REMARK    1  A    between atoms: C_7  and  C_8 
REMARK    2  A    between atoms: C_8  and  N_9 
REMARK    3  A    between atoms: C_13  and  C_14 
REMARK    4  A    between atoms: C_14  and  C_15 
REMARK    5  A    between atoms: C_15  and  C_16 
REMARK    6  A    between atoms: N_26  and  C_27 
REMARK    7  A    between atoms: C_27  and  C_28 
ROOT
HETATM    1  C   UNL     1      -5.902   1.304 -31.739  1.00  0.00     0.123 C 
HETATM    2  N   UNL     1      -5.561   1.639 -33.112  1.00  0.00    -0.324 N 
HETATM    3  C   UNL     1      -6.657   1.953 -33.885  1.00  0.00     0.326 C 
HETATM    4  O   UNL     1      -6.620   2.096 -35.092  1.00  0.00    -0.247 OA
HETATM    5  N   UNL     1      -7.723   2.097 -33.060  1.00  0.00    -0.268 N 
HETATM    6  C   UNL     1      -7.353   1.846 -31.776  1.00  0.00     0.257 C 
HETATM    7  O   UNL     1      -8.062   2.002 -30.790  1.00  0.00    -0.270 OA
HETATM    8  H   UNL     1      -4.723   1.315 -33.590  1.00  0.00     0.165 HD
ENDROOT
BRANCH   1   9
HETATM    9  C   UNL     1      -4.944   2.028 -30.737  1.00  0.00     0.027 C 
HETATM   10  C   UNL     1      -5.440   3.337 -30.102  1.00  0.00     0.035 C 
HETATM   11  C   UNL     1      -5.281   4.603 -30.933  1.00  0.00     0.235 C 
HETATM   12  N   UNL     1      -3.929   4.710 -31.596  1.00  0.00    -0.067 N 
HETATM   13  H   UNL     1      -3.277   5.033 -30.872  1.00  0.00     0.280 HD
HETATM   14  C   UNL     1      -3.367   3.445 -32.189  1.00  0.00     0.235 C 
HETATM   15  C   UNL     1      -3.508   2.269 -31.242  1.00  0.00     0.035 C 
BRANCH  12  16
HETATM   16  C   UNL     1      -3.924   5.793 -32.672  1.00  0.00     0.277 C 
BRANCH  16  17
HETATM   17  C   UNL     1      -3.251   7.053 -32.281  1.00  0.00     0.011 A 
HETATM   18  C   UNL     1      -2.025   7.567 -32.795  1.00  0.00     0.060 A 
HETATM   19  C   UNL     1      -1.122   6.974 -33.817  1.00  0.00     0.073 C 
HETATM   20  N   UNL     1      -1.722   8.744 -32.246  1.00  0.00    -0.178 NA
HETATM   21  N   UNL     1      -2.684   8.956 -31.337  1.00  0.00    -0.284 N 
HETATM   22  C   UNL     1      -2.630  10.126 -30.493  1.00  0.00     0.179 C 
HETATM   23  C   UNL     1      -3.647   7.986 -31.340  1.00  0.00     0.122 A 
ENDBRANCH  16  17
ENDBRANCH  12  16
ENDBRANCH   1   9
BRANCH   1  24
HETATM   24  C   UNL     1      -6.050  -0.242 -31.565  1.00  0.00     0.082 C 
BRANCH  24  25
HETATM   25  C   UNL     1      -5.785  -1.200 -32.714  1.00  0.00    -0.034 A 
HETATM   26  C   UNL     1      -4.525  -1.704 -33.083  1.00  0.00     0.040 A 
HETATM   27 CL   UNL     1      -3.076  -1.335 -32.227  1.00  0.00    -0.084 Cl
HETATM   28  C   UNL     1      -4.379  -2.516 -34.216  1.00  0.00     0.024 A 
HETATM   29  C   UNL     1      -5.476  -2.819 -35.018  1.00  0.00     0.002 A 
HETATM   30  C   UNL     1      -6.725  -2.313 -34.690  1.00  0.00     0.001 A 
HETATM   31  C   UNL     1      -6.877  -1.514 -33.554  1.00  0.00     0.009 A 
ENDBRANCH  24  25
ENDBRANCH   1  24
BRANCH   5  32
HETATM   32  C   UNL     1      -9.054   2.470 -33.487  1.00  0.00     0.141 C 
BRANCH  32  33
HETATM   33  C   UNL     1      -9.786   1.265 -33.998  1.00  0.00     0.004 A 
HETATM   34  C   UNL     1     -10.388   0.251 -33.055  1.00  0.00     0.007 A 
HETATM   35  C   UNL     1     -11.283   1.165 -33.844  1.00  0.00     0.007 A 
ENDBRANCH  32  33
ENDBRANCH   5  32
TORSDOF 7
ENDMDL
MODEL 2
REMARK VINA RESULT:      -9.2      2.729      7.224
REMARK  7 active torsions:
REMARK  status: ('A' for Active; 'I' for Inactive)
REMARK    1  A    between atoms: C_7  and  C_8 
REMARK    2  A    between atoms: C_8  and  N_9 
REMARK    3  A    between atoms: C_13  and  C_14 
REMARK    4  A    between atoms: C_14  and  C_15 
REMARK    5  A    between atoms: C_15  and  C_16 
REMARK    6  A    between atoms: N_26  and  C_27 
REMARK    7  A    between atoms: C_27  and  C_28 
ROOT
HETATM    1  C   UNL     1      -5.296   0.366 -32.622  1.00  0.00     0.123 C 
HETATM    2  N   UNL     1      -4.396   0.726 -31.539  1.00  0.00    -0.324 N 
HETATM    3  C   UNL     1      -3.836   1.974 -31.688  1.00  0.00     0.326 C 
HETATM    4  O   UNL     1      -2.933   2.403 -30.995  1.00  0.00    -0.247 OA
HETATM    5  N   UNL     1      -4.488   2.608 -32.693  1.00  0.00    -0.268 N 
HETATM    6  C   UNL     1      -5.432   1.787 -33.224  1.00  0.00     0.257 C 
HETATM    7  O   UNL     1      -6.258   2.108 -34.069  1.00  0.00    -0.270 OA
HETATM    8  H   UNL     1      -3.904   0.053 -30.956  1.00  0.00     0.165 HD
ENDROOT
BRANCH   1   9
HETATM    9  C   UNL     1      -6.620  -0.251 -32.062  1.00  0.00     0.027 C 
HETATM   10  C   UNL     1      -7.612  -0.840 -33.077  1.00  0.00     0.035 C 
HETATM   11  C   UNL     1      -8.544   0.144 -33.771  1.00  0.00     0.235 C 
HETATM   12  N   UNL     1      -9.150   1.154 -32.826  1.00  0.00    -0.067 N 
HETATM   13  H   UNL     1      -9.920   0.674 -32.346  1.00  0.00     0.280 HD
HETATM   14  C   UNL     1      -8.237   1.725 -31.774  1.00  0.00     0.235 C 
HETATM   15  C   UNL     1      -7.417   0.645 -31.094  1.00  0.00     0.035 C 
BRANCH  12  16
HETATM   16  C   UNL     1      -9.794   2.310 -33.589  1.00  0.00     0.277 C 
BRANCH  16  17
HETATM   17  C   UNL     1     -11.175   2.052 -34.054  1.00  0.00     0.011 A 
HETATM   18  C   UNL     1     -11.896   2.780 -35.045  1.00  0.00     0.060 A 
HETATM   19  C   UNL     1     -11.462   3.964 -35.832  1.00  0.00     0.073 C 
HETATM   20  N   UNL     1     -13.108   2.259 -35.245  1.00  0.00    -0.178 NA
HETATM   21  N   UNL     1     -13.208   1.267 -34.350  1.00  0.00    -0.284 N 
HETATM   22  C   UNL     1     -14.438   0.520 -34.238  1.00  0.00     0.179 C 
HETATM   23  C   UNL     1     -12.060   1.078 -33.631  1.00  0.00     0.122 A 
ENDBRANCH  16  17
ENDBRANCH  12  16
ENDBRANCH   1   9
BRANCH   1  24
HETATM   24  C   UNL     1      -4.548  -0.467 -33.712  1.00  0.00     0.082 C 
BRANCH  24  25
HETATM   25  C   UNL     1      -4.106  -1.898 -33.454  1.00  0.00    -0.034 A 
HETATM   26  C   UNL     1      -4.496  -3.021 -34.205  1.00  0.00     0.040 A 
HETATM   27 CL   UNL     1      -5.514  -2.920 -35.591  1.00  0.00    -0.084 Cl
HETATM   28  C   UNL     1      -4.098  -4.311 -33.828  1.00  0.00     0.024 A 
HETATM   29  C   UNL     1      -3.330  -4.512 -32.684  1.00  0.00     0.002 A 
HETATM   30  C   UNL     1      -2.955  -3.422 -31.912  1.00  0.00     0.001 A 
HETATM   31  C   UNL     1      -3.338  -2.133 -32.292  1.00  0.00     0.009 A 
ENDBRANCH  24  25
ENDBRANCH   1  24
BRANCH   5  32
HETATM   32  C   UNL     1      -4.220   3.962 -33.128  1.00  0.00     0.141 C 
BRANCH  32  33
HETATM   33  C   UNL     1      -2.842   4.051 -33.712  1.00  0.00     0.004 A 
HETATM   34  C   UNL     1      -2.461   5.156 -34.667  1.00  0.00     0.007 A 
HETATM   35  C   UNL     1      -1.901   5.145 -33.273  1.00  0.00     0.007 A 
ENDBRANCH  32  33
ENDBRANCH   5  32
TORSDOF 7
ENDMDL
MODEL 3
REMARK VINA RESULT:      -8.9      2.921      6.574
REMARK  7 active torsions:
REMARK  status: ('A' for Active; 'I' for Inactive)
REMARK    1  A    between atoms: C_7  and  C_8 
REMARK    2  A    between atoms: C_8  and  N_9 
REMARK    3  A    between atoms: C_13  and  C_14 
REMARK    4  A    between atoms: C_14  and  C_15 
REMARK    5  A    between atoms: C_15  and  C_16 
REMARK    6  A    between atoms: N_26  and  C_27 
REMARK    7  A    between atoms: C_27  and  C_28 
ROOT
HETATM    1  C   UNL     1      -6.580   0.118 -32.770  1.00  0.00     0.123 C 
HETATM    2  N   UNL     1      -6.156  -0.347 -31.459  1.00  0.00    -0.324 N 
HETATM    3  C   UNL     1      -5.330   0.540 -30.807  1.00  0.00     0.326 C 
HETATM    4  O   UNL     1      -4.726   0.281 -29.783  1.00  0.00    -0.247 OA
HETATM    5  N   UNL     1      -5.352   1.711 -31.488  1.00  0.00    -0.268 N 
HETATM    6  C   UNL     1      -6.143   1.594 -32.588  1.00  0.00     0.257 C 
HETATM    7  O   UNL     1      -6.454   2.509 -33.340  1.00  0.00    -0.270 OA
HETATM    8  H   UNL     1      -6.108  -1.327 -31.188  1.00  0.00     0.165 HD
ENDROOT
BRANCH   1   9
HETATM    9  C   UNL     1      -8.116  -0.104 -32.968  1.00  0.00     0.027 C 
HETATM   10  C   UNL     1      -8.732   0.354 -34.299  1.00  0.00     0.035 C 
HETATM   11  C   UNL     1      -9.085   1.830 -34.417  1.00  0.00     0.235 C 
HETATM   12  N   UNL     1      -9.783   2.371 -33.192  1.00  0.00    -0.067 N 
HETATM   13  H   UNL     1     -10.762   2.072 -33.261  1.00  0.00     0.280 HD
HETATM   14  C   UNL     1      -9.256   1.913 -31.858  1.00  0.00     0.235 C 
HETATM   15  C   UNL     1      -9.017   0.416 -31.832  1.00  0.00     0.035 C 
BRANCH  12  16
HETATM   16  C   UNL     1      -9.815   3.898 -33.202  1.00  0.00     0.277 C 
BRANCH  16  17
HETATM   17  C   UNL     1     -11.079   4.488 -33.697  1.00  0.00     0.011 A 
HETATM   18  C   UNL     1     -12.325   4.551 -33.007  1.00  0.00     0.060 A 
HETATM   19  C   UNL     1     -12.668   4.036 -31.656  1.00  0.00     0.073 C 
HETATM   20  N   UNL     1     -13.251   5.181 -33.731  1.00  0.00    -0.178 NA
HETATM   21  N   UNL     1     -12.649   5.452 -34.898  1.00  0.00    -0.284 N 
HETATM   22  C   UNL     1     -13.394   6.080 -35.963  1.00  0.00     0.179 C 
HETATM   23  C   UNL     1     -11.332   5.087 -34.917  1.00  0.00     0.122 A 
ENDBRANCH  16  17
ENDBRANCH  12  16
ENDBRANCH   1   9
BRANCH   1  24
HETATM   24  C   UNL     1      -5.646  -0.446 -33.888  1.00  0.00     0.082 C 
BRANCH  24  25
HETATM   25  C   UNL     1      -5.321  -1.928 -33.980  1.00  0.00    -0.034 A 
HETATM   26  C   UNL     1      -4.209  -2.558 -33.396  1.00  0.00     0.040 A 
HETATM   27 CL   UNL     1      -3.058  -1.724 -32.424  1.00  0.00    -0.084 Cl
HETATM   28  C   UNL     1      -3.956  -3.919 -33.616  1.00  0.00     0.024 A 
HETATM   29  C   UNL     1      -4.786  -4.671 -34.443  1.00  0.00     0.002 A 
HETATM   30  C   UNL     1      -5.875  -4.066 -35.052  1.00  0.00     0.001 A 
HETATM   31  C   UNL     1      -6.139  -2.713 -34.825  1.00  0.00     0.009 A 
ENDBRANCH  24  25
ENDBRANCH   1  24
BRANCH   5  32
HETATM   32  C   UNL     1      -4.643   2.910 -31.096  1.00  0.00     0.141 C 
BRANCH  32  33
HETATM   33  C   UNL     1      -3.286   2.936 -31.733  1.00  0.00     0.004 A 
HETATM   34  C   UNL     1      -2.999   3.795 -32.940  1.00  0.00     0.007 A 
HETATM   35  C   UNL     1      -2.411   4.158 -31.605  1.00  0.00     0.007 A 
ENDBRANCH  32  33
ENDBRANCH   5  32
TORSDOF 7
ENDMDL
MODEL 4
REMARK VINA RESULT:      -8.9      2.411      2.943
REMARK  7 active torsions:
REMARK  status: ('A' for Active; 'I' for Inactive)
REMARK    1  A    between atoms: C_7  and  C_8 
REMARK    2  A    between atoms: C_8  and  N_9 
REMARK    3  A    between atoms: C_13  and  C_14 
REMARK    4  A    between atoms: C_14  and  C_15 
REMARK    5  A    between atoms: C_15  and  C_16 
REMARK    6  A    between atoms: N_26  and  C_27 
REMARK    7  A    between atoms: C_27  and  C_28 
ROOT
HETATM    1  C   UNL     1      -7.764   2.423 -31.273  1.00  0.00     0.123 C 
HETATM    2  N   UNL     1      -7.402   3.093 -32.511  1.00  0.00    -0.324 N 
HETATM    3  C   UNL     1      -8.463   3.728 -33.116  1.00  0.00     0.326 C 
HETATM    4  O   UNL     1      -8.425   4.202 -34.236  1.00  0.00    -0.247 OA
HETATM    5  N   UNL     1      -9.496   3.746 -32.239  1.00  0.00    -0.268 N 
HETATM    6  C   UNL     1      -9.143   3.104 -31.094  1.00  0.00     0.257 C 
HETATM    7  O   UNL     1      -9.818   3.051 -30.074  1.00  0.00    -0.270 OA
HETATM    8  H   UNL     1      -6.612   2.830 -33.096  1.00  0.00     0.165 HD
ENDROOT
BRANCH   1   9
HETATM    9  C   UNL     1      -6.717   2.728 -30.150  1.00  0.00     0.027 C 
HETATM   10  C   UNL     1      -6.092   4.132 -30.127  1.00  0.00     0.035 C 
HETATM   11  C   UNL     1      -4.923   4.375 -31.073  1.00  0.00     0.235 C 
HETATM   12  N   UNL     1      -3.918   3.248 -31.072  1.00  0.00    -0.067 N 
HETATM   13  H   UNL     1      -3.341   3.376 -30.232  1.00  0.00     0.280 HD
HETATM   14  C   UNL     1      -4.473   1.850 -31.040  1.00  0.00     0.235 C 
HETATM   15  C   UNL     1      -5.574   1.705 -30.008  1.00  0.00     0.035 C 
BRANCH  12  16
HETATM   16  C   UNL     1      -2.958   3.362 -32.255  1.00  0.00     0.277 C 
BRANCH  16  17
HETATM   17  C   UNL     1      -2.020   4.506 -32.184  1.00  0.00     0.011 A 
HETATM   18  C   UNL     1      -1.626   5.360 -33.256  1.00  0.00     0.060 A 
HETATM   19  C   UNL     1      -2.032   5.309 -34.685  1.00  0.00     0.073 C 
HETATM   20  N   UNL     1      -0.792   6.312 -32.837  1.00  0.00    -0.178 NA
HETATM   21  N   UNL     1      -0.582   6.039 -31.542  1.00  0.00    -0.284 N 
HETATM   22  C   UNL     1       0.343   6.843 -30.778  1.00  0.00     0.179 C 
HETATM   23  C   UNL     1      -1.323   4.983 -31.091  1.00  0.00     0.122 A 
ENDBRANCH  16  17
ENDBRANCH  12  16
ENDBRANCH   1   9
BRANCH   1  24
HETATM   24  C   UNL     1      -8.085   0.916 -31.531  1.00  0.00     0.082 C 
BRANCH  24  25
HETATM   25  C   UNL     1      -7.527   0.179 -32.737  1.00  0.00    -0.034 A 
HETATM   26  C   UNL     1      -8.134   0.105 -34.002  1.00  0.00     0.040 A 
HETATM   27 CL   UNL     1      -9.609   0.906 -34.387  1.00  0.00    -0.084 Cl
HETATM   28  C   UNL     1      -7.576  -0.677 -35.024  1.00  0.00     0.024 A 
HETATM   29  C   UNL     1      -6.421  -1.420 -34.797  1.00  0.00     0.002 A 
HETATM   30  C   UNL     1      -5.817  -1.385 -33.549  1.00  0.00     0.001 A 
HETATM   31  C   UNL     1      -6.364  -0.597 -32.532  1.00  0.00     0.009 A 
ENDBRANCH  24  25
ENDBRANCH   1  24
BRANCH   5  32
HETATM   32  C   UNL     1     -10.781   4.364 -32.487  1.00  0.00     0.141 C 
BRANCH  32  33
HETATM   33  C   UNL     1     -11.735   3.355 -33.053  1.00  0.00     0.004 A 
HETATM   34  C   UNL     1     -13.178   3.704 -33.327  1.00  0.00     0.007 A 
HETATM   35  C   UNL     1     -12.228   3.490 -34.472  1.00  0.00     0.007 A 
ENDBRANCH  32  33
ENDBRANCH   5  32
TORSDOF 7
ENDMDL
MODEL 5
REMARK VINA RESULT:      -8.9      3.623      6.747
REMARK  7 active torsions:
REMARK  status: ('A' for Active; 'I' for Inactive)
REMARK    1  A    between atoms: C_7  and  C_8 
REMARK    2  A    between atoms: C_8  and  N_9 
REMARK    3  A    between atoms: C_13  and  C_14 
REMARK    4  A    between atoms: C_14  and  C_15 
REMARK    5  A    between atoms: C_15  and  C_16 
REMARK    6  A    between atoms: N_26  and  C_27 
REMARK    7  A    between atoms: C_27  and  C_28 
ROOT
HETATM    1  C   UNL     1      -6.237  -0.112 -32.649  1.00  0.00     0.123 C 
HETATM    2  N   UNL     1      -6.260  -0.495 -31.247  1.00  0.00    -0.324 N 
HETATM    3  C   UNL     1      -5.947   0.540 -30.395  1.00  0.00     0.326 C 
HETATM    4  O   UNL     1      -5.742   0.403 -29.204  1.00  0.00    -0.247 OA
HETATM    5  N   UNL     1      -5.948   1.689 -31.114  1.00  0.00    -0.268 N 
HETATM    6  C   UNL     1      -6.217   1.420 -32.419  1.00  0.00     0.257 C 
HETATM    7  O   UNL     1      -6.398   2.257 -33.294  1.00  0.00    -0.270 OA
HETATM    8  H   UNL     1      -6.118  -1.445 -30.910  1.00  0.00     0.165 HD
ENDROOT
BRANCH   1   9
HETATM    9  C   UNL     1      -7.499  -0.659 -33.395  1.00  0.00     0.027 C 
HETATM   10  C   UNL     1      -7.749  -0.158 -34.825  1.00  0.00     0.035 C 
HETATM   11  C   UNL     1      -8.440   1.192 -34.965  1.00  0.00     0.235 C 
HETATM   12  N   UNL     1      -9.619   1.353 -34.036  1.00  0.00    -0.067 N 
HETATM   13  H   UNL     1     -10.399   0.843 -34.469  1.00  0.00     0.280 HD
HETATM   14  C   UNL     1      -9.450   0.830 -32.635  1.00  0.00     0.235 C 
HETATM   15  C   UNL     1      -8.828  -0.554 -32.622  1.00  0.00     0.035 C 
BRANCH  12  16
HETATM   16  C   UNL     1     -10.068   2.810 -33.959  1.00  0.00     0.277 C 
BRANCH  16  17
HETATM   17  C   UNL     1     -11.361   3.025 -33.270  1.00  0.00     0.011 A 
HETATM   18  C   UNL     1     -12.631   2.495 -33.643  1.00  0.00     0.060 A 
HETATM   19  C   UNL     1     -12.975   1.630 -34.802  1.00  0.00     0.073 C 
HETATM   20  N   UNL     1     -13.582   2.860 -32.782  1.00  0.00    -0.178 NA
HETATM   21  N   UNL     1     -12.966   3.673 -31.914  1.00  0.00    -0.284 N 
HETATM   22  C   UNL     1     -13.726   4.316 -30.868  1.00  0.00     0.179 C 
HETATM   23  C   UNL     1     -11.622   3.779 -32.141  1.00  0.00     0.122 A 
ENDBRANCH  16  17
ENDBRANCH  12  16
ENDBRANCH   1   9
BRANCH   1  24
HETATM   24  C   UNL     1      -4.852  -0.444 -33.293  1.00  0.00     0.082 C 
BRANCH  24  25
HETATM   25  C   UNL     1      -4.242  -1.832 -33.195  1.00  0.00    -0.034 A 
HETATM   26  C   UNL     1      -4.506  -2.904 -34.066  1.00  0.00     0.040 A 
HETATM   27 CL   UNL     1      -5.546  -2.772 -35.432  1.00  0.00    -0.084 Cl
HETATM   28  C   UNL     1      -3.955  -4.172 -33.833  1.00  0.00     0.024 A 
HETATM   29  C   UNL     1      -3.156  -4.405 -32.718  1.00  0.00     0.002 A 
HETATM   30  C   UNL     1      -2.901  -3.370 -31.829  1.00  0.00     0.001 A 
HETATM   31  C   UNL     1      -3.438  -2.102 -32.064  1.00  0.00     0.009 A 
ENDBRANCH  24  25
ENDBRANCH   1  24
BRANCH   5  32
HETATM   32  C   UNL     1      -5.706   3.007 -30.567  1.00  0.00     0.141 C 
BRANCH  32  33
HETATM   33  C   UNL     1      -6.916   3.482 -29.820  1.00  0.00     0.004 A 
HETATM   34  C   UNL     1      -7.424   4.897 -29.962  1.00  0.00     0.007 A 
HETATM   35  C   UNL     1      -8.203   3.757 -30.557  1.00  0.00     0.007 A 
ENDBRANCH  32  33
ENDBRANCH   5  32
TORSDOF 7
ENDMDL
MODEL 6
REMARK VINA RESULT:      -8.7      2.019      2.311
REMARK  7 active torsions:
REMARK  status: ('A' for Active; 'I' for Inactive)
REMARK    1  A    between atoms: C_7  and  C_8 
REMARK    2  A    between atoms: C_8  and  N_9 
REMARK    3  A    between atoms: C_13  and  C_14 
REMARK    4  A    between atoms: C_14  and  C_15 
REMARK    5  A    between atoms: C_15  and  C_16 
REMARK    6  A    between atoms: N_26  and  C_27 
REMARK    7  A    between atoms: C_27  and  C_28 
ROOT
HETATM    1  C   UNL     1      -6.254   2.110 -32.394  1.00  0.00     0.123 C 
HETATM    2  N   UNL     1      -6.743   3.472 -32.532  1.00  0.00    -0.324 N 
HETATM    3  C   UNL     1      -8.113   3.549 -32.648  1.00  0.00     0.326 C 
HETATM    4  O   UNL     1      -8.716   4.565 -32.941  1.00  0.00    -0.247 OA
HETATM    5  N   UNL     1      -8.628   2.331 -32.350  1.00  0.00    -0.268 N 
HETATM    6  C   UNL     1      -7.623   1.456 -32.080  1.00  0.00     0.257 C 
HETATM    7  O   UNL     1      -7.769   0.312 -31.670  1.00  0.00    -0.270 OA
HETATM    8  H   UNL     1      -6.193   4.244 -32.901  1.00  0.00     0.165 HD
ENDROOT
BRANCH   1   9
HETATM    9  C   UNL     1      -5.191   2.016 -31.250  1.00  0.00     0.027 C 
HETATM   10  C   UNL     1      -5.447   2.835 -29.976  1.00  0.00     0.035 C 
HETATM   11  C   UNL     1      -5.050   4.305 -30.016  1.00  0.00     0.235 C 
HETATM   12  N   UNL     1      -3.693   4.534 -30.639  1.00  0.00    -0.067 N 
HETATM   13  H   UNL     1      -3.001   4.307 -29.915  1.00  0.00     0.280 HD
HETATM   14  C   UNL     1      -3.365   3.718 -31.860  1.00  0.00     0.235 C 
HETATM   15  C   UNL     1      -3.730   2.257 -31.675  1.00  0.00     0.035 C 
BRANCH  12  16
HETATM   16  C   UNL     1      -3.478   6.009 -30.969  1.00  0.00     0.277 C 
BRANCH  16  17
HETATM   17  C   UNL     1      -2.124   6.522 -30.662  1.00  0.00     0.011 A 
HETATM   18  C   UNL     1      -1.043   6.691 -31.576  1.00  0.00     0.060 A 
HETATM   19  C   UNL     1      -0.995   6.384 -33.030  1.00  0.00     0.073 C 
HETATM   20  N   UNL     1       0.028   7.208 -30.972  1.00  0.00    -0.178 NA
HETATM   21  N   UNL     1      -0.317   7.300 -29.680  1.00  0.00    -0.284 N 
HETATM   22  C   UNL     1       0.647   7.763 -28.710  1.00  0.00     0.179 C 
HETATM   23  C   UNL     1      -1.612   6.932 -29.445  1.00  0.00     0.122 A 
ENDBRANCH  16  17
ENDBRANCH  12  16
ENDBRANCH   1   9
BRANCH   1  24
HETATM   24  C   UNL     1      -5.834   1.528 -33.782  1.00  0.00     0.082 C 
BRANCH  24  25
HETATM   25  C   UNL     1      -5.707   0.031 -34.011  1.00  0.00    -0.034 A 
HETATM   26  C   UNL     1      -6.625  -0.767 -34.715  1.00  0.00     0.040 A 
HETATM   27 CL   UNL     1      -8.031  -0.134 -35.482  1.00  0.00    -0.084 Cl
HETATM   28  C   UNL     1      -6.456  -2.157 -34.794  1.00  0.00     0.024 A 
HETATM   29  C   UNL     1      -5.390  -2.780 -34.151  1.00  0.00     0.002 A 
HETATM   30  C   UNL     1      -4.485  -2.017 -33.428  1.00  0.00     0.001 A 
HETATM   31  C   UNL     1      -4.643  -0.630 -33.358  1.00  0.00     0.009 A 
ENDBRANCH  24  25
ENDBRANCH   1  24
BRANCH   5  32
HETATM   32  C   UNL     1     -10.040   2.015 -32.317  1.00  0.00     0.141 C 
BRANCH  32  33
HETATM   33  C   UNL     1     -10.458   1.398 -33.618  1.00  0.00     0.004 A 
HETATM   34  C   UNL     1     -11.893   1.014 -33.882  1.00  0.00     0.007 A 
HETATM   35  C   UNL     1     -11.287   2.187 -34.601  1.00  0.00     0.007 A 
ENDBRANCH  32  33
ENDBRANCH   5  32
TORSDOF 7
ENDMDL
MODEL 7
REMARK VINA RESULT:      -8.7      2.708      6.711
REMARK  7 active torsions:
REMARK  status: ('A' for Active; 'I' for Inactive)
REMARK    1  A    between atoms: C_7  and  C_8 
REMARK    2  A    between atoms: C_8  and  N_9 
REMARK    3  A    between atoms: C_13  and  C_14 
REMARK    4  A    between atoms: C_14  and  C_15 
REMARK    5  A    between atoms: C_15  and  C_16 
REMARK    6  A    between atoms: N_26  and  C_27 
REMARK    7  A    between atoms: C_27  and  C_28 
ROOT
HETATM    1  C   UNL     1      -4.654   3.205 -32.124  1.00  0.00     0.123 C 
HETATM    2  N   UNL     1      -5.704   3.249 -33.129  1.00  0.00    -0.324 N 
HETATM    3  C   UNL     1      -6.146   2.002 -33.510  1.00  0.00     0.326 C 
HETATM    4  O   UNL     1      -6.891   1.802 -34.450  1.00  0.00    -0.247 OA
HETATM    5  N   UNL     1      -5.634   1.094 -32.644  1.00  0.00    -0.268 N 
HETATM    6  C   UNL     1      -4.839   1.717 -31.733  1.00  0.00     0.257 C 
HETATM    7  O   UNL     1      -4.326   1.185 -30.757  1.00  0.00    -0.270 OA
HETATM    8  H   UNL     1      -5.842   4.019 -33.779  1.00  0.00     0.165 HD
ENDROOT
BRANCH   1   9
HETATM    9  C   UNL     1      -4.935   4.236 -30.982  1.00  0.00     0.027 C 
HETATM   10  C   UNL     1      -5.646   3.720 -29.721  1.00  0.00     0.035 C 
HETATM   11  C   UNL     1      -7.163   3.610 -29.788  1.00  0.00     0.235 C 
HETATM   12  N   UNL     1      -7.817   4.816 -30.418  1.00  0.00    -0.067 N 
HETATM   13  H   UNL     1      -7.843   5.542 -29.692  1.00  0.00     0.280 HD
HETATM   14  C   UNL     1      -7.134   5.399 -31.626  1.00  0.00     0.235 C 
HETATM   15  C   UNL     1      -5.638   5.537 -31.415  1.00  0.00     0.035 C 
BRANCH  12  16
HETATM   16  C   UNL     1      -9.275   4.533 -30.774  1.00  0.00     0.277 C 
BRANCH  16  17
HETATM   17  C   UNL     1      -9.477   3.394 -31.698  1.00  0.00     0.011 A 
HETATM   18  C   UNL     1      -9.892   3.458 -33.061  1.00  0.00     0.060 A 
HETATM   19  C   UNL     1     -10.237   4.654 -33.875  1.00  0.00     0.073 C 
HETATM   20  N   UNL     1      -9.941   2.245 -33.612  1.00  0.00    -0.178 NA
HETATM   21  N   UNL     1      -9.644   1.402 -32.614  1.00  0.00    -0.284 N 
HETATM   22  C   UNL     1      -9.674  -0.023 -32.843  1.00  0.00     0.179 C 
HETATM   23  C   UNL     1      -9.324   2.043 -31.450  1.00  0.00     0.122 A 
ENDBRANCH  16  17
ENDBRANCH  12  16
ENDBRANCH   1   9
BRANCH   1  24
HETATM   24  C   UNL     1      -3.243   3.276 -32.792  1.00  0.00     0.082 C 
BRANCH  24  25
HETATM   25  C   UNL     1      -2.515   4.598 -32.974  1.00  0.00    -0.034 A 
HETATM   26  C   UNL     1      -2.691   5.486 -34.050  1.00  0.00     0.040 A 
HETATM   27 CL   UNL     1      -3.825   5.216 -35.317  1.00  0.00    -0.084 Cl
HETATM   28  C   UNL     1      -1.903   6.639 -34.165  1.00  0.00     0.024 A 
HETATM   29  C   UNL     1      -0.908   6.917 -33.232  1.00  0.00     0.002 A 
HETATM   30  C   UNL     1      -0.698   6.042 -32.176  1.00  0.00     0.001 A 
HETATM   31  C   UNL     1      -1.490   4.898 -32.049  1.00  0.00     0.009 A 
ENDBRANCH  24  25
ENDBRANCH   1  24
BRANCH   5  32
HETATM   32  C   UNL     1      -5.902  -0.328 -32.682  1.00  0.00     0.141 C 
BRANCH  32  33
HETATM   33  C   UNL     1      -5.243  -0.942 -33.880  1.00  0.00     0.004 A 
HETATM   34  C   UNL     1      -4.736  -2.364 -33.857  1.00  0.00     0.007 A 
HETATM   35  C   UNL     1      -5.952  -2.015 -34.669  1.00  0.00     0.007 A 
ENDBRANCH  32  33
ENDBRANCH   5  32
TORSDOF 7
ENDMDL
MODEL 8
REMARK VINA RESULT:      -8.6      2.863      7.035
REMARK  7 active torsions:
REMARK  status: ('A' for Active; 'I' for Inactive)
REMARK    1  A    between atoms: C_7  and  C_8 
REMARK    2  A    between atoms: C_8  and  N_9 
REMARK    3  A    between atoms: C_13  and  C_14 
REMARK    4  A    between atoms: C_14  and  C_15 
REMARK    5  A    between atoms: C_15  and  C_16 
REMARK    6  A    between atoms: N_26  and  C_27 
REMARK    7  A    between atoms: C_27  and  C_28 
ROOT
HETATM    1  C   UNL     1      -6.679   0.847 -32.863  1.00  0.00     0.123 C 
HETATM    2  N   UNL     1      -5.624   0.962 -31.871  1.00  0.00    -0.324 N 
HETATM    3  C   UNL     1      -4.983   2.181 -31.895  1.00  0.00     0.326 C 
HETATM    4  O   UNL     1      -3.967   2.429 -31.274  1.00  0.00    -0.247 OA
HETATM    5  N   UNL     1      -5.700   3.014 -32.689  1.00  0.00    -0.268 N 
HETATM    6  C   UNL     1      -6.769   2.354 -33.209  1.00  0.00     0.257 C 
HETATM    7  O   UNL     1      -7.664   2.864 -33.871  1.00  0.00    -0.270 OA
HETATM    8  H   UNL     1      -5.121   0.171 -31.474  1.00  0.00     0.165 HD
ENDROOT
BRANCH   1   9
HETATM    9  C   UNL     1      -7.970   0.228 -32.232  1.00  0.00     0.027 C 
HETATM   10  C   UNL     1      -9.131  -0.107 -33.180  1.00  0.00     0.035 C 
HETATM   11  C   UNL     1     -10.054   1.042 -33.564  1.00  0.00     0.235 C 
HETATM   12  N   UNL     1     -10.442   1.907 -32.390  1.00  0.00    -0.067 N 
HETATM   13  H   UNL     1     -11.184   1.401 -31.891  1.00  0.00     0.280 HD
HETATM   14  C   UNL     1      -9.356   2.224 -31.397  1.00  0.00     0.235 C 
HETATM   15  C   UNL     1      -8.555   0.991 -31.027  1.00  0.00     0.035 C 
BRANCH  12  16
HETATM   16  C   UNL     1     -11.074   3.219 -32.853  1.00  0.00     0.277 C 
BRANCH  16  17
HETATM   17  C   UNL     1     -12.483   3.407 -32.441  1.00  0.00     0.011 A 
HETATM   18  C   UNL     1     -12.991   4.398 -31.551  1.00  0.00     0.060 A 
HETATM   19  C   UNL     1     -12.251   5.456 -30.813  1.00  0.00     0.073 C 
HETATM   20  N   UNL     1     -14.316   4.306 -31.424  1.00  0.00    -0.178 NA
HETATM   21  N   UNL     1     -14.655   3.232 -32.150  1.00  0.00    -0.284 N 
HETATM   22  C   UNL     1     -16.030   2.790 -32.181  1.00  0.00     0.179 C 
HETATM   23  C   UNL     1     -13.595   2.674 -32.809  1.00  0.00     0.122 A 
ENDBRANCH  16  17
ENDBRANCH  12  16
ENDBRANCH   1   9
BRANCH   1  24
HETATM   24  C   UNL     1      -6.146   0.163 -34.163  1.00  0.00     0.082 C 
BRANCH  24  25
HETATM   25  C   UNL     1      -5.750  -1.304 -34.186  1.00  0.00    -0.034 A 
HETATM   26  C   UNL     1      -4.493  -1.816 -33.820  1.00  0.00     0.040 A 
HETATM   27 CL   UNL     1      -3.211  -0.830 -33.229  1.00  0.00    -0.084 Cl
HETATM   28  C   UNL     1      -4.204  -3.181 -33.961  1.00  0.00     0.024 A 
HETATM   29  C   UNL     1      -5.147  -4.054 -34.494  1.00  0.00     0.002 A 
HETATM   30  C   UNL     1      -6.386  -3.569 -34.887  1.00  0.00     0.001 A 
HETATM   31  C   UNL     1      -6.682  -2.211 -34.736  1.00  0.00     0.009 A 
ENDBRANCH  24  25
ENDBRANCH   1  24
BRANCH   5  32
HETATM   32  C   UNL     1      -5.375   4.403 -32.936  1.00  0.00     0.141 C 
BRANCH  32  33
HETATM   33  C   UNL     1      -4.093   4.500 -33.707  1.00  0.00     0.004 A 
HETATM   34  C   UNL     1      -4.036   5.170 -35.059  1.00  0.00     0.007 A 
HETATM   35  C   UNL     1      -3.404   5.833 -33.867  1.00  0.00     0.007 A 
ENDBRANCH  32  33
ENDBRANCH   5  32
TORSDOF 7
ENDMDL
MODEL 9
REMARK VINA RESULT:      -8.4      1.866      2.421
REMARK  7 active torsions:
REMARK  status: ('A' for Active; 'I' for Inactive)
REMARK    1  A    between atoms: C_7  and  C_8 
REMARK    2  A    between atoms: C_8  and  N_9 
REMARK    3  A    between atoms: C_13  and  C_14 
REMARK    4  A    between atoms: C_14  and  C_15 
REMARK    5  A    between atoms: C_15  and  C_16 
REMARK    6  A    between atoms: N_26  and  C_27 
REMARK    7  A    between atoms: C_27  and  C_28 
ROOT
HETATM    1  C   UNL     1      -6.778   1.174 -32.885  1.00  0.00     0.123 C 
HETATM    2  N   UNL     1      -6.960   2.596 -33.123  1.00  0.00    -0.324 N 
HETATM    3  C   UNL     1      -8.264   2.940 -33.398  1.00  0.00     0.326 C 
HETATM    4  O   UNL     1      -8.611   4.038 -33.792  1.00  0.00    -0.247 OA
HETATM    5  N   UNL     1      -9.047   1.869 -33.120  1.00  0.00    -0.268 N 
HETATM    6  C   UNL     1      -8.278   0.827 -32.709  1.00  0.00     0.257 C 
HETATM    7  O   UNL     1      -8.699  -0.240 -32.280  1.00  0.00    -0.270 OA
HETATM    8  H   UNL     1      -6.227   3.220 -33.452  1.00  0.00     0.165 HD
ENDROOT
BRANCH   1   9
HETATM    9  C   UNL     1      -5.884   0.932 -31.624  1.00  0.00     0.027 C 
HETATM   10  C   UNL     1      -6.352   1.546 -30.296  1.00  0.00     0.035 C 
HETATM   11  C   UNL     1      -6.015   3.013 -30.065  1.00  0.00     0.235 C 
HETATM   12  N   UNL     1      -4.596   3.361 -30.444  1.00  0.00    -0.067 N 
HETATM   13  H   UNL     1      -4.003   3.043 -29.667  1.00  0.00     0.280 HD
HETATM   14  C   UNL     1      -4.065   2.744 -31.709  1.00  0.00     0.235 C 
HETATM   15  C   UNL     1      -4.389   1.265 -31.793  1.00  0.00     0.035 C 
BRANCH  12  16
HETATM   16  C   UNL     1      -4.399   4.874 -30.522  1.00  0.00     0.277 C 
BRANCH  16  17
HETATM   17  C   UNL     1      -3.785   5.355 -31.781  1.00  0.00     0.011 A 
HETATM   18  C   UNL     1      -4.464   5.876 -32.921  1.00  0.00     0.060 A 
HETATM   19  C   UNL     1      -5.924   6.048 -33.139  1.00  0.00     0.073 C 
HETATM   20  N   UNL     1      -3.604   6.248 -33.871  1.00  0.00    -0.178 NA
HETATM   21  N   UNL     1      -2.399   5.904 -33.396  1.00  0.00    -0.284 N 
HETATM   22  C   UNL     1      -1.222   6.102 -34.210  1.00  0.00     0.179 C 
HETATM   23  C   UNL     1      -2.448   5.393 -32.129  1.00  0.00     0.122 A 
ENDBRANCH  16  17
ENDBRANCH  12  16
ENDBRANCH   1   9
BRANCH   1  24
HETATM   24  C   UNL     1      -6.344   0.443 -34.196  1.00  0.00     0.082 C 
BRANCH  24  25
HETATM   25  C   UNL     1      -6.012  -1.040 -34.207  1.00  0.00    -0.034 A 
HETATM   26  C   UNL     1      -4.736  -1.593 -33.998  1.00  0.00     0.040 A 
HETATM   27 CL   UNL     1      -3.346  -0.643 -33.638  1.00  0.00    -0.084 Cl
HETATM   28  C   UNL     1      -4.523  -2.974 -34.116  1.00  0.00     0.024 A 
HETATM   29  C   UNL     1      -5.565  -3.825 -34.471  1.00  0.00     0.002 A 
HETATM   30  C   UNL     1      -6.828  -3.301 -34.708  1.00  0.00     0.001 A 
HETATM   31  C   UNL     1      -7.047  -1.927 -34.579  1.00  0.00     0.009 A 
ENDBRANCH  24  25
ENDBRANCH   1  24
BRANCH   5  32
HETATM   32  C   UNL     1     -10.490   1.846 -33.239  1.00  0.00     0.141 C 
BRANCH  32  33
HETATM   33  C   UNL     1     -10.884   1.772 -34.684  1.00  0.00     0.004 A 
HETATM   34  C   UNL     1     -12.315   1.528 -35.097  1.00  0.00     0.007 A 
HETATM   35  C   UNL     1     -11.696   2.882 -35.305  1.00  0.00     0.007 A 
ENDBRANCH  32  33
ENDBRANCH   5  32
TORSDOF 7
ENDMDL
MODEL 10
REMARK VINA RESULT:      -8.3      2.569      4.876
REMARK  7 active torsions:
REMARK  status: ('A' for Active; 'I' for Inactive)
REMARK    1  A    between atoms: C_7  and  C_8 
REMARK    2  A    between atoms: C_8  and  N_9 
REMARK    3  A    between atoms: C_13  and  C_14 
REMARK    4  A    between atoms: C_14  and  C_15 
REMARK    5  A    between atoms: C_15  and  C_16 
REMARK    6  A    between atoms: N_26  and  C_27 
REMARK    7  A    between atoms: C_27  and  C_28 
ROOT
HETATM    1  C   UNL     1      -7.670   1.492 -32.704  1.00  0.00     0.123 C 
HETATM    2  N   UNL     1      -6.741   0.785 -31.837  1.00  0.00    -0.324 N 
HETATM    3  C   UNL     1      -6.190  -0.332 -32.424  1.00  0.00     0.326 C 
HETATM    4  O   UNL     1      -5.526  -1.158 -31.827  1.00  0.00    -0.247 OA
HETATM    5  N   UNL     1      -6.498  -0.305 -33.745  1.00  0.00    -0.268 N 
HETATM    6  C   UNL     1      -7.266   0.782 -34.020  1.00  0.00     0.257 C 
HETATM    7  O   UNL     1      -7.609   1.143 -35.139  1.00  0.00    -0.270 OA
HETATM    8  H   UNL     1      -6.764   0.822 -30.821  1.00  0.00     0.165 HD
ENDROOT
BRANCH   1   9
HETATM    9  C   UNL     1      -7.403   3.032 -32.666  1.00  0.00     0.027 C 
HETATM   10  C   UNL     1      -6.625   3.646 -33.840  1.00  0.00     0.035 C 
HETATM   11  C   UNL     1      -5.107   3.534 -33.787  1.00  0.00     0.235 C 
HETATM   12  N   UNL     1      -4.537   3.861 -32.428  1.00  0.00    -0.067 N 
HETATM   13  H   UNL     1      -4.522   4.886 -32.359  1.00  0.00     0.280 HD
HETATM   14  C   UNL     1      -5.289   3.332 -31.236  1.00  0.00     0.235 C 
HETATM   15  C   UNL     1      -6.781   3.570 -31.362  1.00  0.00     0.035 C 
BRANCH  12  16
HETATM   16  C   UNL     1      -3.079   3.418 -32.317  1.00  0.00     0.277 C 
BRANCH  16  17
HETATM   17  C   UNL     1      -2.096   4.524 -32.284  1.00  0.00     0.011 A 
HETATM   18  C   UNL     1      -1.597   5.262 -33.397  1.00  0.00     0.060 A 
HETATM   19  C   UNL     1      -1.914   5.099 -34.841  1.00  0.00     0.073 C 
HETATM   20  N   UNL     1      -0.747   6.214 -33.009  1.00  0.00    -0.178 NA
HETATM   21  N   UNL     1      -0.631   6.050 -31.684  1.00  0.00    -0.284 N 
HETATM   22  C   UNL     1       0.280   6.882 -30.934  1.00  0.00     0.179 C 
HETATM   23  C   UNL     1      -1.447   5.070 -31.193  1.00  0.00     0.122 A 
ENDBRANCH  16  17
ENDBRANCH  12  16
ENDBRANCH   1   9
BRANCH   1  24
HETATM   24  C   UNL     1      -9.140   1.035 -32.432  1.00  0.00     0.082 C 
BRANCH  24  25
HETATM   25  C   UNL     1     -10.326   1.773 -33.029  1.00  0.00    -0.034 A 
HETATM   26  C   UNL     1     -10.963   2.890 -32.460  1.00  0.00     0.040 A 
HETATM   27 CL   UNL     1     -10.440   3.628 -30.995  1.00  0.00    -0.084 Cl
HETATM   28  C   UNL     1     -12.107   3.443 -33.052  1.00  0.00     0.024 A 
HETATM   29  C   UNL     1     -12.654   2.881 -34.202  1.00  0.00     0.002 A 
HETATM   30  C   UNL     1     -12.059   1.763 -34.767  1.00  0.00     0.001 A 
HETATM   31  C   UNL     1     -10.911   1.216 -34.188  1.00  0.00     0.009 A 
ENDBRANCH  24  25
ENDBRANCH   1  24
BRANCH   5  32
HETATM   32  C   UNL     1      -6.063  -1.287 -34.715  1.00  0.00     0.141 C 
BRANCH  32  33
HETATM   33  C   UNL     1      -6.309  -2.670 -34.191  1.00  0.00     0.004 A 
HETATM   34  C   UNL     1      -6.831  -3.769 -35.084  1.00  0.00     0.007 A 
HETATM   35  C   UNL     1      -5.408  -3.808 -34.602  1.00  0.00     0.007 A 
ENDBRANCH  32  33
ENDBRANCH   5  32
TORSDOF 7
ENDMDL
