MODEL 1
REMARK VINA RESULT:      -9.3      0.000      0.000
REMARK  2 active torsions:
REMARK  status: ('A' for Active; 'I' for Inactive)
REMARK    1  A    between atoms: C_9  and  O_10 
REMARK    2  A    between atoms: C_9  and  C_11 
ROOT
HETATM    1  C   UNL     1      -6.017  -4.584 -35.537  1.00  0.00     0.048 C 
HETATM    2  C   UNL     1      -5.126  -3.959 -34.502  1.00  0.00    -0.061 A 
HETATM    3  C   UNL     1      -5.219  -2.589 -34.215  1.00  0.00     0.020 A 
HETATM    4  C   UNL     1      -4.392  -2.056 -33.234  1.00  0.00     0.018 A 
HETATM    5  C   UNL     1      -3.476  -2.872 -32.569  1.00  0.00     0.045 A 
HETATM    6  N   UNL     1      -2.744  -2.135 -31.651  1.00  0.00    -0.323 N 
HETATM    7  C   UNL     1      -3.131  -0.793 -31.648  1.00  0.00     0.266 A 
HETATM    8  O   UNL     1      -2.621   0.064 -30.942  1.00  0.00    -0.269 OA
HETATM    9  C   UNL     1      -4.264  -0.632 -32.733  1.00  0.00     0.198 A 
HETATM   10  C   UNL     1      -3.351  -4.219 -32.835  1.00  0.00     0.031 A 
HETATM   11  C   UNL     1      -4.189  -4.762 -33.812  1.00  0.00     0.009 A 
HETATM   12  H   UNL     1      -2.022  -2.491 -31.044  1.00  0.00     0.169 HD
ENDROOT
BRANCH   9  13
HETATM   13  O   UNL     1      -3.855   0.220 -33.793  1.00  0.00    -0.371 OA
HETATM   14  H   UNL     1      -4.436   0.997 -33.762  1.00  0.00     0.212 HD
ENDBRANCH   9  13
BRANCH   9  15
HETATM   15  C   UNL     1      -5.603  -0.274 -32.134  1.00  0.00     0.018 A 
HETATM   16  C   UNL     1      -6.815   0.053 -32.844  1.00  0.00     0.002 A 
HETATM   17  C   UNL     1      -7.812   0.297 -31.898  1.00  0.00     0.043 A 
HETATM   18  C   UNL     1      -7.161   0.161 -34.210  1.00  0.00     0.014 A 
HETATM   19  C   UNL     1      -9.125   0.643 -32.244  1.00  0.00     0.030 A 
HETATM   20  N   UNL     1      -7.242   0.134 -30.660  1.00  0.00    -0.365 N 
HETATM   21  C   UNL     1      -9.435   0.742 -33.603  1.00  0.00     0.002 A 
HETATM   22  C   UNL     1      -8.468   0.505 -34.574  1.00  0.00     0.001 A 
HETATM   23  H   UNL     1      -7.732   0.256 -29.784  1.00  0.00     0.165 HD
HETATM   24  C   UNL     1      -5.927  -0.215 -30.785  1.00  0.00     0.100 A 
ENDBRANCH   9  15
TORSDOF 2
ENDMDL
MODEL 2
REMARK VINA RESULT:      -8.0     13.141     14.374
REMARK  2 active torsions:
REMARK  status: ('A' for Active; 'I' for Inactive)
REMARK    1  A    between atoms: C_9  and  O_10 
REMARK    2  A    between atoms: C_9  and  C_11 
ROOT
HETATM    1  C   UNL     1      -4.840 -15.238 -44.199  1.00  0.00     0.048 C 
HETATM    2  C   UNL     1      -4.221 -14.745 -42.923  1.00  0.00    -0.061 A 
HETATM    3  C   UNL     1      -4.948 -13.921 -42.050  1.00  0.00     0.020 A 
HETATM    4  C   UNL     1      -4.345 -13.506 -40.869  1.00  0.00     0.018 A 
HETATM    5  C   UNL     1      -3.036 -13.889 -40.577  1.00  0.00     0.045 A 
HETATM    6  N   UNL     1      -2.630 -13.350 -39.366  1.00  0.00    -0.323 N 
HETATM    7  C   UNL     1      -3.641 -12.584 -38.783  1.00  0.00     0.266 A 
HETATM    8  O   UNL     1      -3.521 -11.987 -37.723  1.00  0.00    -0.269 OA
HETATM    9  C   UNL     1      -4.875 -12.614 -39.764  1.00  0.00     0.198 A 
HETATM   10  C   UNL     1      -2.291 -14.689 -41.416  1.00  0.00     0.031 A 
HETATM   11  C   UNL     1      -2.897 -15.119 -42.600  1.00  0.00     0.009 A 
HETATM   12  H   UNL     1      -1.729 -13.479 -38.931  1.00  0.00     0.169 HD
ENDROOT
BRANCH   9  13
HETATM   13  O   UNL     1      -5.164 -11.323 -40.281  1.00  0.00    -0.371 OA
HETATM   14  H   UNL     1      -5.240 -10.731 -39.515  1.00  0.00     0.212 HD
ENDBRANCH   9  13
BRANCH   9  15
HETATM   15  C   UNL     1      -6.070 -13.329 -39.183  1.00  0.00     0.018 A 
HETATM   16  C   UNL     1      -7.461 -13.066 -39.457  1.00  0.00     0.002 A 
HETATM   17  C   UNL     1      -8.222 -13.974 -38.719  1.00  0.00     0.043 A 
HETATM   18  C   UNL     1      -8.149 -12.138 -40.272  1.00  0.00     0.014 A 
HETATM   19  C   UNL     1      -9.622 -14.001 -38.752  1.00  0.00     0.030 A 
HETATM   20  N   UNL     1      -7.343 -14.759 -38.016  1.00  0.00    -0.365 N 
HETATM   21  C   UNL     1     -10.272 -13.070 -39.567  1.00  0.00     0.002 A 
HETATM   22  C   UNL     1      -9.547 -12.150 -40.317  1.00  0.00     0.001 A 
HETATM   23  H   UNL     1      -7.616 -15.503 -37.389  1.00  0.00     0.165 HD
HETATM   24  C   UNL     1      -6.055 -14.392 -38.289  1.00  0.00     0.100 A 
ENDBRANCH   9  15
TORSDOF 2
ENDMDL
MODEL 3
REMARK VINA RESULT:      -8.0      3.583      5.083
REMARK  2 active torsions:
REMARK  status: ('A' for Active; 'I' for Inactive)
REMARK    1  A    between atoms: C_9  and  O_10 
REMARK    2  A    between atoms: C_9  and  C_11 
ROOT
HETATM    1  C   UNL     1      -5.086  -2.564 -34.240  1.00  0.00     0.048 C 
HETATM    2  C   UNL     1      -5.970  -1.361 -34.078  1.00  0.00    -0.061 A 
HETATM    3  C   UNL     1      -5.826  -0.515 -32.968  1.00  0.00     0.020 A 
HETATM    4  C   UNL     1      -6.648   0.600 -32.869  1.00  0.00     0.018 A 
HETATM    5  C   UNL     1      -7.609   0.853 -33.848  1.00  0.00     0.045 A 
HETATM    6  N   UNL     1      -8.327   1.998 -33.543  1.00  0.00    -0.323 N 
HETATM    7  C   UNL     1      -7.885   2.575 -32.350  1.00  0.00     0.266 A 
HETATM    8  O   UNL     1      -8.372   3.581 -31.855  1.00  0.00    -0.269 OA
HETATM    9  C   UNL     1      -6.726   1.663 -31.791  1.00  0.00     0.198 A 
HETATM   10  C   UNL     1      -7.784   0.037 -34.945  1.00  0.00     0.031 A 
HETATM   11  C   UNL     1      -6.951  -1.080 -35.056  1.00  0.00     0.009 A 
HETATM   12  H   UNL     1      -9.074   2.395 -34.091  1.00  0.00     0.169 HD
ENDROOT
BRANCH   9  13
HETATM   13  O   UNL     1      -7.081   1.069 -30.551  1.00  0.00    -0.371 OA
HETATM   14  H   UNL     1      -7.965   0.689 -30.671  1.00  0.00     0.212 HD
ENDBRANCH   9  13
BRANCH   9  15
HETATM   15  C   UNL     1      -5.385   2.355 -31.785  1.00  0.00     0.018 A 
HETATM   16  C   UNL     1      -4.898   3.318 -32.741  1.00  0.00     0.002 A 
HETATM   17  C   UNL     1      -3.619   3.710 -32.339  1.00  0.00     0.043 A 
HETATM   18  C   UNL     1      -5.427   3.900 -33.914  1.00  0.00     0.014 A 
HETATM   19  C   UNL     1      -2.850   4.644 -33.045  1.00  0.00     0.030 A 
HETATM   20  N   UNL     1      -3.327   3.017 -31.191  1.00  0.00    -0.365 N 
HETATM   21  C   UNL     1      -3.402   5.201 -34.202  1.00  0.00     0.002 A 
HETATM   22  C   UNL     1      -4.673   4.836 -34.632  1.00  0.00     0.001 A 
HETATM   23  H   UNL     1      -2.459   3.098 -30.679  1.00  0.00     0.165 HD
HETATM   24  C   UNL     1      -4.374   2.211 -30.843  1.00  0.00     0.100 A 
ENDBRANCH   9  15
TORSDOF 2
ENDMDL
MODEL 4
REMARK VINA RESULT:      -7.9      2.409      5.650
REMARK  2 active torsions:
REMARK  status: ('A' for Active; 'I' for Inactive)
REMARK    1  A    between atoms: C_9  and  O_10 
REMARK    2  A    between atoms: C_9  and  C_11 
ROOT
HETATM    1  C   UNL     1      -2.743   3.855 -31.741  1.00  0.00     0.048 C 
HETATM    2  C   UNL     1      -4.070   3.156 -31.657  1.00  0.00    -0.061 A 
HETATM    3  C   UNL     1      -4.436   2.206 -32.622  1.00  0.00     0.020 A 
HETATM    4  C   UNL     1      -5.663   1.566 -32.495  1.00  0.00     0.018 A 
HETATM    5  C   UNL     1      -6.514   1.885 -31.436  1.00  0.00     0.045 A 
HETATM    6  N   UNL     1      -7.684   1.146 -31.513  1.00  0.00    -0.323 N 
HETATM    7  C   UNL     1      -7.679   0.294 -32.619  1.00  0.00     0.266 A 
HETATM    8  O   UNL     1      -8.606  -0.445 -32.918  1.00  0.00    -0.269 OA
HETATM    9  C   UNL     1      -6.318   0.525 -33.381  1.00  0.00     0.198 A 
HETATM   10  C   UNL     1      -6.189   2.820 -30.478  1.00  0.00     0.031 A 
HETATM   11  C   UNL     1      -4.951   3.458 -30.595  1.00  0.00     0.009 A 
HETATM   12  H   UNL     1      -8.458   1.190 -30.868  1.00  0.00     0.169 HD
ENDROOT
BRANCH   9  13
HETATM   13  O   UNL     1      -6.529   1.059 -34.679  1.00  0.00    -0.371 OA
HETATM   14  H   UNL     1      -6.494   2.025 -34.589  1.00  0.00     0.212 HD
ENDBRANCH   9  13
BRANCH   9  15
HETATM   15  C   UNL     1      -5.414  -0.683 -33.348  1.00  0.00     0.018 A 
HETATM   16  C   UNL     1      -5.658  -1.969 -33.954  1.00  0.00     0.002 A 
HETATM   17  C   UNL     1      -4.553  -2.782 -33.692  1.00  0.00     0.043 A 
HETATM   18  C   UNL     1      -6.717  -2.520 -34.710  1.00  0.00     0.014 A 
HETATM   19  C   UNL     1      -4.457  -4.106 -34.140  1.00  0.00     0.030 A 
HETATM   20  N   UNL     1      -3.670  -2.036 -32.952  1.00  0.00    -0.365 N 
HETATM   21  C   UNL     1      -5.521  -4.621 -34.883  1.00  0.00     0.002 A 
HETATM   22  C   UNL     1      -6.637  -3.841 -35.166  1.00  0.00     0.001 A 
HETATM   23  H   UNL     1      -2.780  -2.374 -32.612  1.00  0.00     0.165 HD
HETATM   24  C   UNL     1      -4.167  -0.779 -32.746  1.00  0.00     0.100 A 
ENDBRANCH   9  15
TORSDOF 2
ENDMDL
MODEL 5
REMARK VINA RESULT:      -7.9      2.996      5.546
REMARK  2 active torsions:
REMARK  status: ('A' for Active; 'I' for Inactive)
REMARK    1  A    between atoms: C_9  and  O_10 
REMARK    2  A    between atoms: C_9  and  C_11 
ROOT
HETATM    1  C   UNL     1      -4.854   4.831 -34.684  1.00  0.00     0.048 C 
HETATM    2  C   UNL     1      -4.944   4.213 -33.319  1.00  0.00    -0.061 A 
HETATM    3  C   UNL     1      -5.454   2.917 -33.156  1.00  0.00     0.020 A 
HETATM    4  C   UNL     1      -5.499   2.374 -31.877  1.00  0.00     0.018 A 
HETATM    5  C   UNL     1      -5.063   3.121 -30.782  1.00  0.00     0.045 A 
HETATM    6  N   UNL     1      -5.214   2.399 -29.609  1.00  0.00    -0.323 N 
HETATM    7  C   UNL     1      -5.752   1.134 -29.853  1.00  0.00     0.266 A 
HETATM    8  O   UNL     1      -6.001   0.316 -28.980  1.00  0.00    -0.269 OA
HETATM    9  C   UNL     1      -6.005   1.026 -31.407  1.00  0.00     0.198 A 
HETATM   10  C   UNL     1      -4.566   4.401 -30.906  1.00  0.00     0.031 A 
HETATM   11  C   UNL     1      -4.508   4.946 -32.191  1.00  0.00     0.009 A 
HETATM   12  H   UNL     1      -4.971   2.713 -28.682  1.00  0.00     0.169 HD
ENDROOT
BRANCH   9  13
HETATM   13  O   UNL     1      -7.388   0.897 -31.704  1.00  0.00    -0.371 OA
HETATM   14  H   UNL     1      -7.861   1.426 -31.042  1.00  0.00     0.212 HD
ENDBRANCH   9  13
BRANCH   9  15
HETATM   15  C   UNL     1      -5.130  -0.008 -32.073  1.00  0.00     0.018 A 
HETATM   16  C   UNL     1      -5.527  -0.975 -33.066  1.00  0.00     0.002 A 
HETATM   17  C   UNL     1      -4.397  -1.716 -33.418  1.00  0.00     0.043 A 
HETATM   18  C   UNL     1      -6.747  -1.289 -33.707  1.00  0.00     0.014 A 
HETATM   19  C   UNL     1      -4.425  -2.747 -34.366  1.00  0.00     0.030 A 
HETATM   20  N   UNL     1      -3.351  -1.234 -32.672  1.00  0.00    -0.365 N 
HETATM   21  C   UNL     1      -5.646  -3.033 -34.981  1.00  0.00     0.002 A 
HETATM   22  C   UNL     1      -6.793  -2.315 -34.658  1.00  0.00     0.001 A 
HETATM   23  H   UNL     1      -2.406  -1.590 -32.715  1.00  0.00     0.165 HD
HETATM   24  C   UNL     1      -3.771  -0.210 -31.870  1.00  0.00     0.100 A 
ENDBRANCH   9  15
TORSDOF 2
ENDMDL
MODEL 6
REMARK VINA RESULT:      -7.8      3.522      5.135
REMARK  2 active torsions:
REMARK  status: ('A' for Active; 'I' for Inactive)
REMARK    1  A    between atoms: C_9  and  O_10 
REMARK    2  A    between atoms: C_9  and  C_11 
ROOT
HETATM    1  C   UNL     1      -4.344  -1.597 -32.390  1.00  0.00     0.048 C 
HETATM    2  C   UNL     1      -5.583  -1.004 -32.996  1.00  0.00    -0.061 A 
HETATM    3  C   UNL     1      -6.455  -0.228 -32.218  1.00  0.00     0.020 A 
HETATM    4  C   UNL     1      -7.579   0.321 -32.824  1.00  0.00     0.018 A 
HETATM    5  C   UNL     1      -7.836   0.082 -34.174  1.00  0.00     0.045 A 
HETATM    6  N   UNL     1      -9.010   0.705 -34.565  1.00  0.00    -0.323 N 
HETATM    7  C   UNL     1      -9.600   1.395 -33.503  1.00  0.00     0.266 A 
HETATM    8  O   UNL     1     -10.653   2.008 -33.587  1.00  0.00    -0.269 OA
HETATM    9  C   UNL     1      -8.685   1.174 -32.237  1.00  0.00     0.198 A 
HETATM   10  C   UNL     1      -7.005  -0.684 -34.964  1.00  0.00     0.031 A 
HETATM   11  C   UNL     1      -5.868  -1.229 -34.362  1.00  0.00     0.009 A 
HETATM   12  H   UNL     1      -9.414   0.687 -35.489  1.00  0.00     0.169 HD
ENDROOT
BRANCH   9  13
HETATM   13  O   UNL     1      -9.366   0.452 -31.221  1.00  0.00    -0.371 OA
HETATM   14  H   UNL     1      -9.962  -0.165 -31.675  1.00  0.00     0.212 HD
ENDBRANCH   9  13
BRANCH   9  15
HETATM   15  C   UNL     1      -8.028   2.445 -31.758  1.00  0.00     0.018 A 
HETATM   16  C   UNL     1      -7.124   3.290 -32.498  1.00  0.00     0.002 A 
HETATM   17  C   UNL     1      -6.776   4.366 -31.677  1.00  0.00     0.043 A 
HETATM   18  C   UNL     1      -6.569   3.245 -33.796  1.00  0.00     0.014 A 
HETATM   19  C   UNL     1      -5.908   5.387 -32.085  1.00  0.00     0.030 A 
HETATM   20  N   UNL     1      -7.430   4.190 -30.484  1.00  0.00    -0.365 N 
HETATM   21  C   UNL     1      -5.375   5.313 -33.374  1.00  0.00     0.002 A 
HETATM   22  C   UNL     1      -5.700   4.257 -34.220  1.00  0.00     0.001 A 
HETATM   23  H   UNL     1      -7.358   4.818 -29.695  1.00  0.00     0.165 HD
HETATM   24  C   UNL     1      -8.187   3.053 -30.519  1.00  0.00     0.100 A 
ENDBRANCH   9  15
TORSDOF 2
ENDMDL
MODEL 7
REMARK VINA RESULT:      -7.8      2.704      4.345
REMARK  2 active torsions:
REMARK  status: ('A' for Active; 'I' for Inactive)
REMARK    1  A    between atoms: C_9  and  O_10 
REMARK    2  A    between atoms: C_9  and  C_11 
ROOT
HETATM    1  C   UNL     1      -5.738  -2.545 -34.966  1.00  0.00     0.048 C 
HETATM    2  C   UNL     1      -5.969  -1.485 -33.928  1.00  0.00    -0.061 A 
HETATM    3  C   UNL     1      -6.917  -0.473 -34.142  1.00  0.00     0.020 A 
HETATM    4  C   UNL     1      -7.116   0.474 -33.146  1.00  0.00     0.018 A 
HETATM    5  C   UNL     1      -6.368   0.424 -31.970  1.00  0.00     0.045 A 
HETATM    6  N   UNL     1      -6.712   1.469 -31.128  1.00  0.00    -0.323 N 
HETATM    7  C   UNL     1      -7.709   2.271 -31.689  1.00  0.00     0.266 A 
HETATM    8  O   UNL     1      -8.168   3.268 -31.153  1.00  0.00    -0.269 OA
HETATM    9  C   UNL     1      -8.046   1.670 -33.108  1.00  0.00     0.198 A 
HETATM   10  C   UNL     1      -5.422  -0.550 -31.732  1.00  0.00     0.031 A 
HETATM   11  C   UNL     1      -5.226  -1.512 -32.726  1.00  0.00     0.009 A 
HETATM   12  H   UNL     1      -6.319   1.654 -30.218  1.00  0.00     0.169 HD
ENDROOT
BRANCH   9  13
HETATM   13  O   UNL     1      -7.715   2.575 -34.151  1.00  0.00    -0.371 OA
HETATM   14  H   UNL     1      -6.754   2.515 -34.272  1.00  0.00     0.212 HD
ENDBRANCH   9  13
BRANCH   9  15
HETATM   15  C   UNL     1      -9.448   1.116 -33.192  1.00  0.00     0.018 A 
HETATM   16  C   UNL     1     -10.570   1.688 -33.895  1.00  0.00     0.002 A 
HETATM   17  C   UNL     1     -11.662   0.836 -33.722  1.00  0.00     0.043 A 
HETATM   18  C   UNL     1     -10.759   2.853 -34.671  1.00  0.00     0.014 A 
HETATM   19  C   UNL     1     -12.923   1.090 -34.278  1.00  0.00     0.030 A 
HETATM   20  N   UNL     1     -11.238  -0.211 -32.943  1.00  0.00    -0.365 N 
HETATM   21  C   UNL     1     -13.078   2.251 -35.039  1.00  0.00     0.002 A 
HETATM   22  C   UNL     1     -12.012   3.123 -35.234  1.00  0.00     0.001 A 
HETATM   23  H   UNL     1     -11.824  -0.980 -32.650  1.00  0.00     0.165 HD
HETATM   24  C   UNL     1      -9.917  -0.062 -32.626  1.00  0.00     0.100 A 
ENDBRANCH   9  15
TORSDOF 2
ENDMDL
MODEL 8
REMARK VINA RESULT:      -7.8      2.535      6.276
REMARK  2 active torsions:
REMARK  status: ('A' for Active; 'I' for Inactive)
REMARK    1  A    between atoms: C_9  and  O_10 
REMARK    2  A    between atoms: C_9  and  C_11 
ROOT
HETATM    1  C   UNL     1     -12.856  -0.415 -33.679  1.00  0.00     0.048 C 
HETATM    2  C   UNL     1     -11.761   0.602 -33.527  1.00  0.00    -0.061 A 
HETATM    3  C   UNL     1     -10.516   0.234 -32.996  1.00  0.00     0.020 A 
HETATM    4  C   UNL     1      -9.523   1.200 -32.895  1.00  0.00     0.018 A 
HETATM    5  C   UNL     1      -9.777   2.512 -33.297  1.00  0.00     0.045 A 
HETATM    6  N   UNL     1      -8.662   3.309 -33.091  1.00  0.00    -0.323 N 
HETATM    7  C   UNL     1      -7.604   2.577 -32.547  1.00  0.00     0.266 A 
HETATM    8  O   UNL     1      -6.519   3.057 -32.255  1.00  0.00    -0.269 OA
HETATM    9  C   UNL     1      -8.111   1.096 -32.354  1.00  0.00     0.198 A 
HETATM   10  C   UNL     1     -10.992   2.909 -33.813  1.00  0.00     0.031 A 
HETATM   11  C   UNL     1     -11.990   1.938 -33.928  1.00  0.00     0.009 A 
HETATM   12  H   UNL     1      -8.587   4.292 -33.302  1.00  0.00     0.169 HD
ENDROOT
BRANCH   9  13
HETATM   13  O   UNL     1      -8.144   0.729 -30.983  1.00  0.00    -0.371 OA
HETATM   14  H   UNL     1      -8.542  -0.155 -30.944  1.00  0.00     0.212 HD
ENDBRANCH   9  13
BRANCH   9  15
HETATM   15  C   UNL     1      -7.393   0.109 -33.242  1.00  0.00     0.018 A 
HETATM   16  C   UNL     1      -6.154  -0.573 -32.961  1.00  0.00     0.002 A 
HETATM   17  C   UNL     1      -5.868  -1.404 -34.046  1.00  0.00     0.043 A 
HETATM   18  C   UNL     1      -5.246  -0.566 -31.879  1.00  0.00     0.014 A 
HETATM   19  C   UNL     1      -4.730  -2.219 -34.104  1.00  0.00     0.030 A 
HETATM   20  N   UNL     1      -6.880  -1.239 -34.958  1.00  0.00    -0.365 N 
HETATM   21  C   UNL     1      -3.851  -2.188 -33.018  1.00  0.00     0.002 A 
HETATM   22  C   UNL     1      -4.103  -1.374 -31.919  1.00  0.00     0.001 A 
HETATM   23  H   UNL     1      -6.930  -1.716 -35.848  1.00  0.00     0.165 HD
HETATM   24  C   UNL     1      -7.801  -0.345 -34.489  1.00  0.00     0.100 A 
ENDBRANCH   9  15
TORSDOF 2
ENDMDL
MODEL 9
REMARK VINA RESULT:      -7.7      3.427      5.542
REMARK  2 active torsions:
REMARK  status: ('A' for Active; 'I' for Inactive)
REMARK    1  A    between atoms: C_9  and  O_10 
REMARK    2  A    between atoms: C_9  and  C_11 
ROOT
HETATM    1  C   UNL     1      -3.746   5.338 -35.147  1.00  0.00     0.048 C 
HETATM    2  C   UNL     1      -3.881   4.519 -33.895  1.00  0.00    -0.061 A 
HETATM    3  C   UNL     1      -5.108   3.925 -33.561  1.00  0.00     0.020 A 
HETATM    4  C   UNL     1      -5.183   3.156 -32.407  1.00  0.00     0.018 A 
HETATM    5  C   UNL     1      -4.061   3.001 -31.592  1.00  0.00     0.045 A 
HETATM    6  N   UNL     1      -4.364   2.216 -30.490  1.00  0.00    -0.323 N 
HETATM    7  C   UNL     1      -5.697   1.802 -30.509  1.00  0.00     0.266 A 
HETATM    8  O   UNL     1      -6.213   1.118 -29.637  1.00  0.00    -0.269 OA
HETATM    9  C   UNL     1      -6.361   2.421 -31.799  1.00  0.00     0.198 A 
HETATM   10  C   UNL     1      -2.845   3.578 -31.886  1.00  0.00     0.031 A 
HETATM   11  C   UNL     1      -2.761   4.343 -33.052  1.00  0.00     0.009 A 
HETATM   12  H   UNL     1      -3.726   1.954 -29.754  1.00  0.00     0.169 HD
ENDROOT
BRANCH   9  13
HETATM   13  O   UNL     1      -7.388   3.344 -31.466  1.00  0.00    -0.371 OA
HETATM   14  H   UNL     1      -7.039   3.897 -30.748  1.00  0.00     0.212 HD
ENDBRANCH   9  13
BRANCH   9  15
HETATM   15  C   UNL     1      -6.772   1.376 -32.808  1.00  0.00     0.018 A 
HETATM   16  C   UNL     1      -6.038   0.193 -33.183  1.00  0.00     0.002 A 
HETATM   17  C   UNL     1      -6.796  -0.496 -34.133  1.00  0.00     0.043 A 
HETATM   18  C   UNL     1      -4.798  -0.363 -32.800  1.00  0.00     0.014 A 
HETATM   19  C   UNL     1      -6.378  -1.700 -34.714  1.00  0.00     0.030 A 
HETATM   20  N   UNL     1      -7.941   0.231 -34.340  1.00  0.00    -0.365 N 
HETATM   21  C   UNL     1      -5.146  -2.223 -34.315  1.00  0.00     0.002 A 
HETATM   22  C   UNL     1      -4.364  -1.566 -33.370  1.00  0.00     0.001 A 
HETATM   23  H   UNL     1      -8.674  -0.029 -34.985  1.00  0.00     0.165 HD
HETATM   24  C   UNL     1      -7.945   1.347 -33.550  1.00  0.00     0.100 A 
ENDBRANCH   9  15
TORSDOF 2
ENDMDL
MODEL 10
REMARK VINA RESULT:      -7.6      1.928      5.617
REMARK  2 active torsions:
REMARK  status: ('A' for Active; 'I' for Inactive)
REMARK    1  A    between atoms: C_9  and  O_10 
REMARK    2  A    between atoms: C_9  and  C_11 
ROOT
HETATM    1  C   UNL     1     -11.044   0.208 -33.202  1.00  0.00     0.048 C 
HETATM    2  C   UNL     1      -9.688   0.851 -33.235  1.00  0.00    -0.061 A 
HETATM    3  C   UNL     1      -8.555   0.147 -32.801  1.00  0.00     0.020 A 
HETATM    4  C   UNL     1      -7.316   0.770 -32.870  1.00  0.00     0.018 A 
HETATM    5  C   UNL     1      -7.214   2.079 -33.344  1.00  0.00     0.045 A 
HETATM    6  N   UNL     1      -5.896   2.508 -33.309  1.00  0.00    -0.323 N 
HETATM    7  C   UNL     1      -5.048   1.515 -32.816  1.00  0.00     0.266 A 
HETATM    8  O   UNL     1      -3.843   1.656 -32.668  1.00  0.00    -0.269 OA
HETATM    9  C   UNL     1      -5.945   0.267 -32.463  1.00  0.00     0.198 A 
HETATM   10  C   UNL     1      -8.307   2.802 -33.768  1.00  0.00     0.031 A 
HETATM   11  C   UNL     1      -9.555   2.175 -33.712  1.00  0.00     0.009 A 
HETATM   12  H   UNL     1      -5.559   3.413 -33.600  1.00  0.00     0.169 HD
ENDROOT
BRANCH   9  13
HETATM   13  O   UNL     1      -5.926  -0.013 -31.071  1.00  0.00    -0.371 OA
HETATM   14  H   UNL     1      -6.529   0.623 -30.654  1.00  0.00     0.212 HD
ENDBRANCH   9  13
BRANCH   9  15
HETATM   15  C   UNL     1      -5.659  -0.929 -33.339  1.00  0.00     0.018 A 
HETATM   16  C   UNL     1      -4.738  -2.005 -33.069  1.00  0.00     0.002 A 
HETATM   17  C   UNL     1      -4.806  -2.904 -34.136  1.00  0.00     0.043 A 
HETATM   18  C   UNL     1      -3.852  -2.305 -32.011  1.00  0.00     0.014 A 
HETATM   19  C   UNL     1      -4.038  -4.074 -34.198  1.00  0.00     0.030 A 
HETATM   20  N   UNL     1      -5.722  -2.403 -35.027  1.00  0.00    -0.365 N 
HETATM   21  C   UNL     1      -3.171  -4.341 -33.136  1.00  0.00     0.002 A 
HETATM   22  C   UNL     1      -3.077  -3.470 -32.056  1.00  0.00     0.001 A 
HETATM   23  H   UNL     1      -5.970  -2.846 -35.901  1.00  0.00     0.165 HD
HETATM   24  C   UNL     1      -6.245  -1.229 -34.562  1.00  0.00     0.100 A 
ENDBRANCH   9  15
TORSDOF 2
ENDMDL
