MODEL 1
REMARK VINA RESULT:      -8.2      0.000      0.000
REMARK  6 active torsions:
REMARK  status: ('A' for Active; 'I' for Inactive)
REMARK    1  A    between atoms: C_2  and  O_3 
REMARK    2  A    between atoms: O_3  and  C_4 
REMARK    3  A    between atoms: C_8  and  C_9 
REMARK    4  A    between atoms: C_9  and  N_10 
REMARK       I    between atoms: N_10  and  C_11 
REMARK       I    between atoms: C_11  and  N_12 
REMARK    5  A    between atoms: N_12  and  C_13 
REMARK    6  A    between atoms: C_14  and  C_15 
ROOT
HETATM    1  N   UNL     1      -5.933   3.779 -34.295  1.00  0.00    -0.339 N 
HETATM    2  C   UNL     1      -6.914   3.166 -33.558  1.00  0.00     0.316 C 
HETATM    3  N   UNL     1      -7.166   1.890 -34.011  1.00  0.00    -0.338 N 
HETATM    4  O   UNL     1      -7.493   3.689 -32.615  1.00  0.00    -0.247 OA
HETATM    5  H   UNL     1      -5.261   3.171 -34.737  1.00  0.00     0.164 HD
HETATM    6  H   UNL     1      -7.018   1.759 -35.004  1.00  0.00     0.164 HD
ENDROOT
BRANCH   1   7
HETATM    7  C   UNL     1      -5.507   5.129 -33.998  1.00  0.00     0.163 C 
BRANCH   7   8
HETATM    8  C   UNL     1      -4.011   5.254 -33.887  1.00  0.00    -0.035 A 
HETATM    9  C   UNL     1      -3.196   5.216 -35.022  1.00  0.00     0.028 A 
HETATM   10  C   UNL     1      -1.823   5.296 -34.860  1.00  0.00     0.120 A 
HETATM   11  N   UNL     1      -1.211   5.395 -33.662  1.00  0.00    -0.237 NA
HETATM   12  C   UNL     1      -2.004   5.415 -32.578  1.00  0.00     0.165 A 
HETATM   13  C   UNL     1      -3.391   5.372 -32.638  1.00  0.00     0.066 A 
BRANCH  12  14
HETATM   14  O   UNL     1      -1.460   5.521 -31.318  1.00  0.00    -0.324 OA
BRANCH  14  15
HETATM   15  C   UNL     1      -0.923   6.787 -30.889  1.00  0.00     0.058 C 
HETATM   16  C   UNL     1      -1.610   7.982 -31.566  1.00  0.00     0.045 C 
HETATM   17  C   UNL     1       0.608   6.857 -31.006  1.00  0.00     0.045 C 
HETATM   18  C   UNL     1      -1.273   6.842 -29.388  1.00  0.00     0.045 C 
ENDBRANCH  14  15
ENDBRANCH  12  14
ENDBRANCH   7   8
ENDBRANCH   1   7
BRANCH   3  19
HETATM   19  C   UNL     1      -8.175   1.077 -33.395  1.00  0.00     0.095 A 
HETATM   20  C   UNL     1      -8.029  -0.414 -33.179  1.00  0.00     0.043 A 
HETATM   21  C   UNL     1      -7.972   0.541 -32.009  1.00  0.00     0.037 A 
BRANCH  20  22
HETATM   22  C   UNL     1      -6.791  -1.182 -33.580  1.00  0.00    -0.052 A 
HETATM   23  C   UNL     1      -5.587  -1.045 -32.868  1.00  0.00     0.007 A 
HETATM   24  C   UNL     1      -4.448  -1.779 -33.208  1.00  0.00     0.001 A 
HETATM   25  C   UNL     1      -4.490  -2.674 -34.273  1.00  0.00     0.000 A 
HETATM   26  C   UNL     1      -5.672  -2.839 -34.988  1.00  0.00     0.001 A 
HETATM   27  C   UNL     1      -6.810  -2.107 -34.638  1.00  0.00     0.007 A 
ENDBRANCH  20  22
ENDBRANCH   3  19
TORSDOF 6
ENDMDL
MODEL 2
REMARK VINA RESULT:      -7.9      2.511      9.335
REMARK  6 active torsions:
REMARK  status: ('A' for Active; 'I' for Inactive)
REMARK    1  A    between atoms: C_2  and  O_3 
REMARK    2  A    between atoms: O_3  and  C_4 
REMARK    3  A    between atoms: C_8  and  C_9 
REMARK    4  A    between atoms: C_9  and  N_10 
REMARK       I    between atoms: N_10  and  C_11 
REMARK       I    between atoms: C_11  and  N_12 
REMARK    5  A    between atoms: N_12  and  C_13 
REMARK    6  A    between atoms: C_14  and  C_15 
ROOT
HETATM    1  N   UNL     1      -3.909   4.495 -30.776  1.00  0.00    -0.339 N 
HETATM    2  C   UNL     1      -2.832   4.897 -31.524  1.00  0.00     0.316 C 
HETATM    3  N   UNL     1      -1.758   5.228 -30.727  1.00  0.00    -0.338 N 
HETATM    4  O   UNL     1      -2.828   4.957 -32.746  1.00  0.00    -0.247 OA
HETATM    5  H   UNL     1      -3.702   4.092 -29.875  1.00  0.00     0.164 HD
HETATM    6  H   UNL     1      -2.005   5.598 -29.819  1.00  0.00     0.164 HD
ENDROOT
BRANCH   1   7
HETATM    7  C   UNL     1      -5.152   4.104 -31.404  1.00  0.00     0.163 C 
BRANCH   7   8
HETATM    8  C   UNL     1      -5.415   2.626 -31.299  1.00  0.00    -0.035 A 
HETATM    9  C   UNL     1      -5.587   2.009 -30.057  1.00  0.00     0.028 A 
HETATM   10  C   UNL     1      -5.787   0.639 -30.014  1.00  0.00     0.120 A 
HETATM   11  N   UNL     1      -5.814  -0.152 -31.107  1.00  0.00    -0.237 NA
HETATM   12  C   UNL     1      -5.632   0.451 -32.294  1.00  0.00     0.165 A 
HETATM   13  C   UNL     1      -5.455   1.820 -32.442  1.00  0.00     0.066 A 
BRANCH  12  14
HETATM   14  O   UNL     1      -5.651  -0.283 -33.459  1.00  0.00    -0.324 OA
BRANCH  14  15
HETATM   15  C   UNL     1      -6.901  -0.476 -34.146  1.00  0.00     0.058 C 
HETATM   16  C   UNL     1      -7.026   0.393 -35.406  1.00  0.00     0.045 C 
HETATM   17  C   UNL     1      -8.120  -0.334 -33.221  1.00  0.00     0.045 C 
HETATM   18  C   UNL     1      -6.840  -1.948 -34.605  1.00  0.00     0.045 C 
ENDBRANCH  14  15
ENDBRANCH  12  14
ENDBRANCH   7   8
ENDBRANCH   1   7
BRANCH   3  19
HETATM   19  C   UNL     1      -0.531   5.698 -31.306  1.00  0.00     0.095 A 
HETATM   20  C   UNL     1       0.417   6.644 -30.598  1.00  0.00     0.043 A 
HETATM   21  C   UNL     1       0.787   5.192 -30.798  1.00  0.00     0.037 A 
BRANCH  20  22
HETATM   22  C   UNL     1       0.161   7.167 -29.204  1.00  0.00    -0.052 A 
HETATM   23  C   UNL     1       0.783   6.588 -28.084  1.00  0.00     0.007 A 
HETATM   24  C   UNL     1       0.583   7.089 -26.795  1.00  0.00     0.001 A 
HETATM   25  C   UNL     1      -0.247   8.189 -26.598  1.00  0.00     0.000 A 
HETATM   26  C   UNL     1      -0.865   8.791 -27.690  1.00  0.00     0.001 A 
HETATM   27  C   UNL     1      -0.654   8.289 -28.977  1.00  0.00     0.007 A 
ENDBRANCH  20  22
ENDBRANCH   3  19
TORSDOF 6
ENDMDL
MODEL 3
REMARK VINA RESULT:      -7.6      2.054      3.108
REMARK  6 active torsions:
REMARK  status: ('A' for Active; 'I' for Inactive)
REMARK    1  A    between atoms: C_2  and  O_3 
REMARK    2  A    between atoms: O_3  and  C_4 
REMARK    3  A    between atoms: C_8  and  C_9 
REMARK    4  A    between atoms: C_9  and  N_10 
REMARK       I    between atoms: N_10  and  C_11 
REMARK       I    between atoms: C_11  and  N_12 
REMARK    5  A    between atoms: N_12  and  C_13 
REMARK    6  A    between atoms: C_14  and  C_15 
ROOT
HETATM    1  N   UNL     1      -3.522   3.418 -32.722  1.00  0.00    -0.339 N 
HETATM    2  C   UNL     1      -3.811   2.422 -31.823  1.00  0.00     0.316 C 
HETATM    3  N   UNL     1      -3.451   1.183 -32.306  1.00  0.00    -0.338 N 
HETATM    4  O   UNL     1      -4.327   2.613 -30.730  1.00  0.00    -0.247 OA
HETATM    5  H   UNL     1      -2.763   3.235 -33.360  1.00  0.00     0.164 HD
HETATM    6  H   UNL     1      -3.505   1.091 -33.312  1.00  0.00     0.164 HD
ENDROOT
BRANCH   1   7
HETATM    7  C   UNL     1      -3.819   4.802 -32.427  1.00  0.00     0.163 C 
BRANCH   7   8
HETATM    8  C   UNL     1      -2.582   5.618 -32.166  1.00  0.00    -0.035 A 
HETATM    9  C   UNL     1      -2.073   6.490 -33.133  1.00  0.00     0.028 A 
HETATM   10  C   UNL     1      -0.910   7.188 -32.857  1.00  0.00     0.120 A 
HETATM   11  N   UNL     1      -0.217   7.070 -31.705  1.00  0.00    -0.237 NA
HETATM   12  C   UNL     1      -0.707   6.217 -30.790  1.00  0.00     0.165 A 
HETATM   13  C   UNL     1      -1.882   5.496 -30.961  1.00  0.00     0.066 A 
BRANCH  12  14
HETATM   14  O   UNL     1      -0.065   6.042 -29.585  1.00  0.00    -0.324 OA
BRANCH  14  15
HETATM   15  C   UNL     1      -0.200   7.050 -28.564  1.00  0.00     0.058 C 
HETATM   16  C   UNL     1      -1.524   7.820 -28.664  1.00  0.00     0.045 C 
HETATM   17  C   UNL     1       1.013   7.991 -28.489  1.00  0.00     0.045 C 
HETATM   18  C   UNL     1      -0.236   6.238 -27.254  1.00  0.00     0.045 C 
ENDBRANCH  14  15
ENDBRANCH  12  14
ENDBRANCH   7   8
ENDBRANCH   1   7
BRANCH   3  19
HETATM   19  C   UNL     1      -3.688  -0.004 -31.534  1.00  0.00     0.095 A 
HETATM   20  C   UNL     1      -4.897  -0.895 -31.724  1.00  0.00     0.043 A 
HETATM   21  C   UNL     1      -3.525  -1.357 -32.160  1.00  0.00     0.037 A 
BRANCH  20  22
HETATM   22  C   UNL     1      -5.961  -0.621 -32.761  1.00  0.00    -0.052 A 
HETATM   23  C   UNL     1      -7.106   0.130 -32.446  1.00  0.00     0.007 A 
HETATM   24  C   UNL     1      -8.078   0.421 -33.407  1.00  0.00     0.001 A 
HETATM   25  C   UNL     1      -7.921  -0.034 -34.713  1.00  0.00     0.000 A 
HETATM   26  C   UNL     1      -6.790  -0.768 -35.056  1.00  0.00     0.001 A 
HETATM   27  C   UNL     1      -5.819  -1.049 -34.091  1.00  0.00     0.007 A 
ENDBRANCH  20  22
ENDBRANCH   3  19
TORSDOF 6
ENDMDL
MODEL 4
REMARK VINA RESULT:      -7.6      2.098      8.610
REMARK  6 active torsions:
REMARK  status: ('A' for Active; 'I' for Inactive)
REMARK    1  A    between atoms: C_2  and  O_3 
REMARK    2  A    between atoms: O_3  and  C_4 
REMARK    3  A    between atoms: C_8  and  C_9 
REMARK    4  A    between atoms: C_9  and  N_10 
REMARK       I    between atoms: N_10  and  C_11 
REMARK       I    between atoms: C_11  and  N_12 
REMARK    5  A    between atoms: N_12  and  C_13 
REMARK    6  A    between atoms: C_14  and  C_15 
ROOT
HETATM    1  N   UNL     1      -4.074   3.568 -31.301  1.00  0.00    -0.339 N 
HETATM    2  C   UNL     1      -4.032   4.695 -32.081  1.00  0.00     0.316 C 
HETATM    3  N   UNL     1      -2.914   4.713 -32.886  1.00  0.00    -0.338 N 
HETATM    4  O   UNL     1      -4.883   5.575 -32.063  1.00  0.00    -0.247 OA
HETATM    5  H   UNL     1      -3.601   2.755 -31.665  1.00  0.00     0.164 HD
HETATM    6  H   UNL     1      -2.105   4.248 -32.494  1.00  0.00     0.164 HD
ENDROOT
BRANCH   1   7
HETATM    7  C   UNL     1      -5.160   3.339 -30.373  1.00  0.00     0.163 C 
BRANCH   7   8
HETATM    8  C   UNL     1      -6.212   2.418 -30.928  1.00  0.00    -0.035 A 
HETATM    9  C   UNL     1      -7.565   2.772 -30.911  1.00  0.00     0.028 A 
HETATM   10  C   UNL     1      -8.496   1.871 -31.398  1.00  0.00     0.120 A 
HETATM   11  N   UNL     1      -8.183   0.651 -31.881  1.00  0.00    -0.237 NA
HETATM   12  C   UNL     1      -6.881   0.316 -31.877  1.00  0.00     0.165 A 
HETATM   13  C   UNL     1      -5.871   1.162 -31.440  1.00  0.00     0.066 A 
BRANCH  12  14
HETATM   14  O   UNL     1      -6.475  -0.908 -32.360  1.00  0.00    -0.324 OA
BRANCH  14  15
HETATM   15  C   UNL     1      -6.048  -1.016 -33.731  1.00  0.00     0.058 C 
HETATM   16  C   UNL     1      -4.550  -1.328 -33.862  1.00  0.00     0.045 C 
HETATM   17  C   UNL     1      -6.465   0.192 -34.584  1.00  0.00     0.045 C 
HETATM   18  C   UNL     1      -6.822  -2.242 -34.257  1.00  0.00     0.045 C 
ENDBRANCH  14  15
ENDBRANCH  12  14
ENDBRANCH   7   8
ENDBRANCH   1   7
BRANCH   3  19
HETATM   19  C   UNL     1      -2.661   5.818 -33.768  1.00  0.00     0.095 A 
HETATM   20  C   UNL     1      -1.879   7.049 -33.360  1.00  0.00     0.043 A 
HETATM   21  C   UNL     1      -1.284   6.043 -34.319  1.00  0.00     0.037 A 
BRANCH  20  22
HETATM   22  C   UNL     1      -1.279   7.219 -31.984  1.00  0.00    -0.052 A 
HETATM   23  C   UNL     1      -0.005   6.710 -31.679  1.00  0.00     0.007 A 
HETATM   24  C   UNL     1       0.575   6.895 -30.422  1.00  0.00     0.001 A 
HETATM   25  C   UNL     1      -0.111   7.601 -29.437  1.00  0.00     0.000 A 
HETATM   26  C   UNL     1      -1.368   8.126 -29.715  1.00  0.00     0.001 A 
HETATM   27  C   UNL     1      -1.939   7.943 -30.978  1.00  0.00     0.007 A 
ENDBRANCH  20  22
ENDBRANCH   3  19
TORSDOF 6
ENDMDL
MODEL 5
REMARK VINA RESULT:      -7.4      2.248      3.313
REMARK  6 active torsions:
REMARK  status: ('A' for Active; 'I' for Inactive)
REMARK    1  A    between atoms: C_2  and  O_3 
REMARK    2  A    between atoms: O_3  and  C_4 
REMARK    3  A    between atoms: C_8  and  C_9 
REMARK    4  A    between atoms: C_9  and  N_10 
REMARK       I    between atoms: N_10  and  C_11 
REMARK       I    between atoms: C_11  and  N_12 
REMARK    5  A    between atoms: N_12  and  C_13 
REMARK    6  A    between atoms: C_14  and  C_15 
ROOT
HETATM    1  N   UNL     1      -4.148   3.665 -32.463  1.00  0.00    -0.339 N 
HETATM    2  C   UNL     1      -4.178   2.618 -31.577  1.00  0.00     0.316 C 
HETATM    3  N   UNL     1      -3.352   1.591 -31.978  1.00  0.00    -0.338 N 
HETATM    4  O   UNL     1      -4.857   2.599 -30.559  1.00  0.00    -0.247 OA
HETATM    5  H   UNL     1      -3.301   3.769 -33.001  1.00  0.00     0.164 HD
HETATM    6  H   UNL     1      -3.248   1.500 -32.981  1.00  0.00     0.164 HD
ENDROOT
BRANCH   1   7
HETATM    7  C   UNL     1      -4.943   4.853 -32.245  1.00  0.00     0.163 C 
BRANCH   7   8
HETATM    8  C   UNL     1      -4.162   5.962 -31.594  1.00  0.00    -0.035 A 
HETATM    9  C   UNL     1      -4.444   7.304 -31.870  1.00  0.00     0.028 A 
HETATM   10  C   UNL     1      -3.670   8.285 -31.275  1.00  0.00     0.120 A 
HETATM   11  N   UNL     1      -2.637   8.028 -30.445  1.00  0.00    -0.237 NA
HETATM   12  C   UNL     1      -2.365   6.735 -30.201  1.00  0.00     0.165 A 
HETATM   13  C   UNL     1      -3.103   5.682 -30.724  1.00  0.00     0.066 A 
BRANCH  12  14
HETATM   14  O   UNL     1      -1.332   6.387 -29.360  1.00  0.00    -0.324 OA
BRANCH  14  15
HETATM   15  C   UNL     1       0.026   6.558 -29.808  1.00  0.00     0.058 C 
HETATM   16  C   UNL     1       0.770   7.658 -29.037  1.00  0.00     0.045 C 
HETATM   17  C   UNL     1       0.135   6.743 -31.330  1.00  0.00     0.045 C 
HETATM   18  C   UNL     1       0.697   5.214 -29.458  1.00  0.00     0.045 C 
ENDBRANCH  14  15
ENDBRANCH  12  14
ENDBRANCH   7   8
ENDBRANCH   1   7
BRANCH   3  19
HETATM   19  C   UNL     1      -3.252   0.385 -31.206  1.00  0.00     0.095 A 
HETATM   20  C   UNL     1      -4.129  -0.828 -31.434  1.00  0.00     0.043 A 
HETATM   21  C   UNL     1      -2.667  -0.855 -31.815  1.00  0.00     0.037 A 
BRANCH  20  22
HETATM   22  C   UNL     1      -5.187  -0.882 -32.512  1.00  0.00    -0.052 A 
HETATM   23  C   UNL     1      -4.947  -1.535 -33.733  1.00  0.00     0.007 A 
HETATM   24  C   UNL     1      -5.931  -1.623 -34.721  1.00  0.00     0.001 A 
HETATM   25  C   UNL     1      -7.186  -1.060 -34.505  1.00  0.00     0.000 A 
HETATM   26  C   UNL     1      -7.455  -0.419 -33.300  1.00  0.00     0.001 A 
HETATM   27  C   UNL     1      -6.468  -0.340 -32.313  1.00  0.00     0.007 A 
ENDBRANCH  20  22
ENDBRANCH   3  19
TORSDOF 6
ENDMDL
MODEL 6
REMARK VINA RESULT:      -7.3      2.600      9.282
REMARK  6 active torsions:
REMARK  status: ('A' for Active; 'I' for Inactive)
REMARK    1  A    between atoms: C_2  and  O_3 
REMARK    2  A    between atoms: O_3  and  C_4 
REMARK    3  A    between atoms: C_8  and  C_9 
REMARK    4  A    between atoms: C_9  and  N_10 
REMARK       I    between atoms: N_10  and  C_11 
REMARK       I    between atoms: C_11  and  N_12 
REMARK    5  A    between atoms: N_12  and  C_13 
REMARK    6  A    between atoms: C_14  and  C_15 
ROOT
HETATM    1  N   UNL     1      -3.716   3.920 -30.904  1.00  0.00    -0.339 N 
HETATM    2  C   UNL     1      -2.747   4.593 -31.605  1.00  0.00     0.316 C 
HETATM    3  N   UNL     1      -1.549   4.609 -30.926  1.00  0.00    -0.338 N 
HETATM    4  O   UNL     1      -2.928   5.115 -32.697  1.00  0.00    -0.247 OA
HETATM    5  H   UNL     1      -3.392   3.207 -30.269  1.00  0.00     0.164 HD
HETATM    6  H   UNL     1      -1.636   4.601 -29.918  1.00  0.00     0.164 HD
ENDROOT
BRANCH   1   7
HETATM    7  C   UNL     1      -5.057   3.781 -31.425  1.00  0.00     0.163 C 
BRANCH   7   8
HETATM    8  C   UNL     1      -5.480   2.343 -31.563  1.00  0.00    -0.035 A 
HETATM    9  C   UNL     1      -4.541   1.331 -31.776  1.00  0.00     0.028 A 
HETATM   10  C   UNL     1      -4.986   0.029 -31.935  1.00  0.00     0.120 A 
HETATM   11  N   UNL     1      -6.287  -0.329 -31.911  1.00  0.00    -0.237 NA
HETATM   12  C   UNL     1      -7.182   0.656 -31.720  1.00  0.00     0.165 A 
HETATM   13  C   UNL     1      -6.832   1.985 -31.520  1.00  0.00     0.066 A 
BRANCH  12  14
HETATM   14  O   UNL     1      -8.529   0.375 -31.676  1.00  0.00    -0.324 OA
BRANCH  14  15
HETATM   15  C   UNL     1      -9.325   0.561 -32.861  1.00  0.00     0.058 C 
HETATM   16  C   UNL     1      -8.541   0.279 -34.151  1.00  0.00     0.045 C 
HETATM   17  C   UNL     1     -10.031   1.926 -32.899  1.00  0.00     0.045 C 
HETATM   18  C   UNL     1     -10.418  -0.520 -32.739  1.00  0.00     0.045 C 
ENDBRANCH  14  15
ENDBRANCH  12  14
ENDBRANCH   7   8
ENDBRANCH   1   7
BRANCH   3  19
HETATM   19  C   UNL     1      -0.404   5.282 -31.471  1.00  0.00     0.095 A 
HETATM   20  C   UNL     1       0.363   6.356 -30.730  1.00  0.00     0.043 A 
HETATM   21  C   UNL     1       0.968   4.988 -30.941  1.00  0.00     0.037 A 
BRANCH  20  22
HETATM   22  C   UNL     1      -0.001   6.808 -29.334  1.00  0.00    -0.052 A 
HETATM   23  C   UNL     1      -0.804   7.941 -29.123  1.00  0.00     0.007 A 
HETATM   24  C   UNL     1      -1.178   8.345 -27.839  1.00  0.00     0.001 A 
HETATM   25  C   UNL     1      -0.756   7.615 -26.731  1.00  0.00     0.000 A 
HETATM   26  C   UNL     1       0.029   6.480 -26.911  1.00  0.00     0.001 A 
HETATM   27  C   UNL     1       0.393   6.079 -28.200  1.00  0.00     0.007 A 
ENDBRANCH  20  22
ENDBRANCH   3  19
TORSDOF 6
ENDMDL
MODEL 7
REMARK VINA RESULT:      -7.2      4.986      7.336
REMARK  6 active torsions:
REMARK  status: ('A' for Active; 'I' for Inactive)
REMARK    1  A    between atoms: C_2  and  O_3 
REMARK    2  A    between atoms: O_3  and  C_4 
REMARK    3  A    between atoms: C_8  and  C_9 
REMARK    4  A    between atoms: C_9  and  N_10 
REMARK       I    between atoms: N_10  and  C_11 
REMARK       I    between atoms: C_11  and  N_12 
REMARK    5  A    between atoms: N_12  and  C_13 
REMARK    6  A    between atoms: C_14  and  C_15 
ROOT
HETATM    1  N   UNL     1      -7.353   0.607 -31.297  1.00  0.00    -0.339 N 
HETATM    2  C   UNL     1      -5.997   0.665 -31.499  1.00  0.00     0.316 C 
HETATM    3  N   UNL     1      -5.443  -0.594 -31.583  1.00  0.00    -0.338 N 
HETATM    4  O   UNL     1      -5.360   1.706 -31.591  1.00  0.00    -0.247 OA
HETATM    5  H   UNL     1      -7.820  -0.217 -31.642  1.00  0.00     0.164 HD
HETATM    6  H   UNL     1      -5.920  -1.301 -31.038  1.00  0.00     0.164 HD
ENDROOT
BRANCH   1   7
HETATM    7  C   UNL     1      -8.143   1.812 -31.174  1.00  0.00     0.163 C 
BRANCH   7   8
HETATM    8  C   UNL     1      -9.375   1.788 -32.038  1.00  0.00    -0.035 A 
HETATM    9  C   UNL     1      -9.772   0.622 -32.700  1.00  0.00     0.028 A 
HETATM   10  C   UNL     1     -10.891   0.666 -33.514  1.00  0.00     0.120 A 
HETATM   11  N   UNL     1     -11.626   1.778 -33.726  1.00  0.00    -0.237 NA
HETATM   12  C   UNL     1     -11.224   2.895 -33.097  1.00  0.00     0.165 A 
HETATM   13  C   UNL     1     -10.136   2.946 -32.237  1.00  0.00     0.066 A 
BRANCH  12  14
HETATM   14  O   UNL     1     -11.922   4.072 -33.253  1.00  0.00    -0.324 OA
BRANCH  14  15
HETATM   15  C   UNL     1     -11.560   4.966 -34.322  1.00  0.00     0.058 C 
HETATM   16  C   UNL     1     -10.376   4.450 -35.151  1.00  0.00     0.045 C 
HETATM   17  C   UNL     1     -11.347   6.412 -33.845  1.00  0.00     0.045 C 
HETATM   18  C   UNL     1     -12.801   4.962 -35.237  1.00  0.00     0.045 C 
ENDBRANCH  14  15
ENDBRANCH  12  14
ENDBRANCH   7   8
ENDBRANCH   1   7
BRANCH   3  19
HETATM   19  C   UNL     1      -4.030  -0.764 -31.769  1.00  0.00     0.095 A 
HETATM   20  C   UNL     1      -3.430  -1.797 -32.699  1.00  0.00     0.043 A 
HETATM   21  C   UNL     1      -3.379  -0.327 -33.048  1.00  0.00     0.037 A 
BRANCH  20  22
HETATM   22  C   UNL     1      -4.271  -2.737 -33.531  1.00  0.00    -0.052 A 
HETATM   23  C   UNL     1      -3.991  -4.113 -33.580  1.00  0.00     0.007 A 
HETATM   24  C   UNL     1      -4.785  -4.996 -34.316  1.00  0.00     0.001 A 
HETATM   25  C   UNL     1      -5.886  -4.517 -35.021  1.00  0.00     0.000 A 
HETATM   26  C   UNL     1      -6.194  -3.161 -34.980  1.00  0.00     0.001 A 
HETATM   27  C   UNL     1      -5.399  -2.285 -34.236  1.00  0.00     0.007 A 
ENDBRANCH  20  22
ENDBRANCH   3  19
TORSDOF 6
ENDMDL
MODEL 8
REMARK VINA RESULT:      -7.2      4.170      7.474
REMARK  6 active torsions:
REMARK  status: ('A' for Active; 'I' for Inactive)
REMARK    1  A    between atoms: C_2  and  O_3 
REMARK    2  A    between atoms: O_3  and  C_4 
REMARK    3  A    between atoms: C_8  and  C_9 
REMARK    4  A    between atoms: C_9  and  N_10 
REMARK       I    between atoms: N_10  and  C_11 
REMARK       I    between atoms: C_11  and  N_12 
REMARK    5  A    between atoms: N_12  and  C_13 
REMARK    6  A    between atoms: C_14  and  C_15 
ROOT
HETATM    1  N   UNL     1      -8.882   2.836 -30.232  1.00  0.00    -0.339 N 
HETATM    2  C   UNL     1      -9.737   3.896 -30.395  1.00  0.00     0.316 C 
HETATM    3  N   UNL     1     -10.988   3.481 -30.797  1.00  0.00    -0.338 N 
HETATM    4  O   UNL     1      -9.426   5.065 -30.207  1.00  0.00    -0.247 OA
HETATM    5  H   UNL     1      -9.307   1.950 -30.004  1.00  0.00     0.164 HD
HETATM    6  H   UNL     1     -10.992   2.640 -31.360  1.00  0.00     0.164 HD
ENDROOT
BRANCH   1   7
HETATM    7  C   UNL     1      -7.512   3.037 -29.817  1.00  0.00     0.163 C 
BRANCH   7   8
HETATM    8  C   UNL     1      -6.522   2.416 -30.765  1.00  0.00    -0.035 A 
HETATM    9  C   UNL     1      -5.329   3.067 -31.093  1.00  0.00     0.028 A 
HETATM   10  C   UNL     1      -4.471   2.470 -32.001  1.00  0.00     0.120 A 
HETATM   11  N   UNL     1      -4.720   1.292 -32.610  1.00  0.00    -0.237 NA
HETATM   12  C   UNL     1      -5.877   0.684 -32.298  1.00  0.00     0.165 A 
HETATM   13  C   UNL     1      -6.786   1.186 -31.377  1.00  0.00     0.066 A 
BRANCH  12  14
HETATM   14  O   UNL     1      -6.205  -0.525 -32.870  1.00  0.00    -0.324 OA
BRANCH  14  15
HETATM   15  C   UNL     1      -7.163  -0.557 -33.945  1.00  0.00     0.058 C 
HETATM   16  C   UNL     1      -6.850   0.464 -35.047  1.00  0.00     0.045 C 
HETATM   17  C   UNL     1      -8.616  -0.454 -33.454  1.00  0.00     0.045 C 
HETATM   18  C   UNL     1      -6.981  -1.963 -34.553  1.00  0.00     0.045 C 
ENDBRANCH  14  15
ENDBRANCH  12  14
ENDBRANCH   7   8
ENDBRANCH   1   7
BRANCH   3  19
HETATM   19  C   UNL     1     -12.033   4.432 -31.049  1.00  0.00     0.095 A 
HETATM   20  C   UNL     1     -13.132   4.215 -32.068  1.00  0.00     0.043 A 
HETATM   21  C   UNL     1     -13.433   4.157 -30.588  1.00  0.00     0.037 A 
BRANCH  20  22
HETATM   22  C   UNL     1     -13.236   2.961 -32.904  1.00  0.00    -0.052 A 
HETATM   23  C   UNL     1     -12.278   2.661 -33.887  1.00  0.00     0.007 A 
HETATM   24  C   UNL     1     -12.344   1.486 -34.640  1.00  0.00     0.001 A 
HETATM   25  C   UNL     1     -13.376   0.577 -34.420  1.00  0.00     0.000 A 
HETATM   26  C   UNL     1     -14.331   0.842 -33.443  1.00  0.00     0.001 A 
HETATM   27  C   UNL     1     -14.254   2.017 -32.690  1.00  0.00     0.007 A 
ENDBRANCH  20  22
ENDBRANCH   3  19
TORSDOF 6
ENDMDL
MODEL 9
REMARK VINA RESULT:      -7.1      2.457      3.556
REMARK  6 active torsions:
REMARK  status: ('A' for Active; 'I' for Inactive)
REMARK    1  A    between atoms: C_2  and  O_3 
REMARK    2  A    between atoms: O_3  and  C_4 
REMARK    3  A    between atoms: C_8  and  C_9 
REMARK    4  A    between atoms: C_9  and  N_10 
REMARK       I    between atoms: N_10  and  C_11 
REMARK       I    between atoms: C_11  and  N_12 
REMARK    5  A    between atoms: N_12  and  C_13 
REMARK    6  A    between atoms: C_14  and  C_15 
ROOT
HETATM    1  N   UNL     1      -8.246   2.806 -30.117  1.00  0.00    -0.339 N 
HETATM    2  C   UNL     1      -8.759   2.941 -31.382  1.00  0.00     0.316 C 
HETATM    3  N   UNL     1      -9.741   2.008 -31.633  1.00  0.00    -0.338 N 
HETATM    4  O   UNL     1      -8.389   3.786 -32.187  1.00  0.00    -0.247 OA
HETATM    5  H   UNL     1      -8.860   2.402 -29.427  1.00  0.00     0.164 HD
HETATM    6  H   UNL     1      -9.621   1.129 -31.146  1.00  0.00     0.164 HD
ENDROOT
BRANCH   1   7
HETATM    7  C   UNL     1      -7.198   3.680 -29.637  1.00  0.00     0.163 C 
BRANCH   7   8
HETATM    8  C   UNL     1      -5.872   3.409 -30.295  1.00  0.00    -0.035 A 
HETATM    9  C   UNL     1      -5.404   2.103 -30.467  1.00  0.00     0.028 A 
HETATM   10  C   UNL     1      -4.159   1.911 -31.042  1.00  0.00     0.120 A 
HETATM   11  N   UNL     1      -3.350   2.915 -31.439  1.00  0.00    -0.237 NA
HETATM   12  C   UNL     1      -3.804   4.166 -31.254  1.00  0.00     0.165 A 
HETATM   13  C   UNL     1      -5.050   4.460 -30.715  1.00  0.00     0.066 A 
BRANCH  12  14
HETATM   14  O   UNL     1      -3.044   5.248 -31.637  1.00  0.00    -0.324 OA
BRANCH  14  15
HETATM   15  C   UNL     1      -2.948   5.578 -33.036  1.00  0.00     0.058 C 
HETATM   16  C   UNL     1      -4.294   5.462 -33.766  1.00  0.00     0.045 C 
HETATM   17  C   UNL     1      -1.830   4.808 -33.756  1.00  0.00     0.045 C 
HETATM   18  C   UNL     1      -2.552   7.069 -33.032  1.00  0.00     0.045 C 
ENDBRANCH  14  15
ENDBRANCH  12  14
ENDBRANCH   7   8
ENDBRANCH   1   7
BRANCH   3  19
HETATM   19  C   UNL     1     -10.397   1.956 -32.909  1.00  0.00     0.095 A 
HETATM   20  C   UNL     1      -9.797   1.289 -34.129  1.00  0.00     0.043 A 
HETATM   21  C   UNL     1     -10.971   0.664 -33.410  1.00  0.00     0.037 A 
BRANCH  20  22
HETATM   22  C   UNL     1      -8.452   0.601 -34.107  1.00  0.00    -0.052 A 
HETATM   23  C   UNL     1      -7.265   1.318 -34.335  1.00  0.00     0.007 A 
HETATM   24  C   UNL     1      -6.014   0.699 -34.280  1.00  0.00     0.001 A 
HETATM   25  C   UNL     1      -5.923  -0.660 -33.990  1.00  0.00     0.000 A 
HETATM   26  C   UNL     1      -7.081  -1.392 -33.748  1.00  0.00     0.001 A 
HETATM   27  C   UNL     1      -8.329  -0.764 -33.798  1.00  0.00     0.007 A 
ENDBRANCH  20  22
ENDBRANCH   3  19
TORSDOF 6
ENDMDL
MODEL 10
REMARK VINA RESULT:      -7.1      2.703      9.574
REMARK  6 active torsions:
REMARK  status: ('A' for Active; 'I' for Inactive)
REMARK    1  A    between atoms: C_2  and  O_3 
REMARK    2  A    between atoms: O_3  and  C_4 
REMARK    3  A    between atoms: C_8  and  C_9 
REMARK    4  A    between atoms: C_9  and  N_10 
REMARK       I    between atoms: N_10  and  C_11 
REMARK       I    between atoms: C_11  and  N_12 
REMARK    5  A    between atoms: N_12  and  C_13 
REMARK    6  A    between atoms: C_14  and  C_15 
ROOT
HETATM    1  N   UNL     1      -2.750   4.315 -31.084  1.00  0.00    -0.339 N 
HETATM    2  C   UNL     1      -1.534   4.951 -31.060  1.00  0.00     0.316 C 
HETATM    3  N   UNL     1      -1.462   5.868 -30.035  1.00  0.00    -0.338 N 
HETATM    4  O   UNL     1      -0.628   4.730 -31.852  1.00  0.00    -0.247 OA
HETATM    5  H   UNL     1      -3.237   4.250 -30.203  1.00  0.00     0.164 HD
HETATM    6  H   UNL     1      -2.346   6.296 -29.789  1.00  0.00     0.164 HD
ENDROOT
BRANCH   1   7
HETATM    7  C   UNL     1      -3.051   3.312 -32.081  1.00  0.00     0.163 C 
BRANCH   7   8
HETATM    8  C   UNL     1      -4.327   2.569 -31.790  1.00  0.00    -0.035 A 
HETATM    9  C   UNL     1      -5.193   2.990 -30.777  1.00  0.00     0.028 A 
HETATM   10  C   UNL     1      -6.334   2.248 -30.525  1.00  0.00     0.120 A 
HETATM   11  N   UNL     1      -6.663   1.121 -31.191  1.00  0.00    -0.237 NA
HETATM   12  C   UNL     1      -5.813   0.718 -32.151  1.00  0.00     0.165 A 
HETATM   13  C   UNL     1      -4.662   1.411 -32.500  1.00  0.00     0.066 A 
BRANCH  12  14
HETATM   14  O   UNL     1      -6.077  -0.417 -32.884  1.00  0.00    -0.324 OA
BRANCH  14  15
HETATM   15  C   UNL     1      -7.111  -0.383 -33.886  1.00  0.00     0.058 C 
HETATM   16  C   UNL     1      -6.896   0.732 -34.920  1.00  0.00     0.045 C 
HETATM   17  C   UNL     1      -8.525  -0.350 -33.284  1.00  0.00     0.045 C 
HETATM   18  C   UNL     1      -6.953  -1.730 -34.619  1.00  0.00     0.045 C 
ENDBRANCH  14  15
ENDBRANCH  12  14
ENDBRANCH   7   8
ENDBRANCH   1   7
BRANCH   3  19
HETATM   19  C   UNL     1      -0.283   6.663 -29.842  1.00  0.00     0.095 A 
HETATM   20  C   UNL     1      -0.100   7.617 -28.680  1.00  0.00     0.043 A 
HETATM   21  C   UNL     1       0.684   6.326 -28.745  1.00  0.00     0.037 A 
BRANCH  20  22
HETATM   22  C   UNL     1      -1.144   7.805 -27.604  1.00  0.00    -0.052 A 
HETATM   23  C   UNL     1      -2.056   8.874 -27.655  1.00  0.00     0.007 A 
HETATM   24  C   UNL     1      -3.049   9.036 -26.686  1.00  0.00     0.001 A 
HETATM   25  C   UNL     1      -3.155   8.123 -25.640  1.00  0.00     0.000 A 
HETATM   26  C   UNL     1      -2.274   7.048 -25.572  1.00  0.00     0.001 A 
HETATM   27  C   UNL     1      -1.287   6.889 -26.549  1.00  0.00     0.007 A 
ENDBRANCH  20  22
ENDBRANCH   3  19
TORSDOF 6
ENDMDL
