MODEL 1
REMARK VINA RESULT:      -9.3      0.000      0.000
REMARK  4 active torsions:
REMARK  status: ('A' for Active; 'I' for Inactive)
REMARK    1  A    between atoms: C_5  and  C_6 
REMARK    2  A    between atoms: C_6  and  N_7 
REMARK    3  A    between atoms: C_17  and  C_18 
REMARK    4  A    between atoms: C_27  and  C_28 
ROOT
HETATM    1  N   UNL     1      -4.467   0.467 -31.852  1.00  0.00    -0.067 N 
HETATM    2  H   UNL     1      -4.352  -0.203 -31.076  1.00  0.00     0.280 HD
HETATM    3  C   UNL     1      -3.757   1.729 -31.453  1.00  0.00     0.236 C 
HETATM    4  C   UNL     1      -4.050   2.873 -32.422  1.00  0.00     0.039 C 
HETATM    5  C   UNL     1      -5.554   3.146 -32.705  1.00  0.00    -0.013 C 
HETATM    6  C   UNL     1      -6.267   3.843 -31.514  1.00  0.00     0.244 C 
HETATM    7  N   UNL     1      -5.861   5.287 -31.378  1.00  0.00    -0.073 N 
HETATM    8  H   UNL     1      -4.848   5.344 -31.207  1.00  0.00     0.279 HD
HETATM    9  C   UNL     1      -6.510   5.942 -30.177  1.00  0.00     0.269 C 
HETATM   10  C   UNL     1      -6.143   6.097 -32.637  1.00  0.00     0.243 C 
HETATM   11  C   UNL     1      -5.339   5.531 -33.820  1.00  0.00     0.045 C 
HETATM   12  C   UNL     1      -5.721   4.035 -33.978  1.00  0.00     0.022 C 
HETATM   13  C   UNL     1      -6.245   1.779 -33.002  1.00  0.00     0.039 C 
HETATM   14  C   UNL     1      -5.949   0.674 -31.989  1.00  0.00     0.236 C 
ENDROOT
BRANCH  11  15
HETATM   15  C   UNL     1      -3.834   5.792 -33.803  1.00  0.00    -0.052 A 
HETATM   16  C   UNL     1      -3.199   6.626 -32.864  1.00  0.00     0.007 A 
HETATM   17  C   UNL     1      -1.814   6.822 -32.889  1.00  0.00     0.001 A 
HETATM   18  C   UNL     1      -1.036   6.215 -33.868  1.00  0.00     0.000 A 
HETATM   19  C   UNL     1      -1.645   5.431 -34.840  1.00  0.00     0.001 A 
HETATM   20  C   UNL     1      -3.028   5.234 -34.814  1.00  0.00     0.007 A 
ENDBRANCH  11  15
BRANCH   1  21
HETATM   21  C   UNL     1      -3.858  -0.284 -33.039  1.00  0.00     0.277 C 
BRANCH  21  22
HETATM   22  C   UNL     1      -3.732  -1.760 -32.922  1.00  0.00     0.011 A 
HETATM   23  C   UNL     1      -3.016  -2.491 -31.942  1.00  0.00     0.149 A 
HETATM   24  N   UNL     1      -3.042  -3.801 -32.138  1.00  0.00    -0.185 NA
HETATM   25  N   UNL     1      -3.826  -3.955 -33.215  1.00  0.00    -0.278 N 
HETATM   26  C   UNL     1      -4.102  -5.288 -33.704  1.00  0.00     0.179 C 
HETATM   27  C   UNL     1      -4.305  -2.760 -33.705  1.00  0.00     0.043 A 
BRANCH  27  28
HETATM   28  C   UNL     1      -5.297  -2.683 -34.867  1.00  0.00     0.038 A 
HETATM   29  C   UNL     1      -6.750  -3.030 -34.620  1.00  0.00     0.011 A 
HETATM   30  C   UNL     1      -6.371  -1.626 -34.951  1.00  0.00     0.011 A 
ENDBRANCH  27  28
ENDBRANCH  21  22
ENDBRANCH   1  21
TORSDOF 4
ENDMDL
MODEL 2
REMARK VINA RESULT:      -8.3      1.266      2.054
REMARK  4 active torsions:
REMARK  status: ('A' for Active; 'I' for Inactive)
REMARK    1  A    between atoms: C_5  and  C_6 
REMARK    2  A    between atoms: C_6  and  N_7 
REMARK    3  A    between atoms: C_17  and  C_18 
REMARK    4  A    between atoms: C_27  and  C_28 
ROOT
HETATM    1  N   UNL     1      -4.322   0.033 -32.049  1.00  0.00    -0.067 N 
HETATM    2  H   UNL     1      -4.087  -0.751 -31.423  1.00  0.00     0.280 HD
HETATM    3  C   UNL     1      -3.461   1.195 -31.643  1.00  0.00     0.236 C 
HETATM    4  C   UNL     1      -3.881   2.484 -32.347  1.00  0.00     0.039 C 
HETATM    5  C   UNL     1      -5.389   2.846 -32.245  1.00  0.00    -0.013 C 
HETATM    6  C   UNL     1      -5.781   3.374 -30.838  1.00  0.00     0.244 C 
HETATM    7  N   UNL     1      -5.260   4.766 -30.590  1.00  0.00    -0.073 N 
HETATM    8  H   UNL     1      -4.233   4.763 -30.644  1.00  0.00     0.279 HD
HETATM    9  C   UNL     1      -5.590   5.248 -29.194  1.00  0.00     0.269 C 
HETATM   10  C   UNL     1      -5.754   5.769 -31.626  1.00  0.00     0.243 C 
HETATM   11  C   UNL     1      -5.264   5.366 -33.027  1.00  0.00     0.045 C 
HETATM   12  C   UNL     1      -5.769   3.925 -33.308  1.00  0.00     0.022 C 
HETATM   13  C   UNL     1      -6.216   1.565 -32.572  1.00  0.00     0.039 C 
HETATM   14  C   UNL     1      -5.781   0.308 -31.820  1.00  0.00     0.236 C 
ENDROOT
BRANCH  11  15
HETATM   15  C   UNL     1      -3.776   5.573 -33.309  1.00  0.00    -0.052 A 
HETATM   16  C   UNL     1      -2.889   6.179 -32.402  1.00  0.00     0.007 A 
HETATM   17  C   UNL     1      -1.533   6.334 -32.709  1.00  0.00     0.001 A 
HETATM   18  C   UNL     1      -1.039   5.914 -33.938  1.00  0.00     0.000 A 
HETATM   19  C   UNL     1      -1.905   5.363 -34.874  1.00  0.00     0.001 A 
HETATM   20  C   UNL     1      -3.259   5.206 -34.567  1.00  0.00     0.007 A 
ENDBRANCH  11  15
BRANCH   1  21
HETATM   21  C   UNL     1      -4.034  -0.544 -33.437  1.00  0.00     0.277 C 
BRANCH  21  22
HETATM   22  C   UNL     1      -5.035  -1.485 -34.007  1.00  0.00     0.011 A 
HETATM   23  C   UNL     1      -6.327  -1.176 -34.501  1.00  0.00     0.149 A 
HETATM   24  N   UNL     1      -7.010  -2.242 -34.891  1.00  0.00    -0.185 NA
HETATM   25  N   UNL     1      -6.156  -3.260 -34.715  1.00  0.00    -0.278 N 
HETATM   26  C   UNL     1      -6.569  -4.600 -35.072  1.00  0.00     0.179 C 
HETATM   27  C   UNL     1      -4.933  -2.857 -34.223  1.00  0.00     0.043 A 
BRANCH  27  28
HETATM   28  C   UNL     1      -3.762  -3.821 -34.033  1.00  0.00     0.038 A 
HETATM   29  C   UNL     1      -3.232  -4.072 -32.638  1.00  0.00     0.011 A 
HETATM   30  C   UNL     1      -3.917  -5.171 -33.376  1.00  0.00     0.011 A 
ENDBRANCH  27  28
ENDBRANCH  21  22
ENDBRANCH   1  21
TORSDOF 4
ENDMDL
MODEL 3
REMARK VINA RESULT:      -8.1      3.321      7.216
REMARK  4 active torsions:
REMARK  status: ('A' for Active; 'I' for Inactive)
REMARK    1  A    between atoms: C_5  and  C_6 
REMARK    2  A    between atoms: C_6  and  N_7 
REMARK    3  A    between atoms: C_17  and  C_18 
REMARK    4  A    between atoms: C_27  and  C_28 
ROOT
HETATM    1  N   UNL     1      -7.260   5.782 -32.350  1.00  0.00    -0.067 N 
HETATM    2  H   UNL     1      -7.123   6.711 -32.777  1.00  0.00     0.280 HD
HETATM    3  C   UNL     1      -7.212   4.774 -33.462  1.00  0.00     0.236 C 
HETATM    4  C   UNL     1      -7.631   3.385 -32.985  1.00  0.00     0.039 C 
HETATM    5  C   UNL     1      -8.986   3.314 -32.228  1.00  0.00    -0.013 C 
HETATM    6  C   UNL     1     -10.207   3.462 -33.177  1.00  0.00     0.244 C 
HETATM    7  N   UNL     1     -10.423   2.230 -34.017  1.00  0.00    -0.073 N 
HETATM    8  H   UNL     1      -9.594   2.064 -34.603  1.00  0.00     0.279 HD
HETATM    9  C   UNL     1     -11.574   2.405 -34.985  1.00  0.00     0.269 C 
HETATM   10  C   UNL     1     -10.627   0.976 -33.176  1.00  0.00     0.243 C 
HETATM   11  C   UNL     1      -9.377   0.704 -32.322  1.00  0.00     0.045 C 
HETATM   12  C   UNL     1      -9.114   1.963 -31.454  1.00  0.00     0.022 C 
HETATM   13  C   UNL     1      -9.007   4.458 -31.167  1.00  0.00     0.039 C 
HETATM   14  C   UNL     1      -8.612   5.835 -31.697  1.00  0.00     0.236 C 
ENDROOT
BRANCH  11  15
HETATM   15  C   UNL     1      -8.146   0.190 -33.068  1.00  0.00    -0.052 A 
HETATM   16  C   UNL     1      -8.119  -0.048 -34.453  1.00  0.00     0.007 A 
HETATM   17  C   UNL     1      -6.959  -0.509 -35.086  1.00  0.00     0.001 A 
HETATM   18  C   UNL     1      -5.812  -0.770 -34.347  1.00  0.00     0.000 A 
HETATM   19  C   UNL     1      -5.829  -0.595 -32.968  1.00  0.00     0.001 A 
HETATM   20  C   UNL     1      -6.986  -0.133 -32.336  1.00  0.00     0.007 A 
ENDBRANCH  11  15
BRANCH   1  21
HETATM   21  C   UNL     1      -6.113   5.702 -31.340  1.00  0.00     0.277 C 
BRANCH  21  22
HETATM   22  C   UNL     1      -4.729   5.846 -31.864  1.00  0.00     0.011 A 
HETATM   23  C   UNL     1      -3.971   7.037 -31.989  1.00  0.00     0.149 A 
HETATM   24  N   UNL     1      -2.785   6.850 -32.549  1.00  0.00    -0.185 NA
HETATM   25  N   UNL     1      -2.720   5.525 -32.744  1.00  0.00    -0.278 N 
HETATM   26  C   UNL     1      -1.526   4.954 -33.326  1.00  0.00     0.179 C 
HETATM   27  C   UNL     1      -3.849   4.863 -32.311  1.00  0.00     0.043 A 
BRANCH  27  28
HETATM   28  C   UNL     1      -3.971   3.338 -32.337  1.00  0.00     0.038 A 
HETATM   29  C   UNL     1      -3.187   2.518 -31.335  1.00  0.00     0.011 A 
HETATM   30  C   UNL     1      -4.674   2.561 -31.252  1.00  0.00     0.011 A 
ENDBRANCH  27  28
ENDBRANCH  21  22
ENDBRANCH   1  21
TORSDOF 4
ENDMDL
MODEL 4
REMARK VINA RESULT:      -8.0     15.877     18.305
REMARK  4 active torsions:
REMARK  status: ('A' for Active; 'I' for Inactive)
REMARK    1  A    between atoms: C_5  and  C_6 
REMARK    2  A    between atoms: C_6  and  N_7 
REMARK    3  A    between atoms: C_17  and  C_18 
REMARK    4  A    between atoms: C_27  and  C_28 
ROOT
HETATM    1  N   UNL     1      -5.281 -14.395 -36.464  1.00  0.00    -0.067 N 
HETATM    2  H   UNL     1      -5.812 -14.887 -35.731  1.00  0.00     0.280 HD
HETATM    3  C   UNL     1      -4.559 -15.441 -37.264  1.00  0.00     0.236 C 
HETATM    4  C   UNL     1      -3.558 -14.820 -38.236  1.00  0.00     0.039 C 
HETATM    5  C   UNL     1      -2.557 -13.806 -37.615  1.00  0.00    -0.013 C 
HETATM    6  C   UNL     1      -1.454 -14.501 -36.771  1.00  0.00     0.244 C 
HETATM    7  N   UNL     1      -0.448 -15.217 -37.634  1.00  0.00    -0.073 N 
HETATM    8  H   UNL     1      -0.923 -15.947 -38.182  1.00  0.00     0.279 HD
HETATM    9  C   UNL     1       0.587 -15.945 -36.803  1.00  0.00     0.269 C 
HETATM   10  C   UNL     1       0.234 -14.289 -38.632  1.00  0.00     0.243 C 
HETATM   11  C   UNL     1      -0.808 -13.686 -39.590  1.00  0.00     0.045 C 
HETATM   12  C   UNL     1      -1.872 -12.954 -38.730  1.00  0.00     0.022 C 
HETATM   13  C   UNL     1      -3.364 -12.822 -36.712  1.00  0.00     0.039 C 
HETATM   14  C   UNL     1      -4.329 -13.490 -35.733  1.00  0.00     0.236 C 
ENDROOT
BRANCH  11  15
HETATM   15  C   UNL     1      -1.394 -14.634 -40.636  1.00  0.00    -0.052 A 
HETATM   16  C   UNL     1      -0.921 -15.941 -40.854  1.00  0.00     0.007 A 
HETATM   17  C   UNL     1      -1.503 -16.769 -41.820  1.00  0.00     0.001 A 
HETATM   18  C   UNL     1      -2.548 -16.303 -42.608  1.00  0.00     0.000 A 
HETATM   19  C   UNL     1      -2.996 -14.997 -42.451  1.00  0.00     0.001 A 
HETATM   20  C   UNL     1      -2.417 -14.170 -41.485  1.00  0.00     0.007 A 
ENDBRANCH  11  15
BRANCH   1  21
HETATM   21  C   UNL     1      -6.373 -13.629 -37.215  1.00  0.00     0.277 C 
BRANCH  21  22
HETATM   22  C   UNL     1      -7.185 -14.389 -38.202  1.00  0.00     0.011 A 
HETATM   23  C   UNL     1      -8.279 -15.249 -37.940  1.00  0.00     0.149 A 
HETATM   24  N   UNL     1      -8.764 -15.831 -39.027  1.00  0.00    -0.185 NA
HETATM   25  N   UNL     1      -8.035 -15.316 -40.027  1.00  0.00    -0.278 N 
HETATM   26  C   UNL     1      -8.317 -15.717 -41.388  1.00  0.00     0.179 C 
HETATM   27  C   UNL     1      -7.094 -14.407 -39.592  1.00  0.00     0.043 A 
BRANCH  27  28
HETATM   28  C   UNL     1      -6.210 -13.611 -40.553  1.00  0.00     0.038 A 
HETATM   29  C   UNL     1      -6.665 -12.243 -41.014  1.00  0.00     0.011 A 
HETATM   30  C   UNL     1      -5.468 -12.366 -40.134  1.00  0.00     0.011 A 
ENDBRANCH  27  28
ENDBRANCH  21  22
ENDBRANCH   1  21
TORSDOF 4
ENDMDL
MODEL 5
REMARK VINA RESULT:      -8.0      2.825      8.053
REMARK  4 active torsions:
REMARK  status: ('A' for Active; 'I' for Inactive)
REMARK    1  A    between atoms: C_5  and  C_6 
REMARK    2  A    between atoms: C_6  and  N_7 
REMARK    3  A    between atoms: C_17  and  C_18 
REMARK    4  A    between atoms: C_27  and  C_28 
ROOT
HETATM    1  N   UNL     1      -5.503   5.002 -33.260  1.00  0.00    -0.067 N 
HETATM    2  H   UNL     1      -5.362   5.814 -33.879  1.00  0.00     0.280 HD
HETATM    3  C   UNL     1      -5.773   3.817 -34.141  1.00  0.00     0.236 C 
HETATM    4  C   UNL     1      -6.224   2.601 -33.333  1.00  0.00     0.039 C 
HETATM    5  C   UNL     1      -7.404   2.846 -32.352  1.00  0.00    -0.013 C 
HETATM    6  C   UNL     1      -8.767   2.986 -33.083  1.00  0.00     0.244 C 
HETATM    7  N   UNL     1      -9.264   1.665 -33.611  1.00  0.00    -0.073 N 
HETATM    8  H   UNL     1      -8.586   1.290 -34.289  1.00  0.00     0.279 HD
HETATM    9  C   UNL     1     -10.559   1.819 -34.379  1.00  0.00     0.269 C 
HETATM   10  C   UNL     1      -9.420   0.617 -32.516  1.00  0.00     0.243 C 
HETATM   11  C   UNL     1      -8.059   0.336 -31.857  1.00  0.00     0.045 C 
HETATM   12  C   UNL     1      -7.509   1.682 -31.316  1.00  0.00     0.022 C 
HETATM   13  C   UNL     1      -7.104   4.151 -31.551  1.00  0.00     0.039 C 
HETATM   14  C   UNL     1      -6.688   5.349 -32.404  1.00  0.00     0.236 C 
ENDROOT
BRANCH  11  15
HETATM   15  C   UNL     1      -7.055  -0.460 -32.690  1.00  0.00    -0.052 A 
HETATM   16  C   UNL     1      -7.374  -1.080 -33.911  1.00  0.00     0.007 A 
HETATM   17  C   UNL     1      -6.411  -1.789 -34.637  1.00  0.00     0.001 A 
HETATM   18  C   UNL     1      -5.117  -1.919 -34.147  1.00  0.00     0.000 A 
HETATM   19  C   UNL     1      -4.790  -1.363 -32.917  1.00  0.00     0.001 A 
HETATM   20  C   UNL     1      -5.751  -0.654 -32.192  1.00  0.00     0.007 A 
ENDBRANCH  11  15
BRANCH   1  21
HETATM   21  C   UNL     1      -4.192   4.949 -32.470  1.00  0.00     0.277 C 
BRANCH  21  22
HETATM   22  C   UNL     1      -3.825   6.151 -31.675  1.00  0.00     0.011 A 
HETATM   23  C   UNL     1      -4.211   6.459 -30.347  1.00  0.00     0.149 A 
HETATM   24  N   UNL     1      -3.770   7.637 -29.931  1.00  0.00    -0.185 NA
HETATM   25  N   UNL     1      -3.037   8.093 -30.956  1.00  0.00    -0.278 N 
HETATM   26  C   UNL     1      -2.368   9.370 -30.835  1.00  0.00     0.179 C 
HETATM   27  C   UNL     1      -2.999   7.218 -32.021  1.00  0.00     0.043 A 
BRANCH  27  28
HETATM   28  C   UNL     1      -2.149   7.470 -33.267  1.00  0.00     0.038 A 
HETATM   29  C   UNL     1      -0.724   6.961 -33.302  1.00  0.00     0.011 A 
HETATM   30  C   UNL     1      -1.744   6.366 -34.212  1.00  0.00     0.011 A 
ENDBRANCH  27  28
ENDBRANCH  21  22
ENDBRANCH   1  21
TORSDOF 4
ENDMDL
MODEL 6
REMARK VINA RESULT:      -8.0      1.874      2.626
REMARK  4 active torsions:
REMARK  status: ('A' for Active; 'I' for Inactive)
REMARK    1  A    between atoms: C_5  and  C_6 
REMARK    2  A    between atoms: C_6  and  N_7 
REMARK    3  A    between atoms: C_17  and  C_18 
REMARK    4  A    between atoms: C_27  and  C_28 
ROOT
HETATM    1  N   UNL     1      -5.408   1.353 -31.626  1.00  0.00    -0.067 N 
HETATM    2  H   UNL     1      -5.646   0.437 -31.217  1.00  0.00     0.280 HD
HETATM    3  C   UNL     1      -4.310   1.939 -30.787  1.00  0.00     0.236 C 
HETATM    4  C   UNL     1      -4.030   3.395 -31.157  1.00  0.00     0.039 C 
HETATM    5  C   UNL     1      -5.270   4.332 -31.186  1.00  0.00    -0.013 C 
HETATM    6  C   UNL     1      -5.777   4.691 -29.762  1.00  0.00     0.244 C 
HETATM    7  N   UNL     1      -4.858   5.656 -29.060  1.00  0.00    -0.073 N 
HETATM    8  H   UNL     1      -3.927   5.230 -28.958  1.00  0.00     0.279 HD
HETATM    9  C   UNL     1      -5.324   5.950 -27.650  1.00  0.00     0.269 C 
HETATM   10  C   UNL     1      -4.668   6.954 -29.835  1.00  0.00     0.243 C 
HETATM   11  C   UNL     1      -4.028   6.663 -31.203  1.00  0.00     0.045 C 
HETATM   12  C   UNL     1      -4.943   5.655 -31.948  1.00  0.00     0.022 C 
HETATM   13  C   UNL     1      -6.403   3.610 -31.978  1.00  0.00     0.039 C 
HETATM   14  C   UNL     1      -6.669   2.167 -31.551  1.00  0.00     0.236 C 
ENDROOT
BRANCH  11  15
HETATM   15  C   UNL     1      -2.550   6.273 -31.190  1.00  0.00    -0.052 A 
HETATM   16  C   UNL     1      -1.909   5.617 -32.255  1.00  0.00     0.007 A 
HETATM   17  C   UNL     1      -0.549   5.293 -32.193  1.00  0.00     0.001 A 
HETATM   18  C   UNL     1       0.193   5.590 -31.057  1.00  0.00     0.000 A 
HETATM   19  C   UNL     1      -0.430   6.189 -29.968  1.00  0.00     0.001 A 
HETATM   20  C   UNL     1      -1.787   6.514 -30.030  1.00  0.00     0.007 A 
ENDBRANCH  11  15
BRANCH   1  21
HETATM   21  C   UNL     1      -5.018   0.991 -33.062  1.00  0.00     0.277 C 
BRANCH  21  22
HETATM   22  C   UNL     1      -4.928  -0.454 -33.401  1.00  0.00     0.011 A 
HETATM   23  C   UNL     1      -3.958  -1.387 -32.959  1.00  0.00     0.149 A 
HETATM   24  N   UNL     1      -4.111  -2.594 -33.484  1.00  0.00    -0.185 NA
HETATM   25  N   UNL     1      -5.219  -2.489 -34.231  1.00  0.00    -0.278 N 
HETATM   26  C   UNL     1      -5.706  -3.650 -34.942  1.00  0.00     0.179 C 
HETATM   27  C   UNL     1      -5.779  -1.230 -34.185  1.00  0.00     0.043 A 
BRANCH  27  28
HETATM   28  C   UNL     1      -7.102  -0.890 -34.875  1.00  0.00     0.038 A 
HETATM   29  C   UNL     1      -8.195  -0.211 -34.079  1.00  0.00     0.011 A 
HETATM   30  C   UNL     1      -7.518   0.527 -35.183  1.00  0.00     0.011 A 
ENDBRANCH  27  28
ENDBRANCH  21  22
ENDBRANCH   1  21
TORSDOF 4
ENDMDL
MODEL 7
REMARK VINA RESULT:      -7.8      2.994      7.713
REMARK  4 active torsions:
REMARK  status: ('A' for Active; 'I' for Inactive)
REMARK    1  A    between atoms: C_5  and  C_6 
REMARK    2  A    between atoms: C_6  and  N_7 
REMARK    3  A    between atoms: C_17  and  C_18 
REMARK    4  A    between atoms: C_27  and  C_28 
ROOT
HETATM    1  N   UNL     1      -5.249   4.866 -32.065  1.00  0.00    -0.067 N 
HETATM    2  H   UNL     1      -4.934   5.756 -32.479  1.00  0.00     0.280 HD
HETATM    3  C   UNL     1      -5.450   3.900 -33.196  1.00  0.00     0.236 C 
HETATM    4  C   UNL     1      -6.137   2.617 -32.729  1.00  0.00     0.039 C 
HETATM    5  C   UNL     1      -7.451   2.812 -31.923  1.00  0.00    -0.013 C 
HETATM    6  C   UNL     1      -8.643   3.237 -32.823  1.00  0.00     0.244 C 
HETATM    7  N   UNL     1      -9.141   2.100 -33.677  1.00  0.00    -0.073 N 
HETATM    8  H   UNL     1      -8.385   1.779 -34.297  1.00  0.00     0.279 HD
HETATM    9  C   UNL     1     -10.260   2.537 -34.598  1.00  0.00     0.269 C 
HETATM   10  C   UNL     1      -9.577   0.895 -32.852  1.00  0.00     0.243 C 
HETATM   11  C   UNL     1      -8.385   0.345 -32.050  1.00  0.00     0.045 C 
HETATM   12  C   UNL     1      -7.835   1.499 -31.170  1.00  0.00     0.022 C 
HETATM   13  C   UNL     1      -7.197   3.908 -30.842  1.00  0.00     0.039 C 
HETATM   14  C   UNL     1      -6.538   5.185 -31.361  1.00  0.00     0.236 C 
ENDROOT
BRANCH  11  15
HETATM   15  C   UNL     1      -7.315  -0.395 -32.850  1.00  0.00    -0.052 A 
HETATM   16  C   UNL     1      -7.492  -0.823 -34.178  1.00  0.00     0.007 A 
HETATM   17  C   UNL     1      -6.472  -1.489 -34.867  1.00  0.00     0.001 A 
HETATM   18  C   UNL     1      -5.266  -1.768 -34.237  1.00  0.00     0.000 A 
HETATM   19  C   UNL     1      -5.085  -1.406 -32.908  1.00  0.00     0.001 A 
HETATM   20  C   UNL     1      -6.102  -0.739 -32.220  1.00  0.00     0.007 A 
ENDBRANCH  11  15
BRANCH   1  21
HETATM   21  C   UNL     1      -4.112   4.522 -31.099  1.00  0.00     0.277 C 
BRANCH  21  22
HETATM   22  C   UNL     1      -2.748   4.996 -31.452  1.00  0.00     0.011 A 
HETATM   23  C   UNL     1      -1.942   4.576 -32.540  1.00  0.00     0.149 A 
HETATM   24  N   UNL     1      -0.745   5.143 -32.557  1.00  0.00    -0.185 NA
HETATM   25  N   UNL     1      -0.767   5.988 -31.517  1.00  0.00    -0.278 N 
HETATM   26  C   UNL     1       0.392   6.810 -31.247  1.00  0.00     0.179 C 
HETATM   27  C   UNL     1      -1.967   5.973 -30.839  1.00  0.00     0.043 A 
BRANCH  27  28
HETATM   28  C   UNL     1      -2.271   6.921 -29.678  1.00  0.00     0.038 A 
HETATM   29  C   UNL     1      -2.717   8.336 -29.978  1.00  0.00     0.011 A 
HETATM   30  C   UNL     1      -3.670   7.380 -29.346  1.00  0.00     0.011 A 
ENDBRANCH  27  28
ENDBRANCH  21  22
ENDBRANCH   1  21
TORSDOF 4
ENDMDL
MODEL 8
REMARK VINA RESULT:      -7.8      5.490      8.323
REMARK  4 active torsions:
REMARK  status: ('A' for Active; 'I' for Inactive)
REMARK    1  A    between atoms: C_5  and  C_6 
REMARK    2  A    between atoms: C_6  and  N_7 
REMARK    3  A    between atoms: C_17  and  C_18 
REMARK    4  A    between atoms: C_27  and  C_28 
ROOT
HETATM    1  N   UNL     1     -10.991   3.449 -31.611  1.00  0.00    -0.067 N 
HETATM    2  H   UNL     1     -11.621   3.496 -30.796  1.00  0.00     0.280 HD
HETATM    3  C   UNL     1     -10.014   2.340 -31.350  1.00  0.00     0.236 C 
HETATM    4  C   UNL     1      -8.887   2.323 -32.382  1.00  0.00     0.039 C 
HETATM    5  C   UNL     1      -8.151   3.675 -32.597  1.00  0.00    -0.013 C 
HETATM    6  C   UNL     1      -7.199   4.027 -31.421  1.00  0.00     0.244 C 
HETATM    7  N   UNL     1      -5.963   3.166 -31.417  1.00  0.00    -0.073 N 
HETATM    8  H   UNL     1      -6.233   2.178 -31.310  1.00  0.00     0.279 HD
HETATM    9  C   UNL     1      -5.071   3.470 -30.232  1.00  0.00     0.269 C 
HETATM   10  C   UNL     1      -5.171   3.270 -32.714  1.00  0.00     0.243 C 
HETATM   11  C   UNL     1      -6.030   2.790 -33.897  1.00  0.00     0.045 C 
HETATM   12  C   UNL     1      -7.323   3.647 -33.920  1.00  0.00     0.022 C 
HETATM   13  C   UNL     1      -9.229   4.793 -32.749  1.00  0.00     0.039 C 
HETATM   14  C   UNL     1     -10.316   4.790 -31.676  1.00  0.00     0.236 C 
ENDROOT
BRANCH  11  15
HETATM   15  C   UNL     1      -6.276   1.284 -33.987  1.00  0.00    -0.052 A 
HETATM   16  C   UNL     1      -5.684   0.345 -33.123  1.00  0.00     0.007 A 
HETATM   17  C   UNL     1      -5.953  -1.022 -33.245  1.00  0.00     0.001 A 
HETATM   18  C   UNL     1      -6.795  -1.485 -34.250  1.00  0.00     0.000 A 
HETATM   19  C   UNL     1      -7.348  -0.584 -35.151  1.00  0.00     0.001 A 
HETATM   20  C   UNL     1      -7.081   0.782 -35.028  1.00  0.00     0.007 A 
ENDBRANCH  11  15
BRANCH   1  21
HETATM   21  C   UNL     1     -11.960   3.212 -32.773  1.00  0.00     0.277 C 
BRANCH  21  22
HETATM   22  C   UNL     1     -13.410   3.396 -32.502  1.00  0.00     0.011 A 
HETATM   23  C   UNL     1     -14.073   4.588 -32.119  1.00  0.00     0.149 A 
HETATM   24  N   UNL     1     -15.368   4.421 -31.892  1.00  0.00    -0.185 NA
HETATM   25  N   UNL     1     -15.587   3.130 -32.180  1.00  0.00    -0.278 N 
HETATM   26  C   UNL     1     -16.926   2.597 -32.066  1.00  0.00     0.179 C 
HETATM   27  C   UNL     1     -14.449   2.472 -32.594  1.00  0.00     0.043 A 
BRANCH  27  28
HETATM   28  C   UNL     1     -14.463   1.019 -33.072  1.00  0.00     0.038 A 
HETATM   29  C   UNL     1     -15.051   0.695 -34.429  1.00  0.00     0.011 A 
HETATM   30  C   UNL     1     -13.588   0.524 -34.197  1.00  0.00     0.011 A 
ENDBRANCH  27  28
ENDBRANCH  21  22
ENDBRANCH   1  21
TORSDOF 4
ENDMDL
MODEL 9
REMARK VINA RESULT:      -7.7      2.310      3.588
REMARK  4 active torsions:
REMARK  status: ('A' for Active; 'I' for Inactive)
REMARK    1  A    between atoms: C_5  and  C_6 
REMARK    2  A    between atoms: C_6  and  N_7 
REMARK    3  A    between atoms: C_17  and  C_18 
REMARK    4  A    between atoms: C_27  and  C_28 
ROOT
HETATM    1  N   UNL     1      -5.885   2.303 -31.659  1.00  0.00    -0.067 N 
HETATM    2  H   UNL     1      -6.239   1.377 -31.374  1.00  0.00     0.280 HD
HETATM    3  C   UNL     1      -4.676   2.592 -30.816  1.00  0.00     0.236 C 
HETATM    4  C   UNL     1      -4.200   4.034 -30.985  1.00  0.00     0.039 C 
HETATM    5  C   UNL     1      -5.286   5.128 -30.795  1.00  0.00    -0.013 C 
HETATM    6  C   UNL     1      -5.673   5.329 -29.304  1.00  0.00     0.244 C 
HETATM    7  N   UNL     1      -4.590   6.035 -28.529  1.00  0.00    -0.073 N 
HETATM    8  H   UNL     1      -3.729   5.472 -28.552  1.00  0.00     0.279 HD
HETATM    9  C   UNL     1      -4.946   6.170 -27.064  1.00  0.00     0.269 C 
HETATM   10  C   UNL     1      -4.243   7.398 -29.116  1.00  0.00     0.243 C 
HETATM   11  C   UNL     1      -3.713   7.235 -30.550  1.00  0.00     0.045 C 
HETATM   12  C   UNL     1      -4.799   6.494 -31.374  1.00  0.00     0.022 C 
HETATM   13  C   UNL     1      -6.547   4.704 -31.609  1.00  0.00     0.039 C 
HETATM   14  C   UNL     1      -7.006   3.264 -31.383  1.00  0.00     0.236 C 
ENDROOT
BRANCH  11  15
HETATM   15  C   UNL     1      -2.310   6.645 -30.691  1.00  0.00    -0.052 A 
HETATM   16  C   UNL     1      -1.400   6.539 -29.624  1.00  0.00     0.007 A 
HETATM   17  C   UNL     1      -0.130   5.980 -29.809  1.00  0.00     0.001 A 
HETATM   18  C   UNL     1       0.268   5.541 -31.065  1.00  0.00     0.000 A 
HETATM   19  C   UNL     1      -0.591   5.685 -32.147  1.00  0.00     0.001 A 
HETATM   20  C   UNL     1      -1.860   6.242 -31.963  1.00  0.00     0.007 A 
ENDBRANCH  11  15
BRANCH   1  21
HETATM   21  C   UNL     1      -5.615   2.116 -33.154  1.00  0.00     0.277 C 
BRANCH  21  22
HETATM   22  C   UNL     1      -6.175   0.901 -33.803  1.00  0.00     0.011 A 
HETATM   23  C   UNL     1      -7.046   0.841 -34.919  1.00  0.00     0.149 A 
HETATM   24  N   UNL     1      -7.420  -0.391 -35.230  1.00  0.00    -0.185 NA
HETATM   25  N   UNL     1      -6.753  -1.165 -34.361  1.00  0.00    -0.278 N 
HETATM   26  C   UNL     1      -6.905  -2.601 -34.432  1.00  0.00     0.179 C 
HETATM   27  C   UNL     1      -5.952  -0.441 -33.503  1.00  0.00     0.043 A 
BRANCH  27  28
HETATM   28  C   UNL     1      -5.020  -1.105 -32.489  1.00  0.00     0.038 A 
HETATM   29  C   UNL     1      -3.833  -1.901 -32.988  1.00  0.00     0.011 A 
HETATM   30  C   UNL     1      -3.609  -0.627 -32.247  1.00  0.00     0.011 A 
ENDBRANCH  27  28
ENDBRANCH  21  22
ENDBRANCH   1  21
TORSDOF 4
ENDMDL
MODEL 10
REMARK VINA RESULT:      -7.7      3.954      6.953
REMARK  4 active torsions:
REMARK  status: ('A' for Active; 'I' for Inactive)
REMARK    1  A    between atoms: C_5  and  C_6 
REMARK    2  A    between atoms: C_6  and  N_7 
REMARK    3  A    between atoms: C_17  and  C_18 
REMARK    4  A    between atoms: C_27  and  C_28 
ROOT
HETATM    1  N   UNL     1      -8.985   1.340 -34.511  1.00  0.00    -0.067 N 
HETATM    2  H   UNL     1      -9.342   0.917 -35.381  1.00  0.00     0.280 HD
HETATM    3  C   UNL     1      -7.507   1.531 -34.688  1.00  0.00     0.236 C 
HETATM    4  C   UNL     1      -6.828   1.939 -33.382  1.00  0.00     0.039 C 
HETATM    5  C   UNL     1      -7.129   1.033 -32.156  1.00  0.00    -0.013 C 
HETATM    6  C   UNL     1      -6.389  -0.331 -32.227  1.00  0.00     0.244 C 
HETATM    7  N   UNL     1      -4.912  -0.187 -31.967  1.00  0.00    -0.073 N 
HETATM    8  H   UNL     1      -4.496   0.428 -32.679  1.00  0.00     0.279 HD
HETATM    9  C   UNL     1      -4.187  -1.510 -32.102  1.00  0.00     0.269 C 
HETATM   10  C   UNL     1      -4.615   0.442 -30.611  1.00  0.00     0.243 C 
HETATM   11  C   UNL     1      -5.206   1.860 -30.546  1.00  0.00     0.045 C 
HETATM   12  C   UNL     1      -6.728   1.751 -30.829  1.00  0.00     0.022 C 
HETATM   13  C   UNL     1      -8.669   0.789 -32.102  1.00  0.00     0.039 C 
HETATM   14  C   UNL     1      -9.299   0.351 -33.424  1.00  0.00     0.236 C 
ENDROOT
BRANCH  11  15
HETATM   15  C   UNL     1      -4.492   2.930 -31.372  1.00  0.00    -0.052 A 
HETATM   16  C   UNL     1      -3.310   2.694 -32.096  1.00  0.00     0.007 A 
HETATM   17  C   UNL     1      -2.704   3.709 -32.844  1.00  0.00     0.001 A 
HETATM   18  C   UNL     1      -3.248   4.988 -32.863  1.00  0.00     0.000 A 
HETATM   19  C   UNL     1      -4.384   5.261 -32.111  1.00  0.00     0.001 A 
HETATM   20  C   UNL     1      -4.990   4.247 -31.366  1.00  0.00     0.007 A 
ENDBRANCH  11  15
BRANCH   1  21
HETATM   21  C   UNL     1      -9.806   2.628 -34.400  1.00  0.00     0.277 C 
BRANCH  21  22
HETATM   22  C   UNL     1     -11.181   2.516 -33.845  1.00  0.00     0.011 A 
HETATM   23  C   UNL     1     -12.219   1.654 -34.277  1.00  0.00     0.149 A 
HETATM   24  N   UNL     1     -13.356   1.829 -33.619  1.00  0.00    -0.185 NA
HETATM   25  N   UNL     1     -13.065   2.766 -32.705  1.00  0.00    -0.278 N 
HETATM   26  C   UNL     1     -14.089   3.190 -31.776  1.00  0.00     0.179 C 
HETATM   27  C   UNL     1     -11.754   3.187 -32.767  1.00  0.00     0.043 A 
BRANCH  27  28
HETATM   28  C   UNL     1     -11.157   4.176 -31.765  1.00  0.00     0.038 A 
HETATM   29  C   UNL     1     -10.497   3.647 -30.510  1.00  0.00     0.011 A 
HETATM   30  C   UNL     1      -9.671   4.321 -31.552  1.00  0.00     0.011 A 
ENDBRANCH  27  28
ENDBRANCH  21  22
ENDBRANCH   1  21
TORSDOF 4
ENDMDL
