MODEL 1
REMARK VINA RESULT:      -8.9      0.000      0.000
REMARK  9 active torsions:
REMARK  status: ('A' for Active; 'I' for Inactive)
REMARK    1  A    between atoms: C_4  and  N_5 
REMARK    2  A    between atoms: C_6  and  S_7 
REMARK    3  A    between atoms: S_7  and  C_8 
REMARK    4  A    between atoms: C_8  and  C_9 
REMARK       I    between atoms: C_9  and  N_10 
REMARK    5  A    between atoms: N_10  and  C_11 
REMARK    6  A    between atoms: C_12  and  C_13 
REMARK       I    between atoms: C_13  and  N_14 
REMARK    7  A    between atoms: N_14  and  C_15 
REMARK    8  A    between atoms: C_26  and  C_27 
REMARK    9  A    between atoms: C_27  and  N_28 
ROOT
HETATM    1  S   UNL     1      -7.026   3.348 -30.227  1.00  0.00    -0.080 SA
ENDROOT
BRANCH   1   2
HETATM    2  C   UNL     1      -6.262   1.988 -30.971  1.00  0.00     0.196 C 
HETATM    3  N   UNL     1      -6.758   1.245 -32.030  1.00  0.00    -0.274 N 
HETATM    4  C   UNL     1      -5.697   0.410 -32.355  1.00  0.00     0.161 C 
HETATM    5  N   UNL     1      -4.779   0.460 -31.415  1.00  0.00    -0.132 NA
HETATM    6  N   UNL     1      -5.144   1.441 -30.545  1.00  0.00    -0.122 NA
BRANCH   3   7
HETATM    7  C   UNL     1      -8.029   1.250 -32.663  1.00  0.00     0.043 A 
HETATM    8  C   UNL     1      -9.008   0.302 -32.357  1.00  0.00     0.030 A 
HETATM    9  C   UNL     1     -10.238   0.336 -33.020  1.00  0.00     0.002 A 
HETATM   10  C   UNL     1     -10.491   1.303 -33.992  1.00  0.00     0.000 A 
HETATM   11  C   UNL     1      -9.516   2.246 -34.305  1.00  0.00     0.002 A 
HETATM   12  C   UNL     1      -8.288   2.225 -33.643  1.00  0.00     0.030 A 
ENDBRANCH   3   7
BRANCH   4  13
HETATM   13  C   UNL     1      -5.505  -0.259 -33.666  1.00  0.00     0.315 C 
BRANCH  13  14
HETATM   14  N   UNL     1      -5.776  -1.744 -33.562  1.00  0.00    -0.064 N 
HETATM   15  H   UNL     1      -5.822  -1.939 -32.548  1.00  0.00     0.280 HD
HETATM   16  C   UNL     1      -4.658  -2.635 -34.089  1.00  0.00     0.235 C 
HETATM   17  C   UNL     1      -5.294  -3.363 -35.258  1.00  0.00     0.029 C 
HETATM   18  C   UNL     1      -6.736  -3.528 -34.824  1.00  0.00     0.029 C 
HETATM   19  C   UNL     1      -7.063  -2.181 -34.213  1.00  0.00     0.235 C 
ENDBRANCH  13  14
ENDBRANCH   4  13
ENDBRANCH   1   2
BRANCH   1  20
HETATM   20  C   UNL     1      -5.613   4.252 -29.546  1.00  0.00     0.185 C 
BRANCH  20  21
HETATM   21  C   UNL     1      -4.869   5.055 -30.608  1.00  0.00     0.231 C 
HETATM   22  N   UNL     1      -4.149   4.263 -31.487  1.00  0.00    -0.326 N 
HETATM   23  H   UNL     1      -4.011   3.298 -31.211  1.00  0.00     0.169 HD
HETATM   24  O   UNL     1      -4.855   6.283 -30.595  1.00  0.00    -0.272 OA
BRANCH  22  25
HETATM   25  C   UNL     1      -3.324   4.722 -32.536  1.00  0.00     0.050 A 
HETATM   26  C   UNL     1      -1.963   5.044 -32.445  1.00  0.00     0.058 A 
HETATM   27  C   UNL     1      -1.248   5.413 -33.601  1.00  0.00     0.019 A 
HETATM   28  C   UNL     1      -1.887   5.483 -34.838  1.00  0.00     0.001 A 
HETATM   29  C   UNL     1      -3.251   5.225 -34.924  1.00  0.00     0.002 A 
HETATM   30  C   UNL     1      -3.964   4.861 -33.780  1.00  0.00     0.030 A 
BRANCH  26  31
HETATM   31  C   UNL     1      -1.234   5.261 -31.173  1.00  0.00     0.254 C 
HETATM   32  N   UNL     1      -1.508   6.469 -30.570  1.00  0.00    -0.352 N 
HETATM   33  H   UNL     1      -1.792   7.220 -31.198  1.00  0.00     0.163 HD
HETATM   34  O   UNL     1      -0.549   4.357 -30.699  1.00  0.00    -0.268 OA
BRANCH  32  35
HETATM   35  C   UNL     1      -1.060   6.837 -29.267  1.00  0.00     0.084 A 
HETATM   36  C   UNL     1       0.327   7.342 -28.992  1.00  0.00     0.027 A 
HETATM   37  C   UNL     1      -0.834   8.289 -28.937  1.00  0.00     0.027 A 
ENDBRANCH  32  35
ENDBRANCH  26  31
ENDBRANCH  22  25
ENDBRANCH  20  21
ENDBRANCH   1  20
TORSDOF 9
ENDMDL
MODEL 2
REMARK VINA RESULT:      -8.5      2.589      8.147
REMARK  9 active torsions:
REMARK  status: ('A' for Active; 'I' for Inactive)
REMARK    1  A    between atoms: C_4  and  N_5 
REMARK    2  A    between atoms: C_6  and  S_7 
REMARK    3  A    between atoms: S_7  and  C_8 
REMARK    4  A    between atoms: C_8  and  C_9 
REMARK       I    between atoms: C_9  and  N_10 
REMARK    5  A    between atoms: N_10  and  C_11 
REMARK    6  A    between atoms: C_12  and  C_13 
REMARK       I    between atoms: C_13  and  N_14 
REMARK    7  A    between atoms: N_14  and  C_15 
REMARK    8  A    between atoms: C_26  and  C_27 
REMARK    9  A    between atoms: C_27  and  N_28 
ROOT
HETATM    1  S   UNL     1      -3.433   2.025 -31.095  1.00  0.00    -0.080 SA
ENDROOT
BRANCH   1   2
HETATM    2  C   UNL     1      -4.466   3.411 -31.114  1.00  0.00     0.196 C 
HETATM    3  N   UNL     1      -4.296   4.551 -31.883  1.00  0.00    -0.274 N 
HETATM    4  C   UNL     1      -5.473   5.255 -31.667  1.00  0.00     0.161 C 
HETATM    5  N   UNL     1      -6.141   4.724 -30.666  1.00  0.00    -0.132 NA
HETATM    6  N   UNL     1      -5.498   3.576 -30.316  1.00  0.00    -0.122 NA
BRANCH   3   7
HETATM    7  C   UNL     1      -3.212   4.982 -32.690  1.00  0.00     0.043 A 
HETATM    8  C   UNL     1      -3.163   4.718 -34.061  1.00  0.00     0.030 A 
HETATM    9  C   UNL     1      -2.065   5.147 -34.813  1.00  0.00     0.002 A 
HETATM   10  C   UNL     1      -1.013   5.828 -34.200  1.00  0.00     0.000 A 
HETATM   11  C   UNL     1      -1.054   6.089 -32.834  1.00  0.00     0.002 A 
HETATM   12  C   UNL     1      -2.150   5.671 -32.078  1.00  0.00     0.030 A 
ENDBRANCH   3   7
BRANCH   4  13
HETATM   13  C   UNL     1      -6.023   6.300 -32.567  1.00  0.00     0.315 C 
BRANCH  13  14
HETATM   14  N   UNL     1      -7.111   5.735 -33.454  1.00  0.00    -0.064 N 
HETATM   15  H   UNL     1      -7.078   6.305 -34.316  1.00  0.00     0.280 HD
HETATM   16  C   UNL     1      -8.526   5.908 -32.917  1.00  0.00     0.235 C 
HETATM   17  C   UNL     1      -9.008   4.487 -32.698  1.00  0.00     0.029 C 
HETATM   18  C   UNL     1      -8.327   3.712 -33.807  1.00  0.00     0.029 C 
HETATM   19  C   UNL     1      -6.923   4.283 -33.808  1.00  0.00     0.235 C 
ENDBRANCH  13  14
ENDBRANCH   4  13
ENDBRANCH   1   2
BRANCH   1  20
HETATM   20  C   UNL     1      -3.692   1.335 -32.748  1.00  0.00     0.185 C 
BRANCH  20  21
HETATM   21  C   UNL     1      -4.495   0.039 -32.719  1.00  0.00     0.231 C 
HETATM   22  N   UNL     1      -4.299  -0.752 -33.839  1.00  0.00    -0.326 N 
HETATM   23  H   UNL     1      -3.843  -0.308 -34.627  1.00  0.00     0.169 HD
HETATM   24  O   UNL     1      -5.299  -0.200 -31.822  1.00  0.00    -0.272 OA
BRANCH  22  25
HETATM   25  C   UNL     1      -4.942  -1.976 -34.116  1.00  0.00     0.050 A 
HETATM   26  C   UNL     1      -6.243  -2.140 -34.612  1.00  0.00     0.058 A 
HETATM   27  C   UNL     1      -6.723  -3.427 -34.918  1.00  0.00     0.019 A 
HETATM   28  C   UNL     1      -5.923  -4.551 -34.712  1.00  0.00     0.001 A 
HETATM   29  C   UNL     1      -4.655  -4.400 -34.162  1.00  0.00     0.002 A 
HETATM   30  C   UNL     1      -4.175  -3.125 -33.855  1.00  0.00     0.030 A 
BRANCH  26  31
HETATM   31  C   UNL     1      -7.275  -1.075 -34.631  1.00  0.00     0.254 C 
HETATM   32  N   UNL     1      -7.865  -0.846 -33.407  1.00  0.00    -0.352 N 
HETATM   33  H   UNL     1      -7.881  -1.641 -32.770  1.00  0.00     0.163 HD
HETATM   34  O   UNL     1      -7.457  -0.420 -35.654  1.00  0.00    -0.268 OA
BRANCH  32  35
HETATM   35  C   UNL     1      -8.761   0.229 -33.137  1.00  0.00     0.084 A 
HETATM   36  C   UNL     1     -10.214   0.023 -32.815  1.00  0.00     0.027 A 
HETATM   37  C   UNL     1      -9.265   0.448 -31.735  1.00  0.00     0.027 A 
ENDBRANCH  32  35
ENDBRANCH  26  31
ENDBRANCH  22  25
ENDBRANCH  20  21
ENDBRANCH   1  20
TORSDOF 9
ENDMDL
MODEL 3
REMARK VINA RESULT:      -8.5      2.607      8.233
REMARK  9 active torsions:
REMARK  status: ('A' for Active; 'I' for Inactive)
REMARK    1  A    between atoms: C_4  and  N_5 
REMARK    2  A    between atoms: C_6  and  S_7 
REMARK    3  A    between atoms: S_7  and  C_8 
REMARK    4  A    between atoms: C_8  and  C_9 
REMARK       I    between atoms: C_9  and  N_10 
REMARK    5  A    between atoms: N_10  and  C_11 
REMARK    6  A    between atoms: C_12  and  C_13 
REMARK       I    between atoms: C_13  and  N_14 
REMARK    7  A    between atoms: N_14  and  C_15 
REMARK    8  A    between atoms: C_26  and  C_27 
REMARK    9  A    between atoms: C_27  and  N_28 
ROOT
HETATM    1  S   UNL     1      -3.675   1.576 -31.027  1.00  0.00    -0.080 SA
ENDROOT
BRANCH   1   2
HETATM    2  C   UNL     1      -3.530   3.064 -31.895  1.00  0.00     0.196 C 
HETATM    3  N   UNL     1      -4.449   4.101 -31.906  1.00  0.00    -0.274 N 
HETATM    4  C   UNL     1      -3.780   5.108 -32.588  1.00  0.00     0.161 C 
HETATM    5  N   UNL     1      -2.697   4.626 -33.157  1.00  0.00    -0.132 NA
HETATM    6  N   UNL     1      -2.553   3.341 -32.729  1.00  0.00    -0.122 NA
BRANCH   3   7
HETATM    7  C   UNL     1      -5.773   4.183 -31.400  1.00  0.00     0.043 A 
HETATM    8  C   UNL     1      -6.887   3.996 -32.221  1.00  0.00     0.030 A 
HETATM    9  C   UNL     1      -8.173   4.106 -31.682  1.00  0.00     0.002 A 
HETATM   10  C   UNL     1      -8.349   4.411 -30.332  1.00  0.00     0.000 A 
HETATM   11  C   UNL     1      -7.241   4.604 -29.512  1.00  0.00     0.002 A 
HETATM   12  C   UNL     1      -5.955   4.489 -30.040  1.00  0.00     0.030 A 
ENDBRANCH   3   7
BRANCH   4  13
HETATM   13  C   UNL     1      -4.095   6.556 -32.501  1.00  0.00     0.315 C 
BRANCH  13  14
HETATM   14  N   UNL     1      -3.098   7.277 -31.620  1.00  0.00    -0.064 N 
HETATM   15  H   UNL     1      -3.627   8.058 -31.198  1.00  0.00     0.280 HD
HETATM   16  C   UNL     1      -1.945   7.935 -32.368  1.00  0.00     0.235 C 
HETATM   17  C   UNL     1      -0.718   7.197 -31.868  1.00  0.00     0.029 C 
HETATM   18  C   UNL     1      -1.069   6.871 -30.431  1.00  0.00     0.029 C 
HETATM   19  C   UNL     1      -2.513   6.421 -30.526  1.00  0.00     0.235 C 
ENDBRANCH  13  14
ENDBRANCH   4  13
ENDBRANCH   1   2
BRANCH   1  20
HETATM   20  C   UNL     1      -3.146   0.362 -32.261  1.00  0.00     0.185 C 
BRANCH  20  21
HETATM   21  C   UNL     1      -4.168  -0.751 -32.458  1.00  0.00     0.231 C 
HETATM   22  N   UNL     1      -4.004  -1.441 -33.648  1.00  0.00    -0.326 N 
HETATM   23  H   UNL     1      -3.396  -1.010 -34.335  1.00  0.00     0.169 HD
HETATM   24  O   UNL     1      -5.090  -0.926 -31.666  1.00  0.00    -0.272 OA
BRANCH  22  25
HETATM   25  C   UNL     1      -4.826  -2.482 -34.127  1.00  0.00     0.050 A 
HETATM   26  C   UNL     1      -6.090  -2.341 -34.719  1.00  0.00     0.058 A 
HETATM   27  C   UNL     1      -6.760  -3.471 -35.225  1.00  0.00     0.019 A 
HETATM   28  C   UNL     1      -6.189  -4.739 -35.123  1.00  0.00     0.001 A 
HETATM   29  C   UNL     1      -4.966  -4.894 -34.481  1.00  0.00     0.002 A 
HETATM   30  C   UNL     1      -4.298  -3.776 -33.976  1.00  0.00     0.030 A 
BRANCH  26  31
HETATM   31  C   UNL     1      -6.913  -1.110 -34.658  1.00  0.00     0.254 C 
HETATM   32  N   UNL     1      -7.616  -0.965 -33.482  1.00  0.00    -0.352 N 
HETATM   33  H   UNL     1      -7.853  -1.831 -33.001  1.00  0.00     0.163 HD
HETATM   34  O   UNL     1      -6.841  -0.282 -35.563  1.00  0.00    -0.268 OA
BRANCH  32  35
HETATM   35  C   UNL     1      -8.344   0.207 -33.122  1.00  0.00     0.084 A 
HETATM   36  C   UNL     1      -9.785   0.176 -32.697  1.00  0.00     0.027 A 
HETATM   37  C   UNL     1      -8.715   0.443 -31.682  1.00  0.00     0.027 A 
ENDBRANCH  32  35
ENDBRANCH  26  31
ENDBRANCH  22  25
ENDBRANCH  20  21
ENDBRANCH   1  20
TORSDOF 9
ENDMDL
MODEL 4
REMARK VINA RESULT:      -8.4      2.462      4.999
REMARK  9 active torsions:
REMARK  status: ('A' for Active; 'I' for Inactive)
REMARK    1  A    between atoms: C_4  and  N_5 
REMARK    2  A    between atoms: C_6  and  S_7 
REMARK    3  A    between atoms: S_7  and  C_8 
REMARK    4  A    between atoms: C_8  and  C_9 
REMARK       I    between atoms: C_9  and  N_10 
REMARK    5  A    between atoms: N_10  and  C_11 
REMARK    6  A    between atoms: C_12  and  C_13 
REMARK       I    between atoms: C_13  and  N_14 
REMARK    7  A    between atoms: N_14  and  C_15 
REMARK    8  A    between atoms: C_26  and  C_27 
REMARK    9  A    between atoms: C_27  and  N_28 
ROOT
HETATM    1  S   UNL     1      -4.484   3.861 -33.478  1.00  0.00    -0.080 SA
ENDROOT
BRANCH   1   2
HETATM    2  C   UNL     1      -6.178   4.046 -33.767  1.00  0.00     0.196 C 
HETATM    3  N   UNL     1      -7.119   3.030 -33.812  1.00  0.00    -0.274 N 
HETATM    4  C   UNL     1      -8.323   3.718 -33.885  1.00  0.00     0.161 C 
HETATM    5  N   UNL     1      -8.102   4.989 -34.136  1.00  0.00    -0.132 NA
HETATM    6  N   UNL     1      -6.756   5.186 -34.074  1.00  0.00    -0.122 NA
BRANCH   3   7
HETATM    7  C   UNL     1      -6.973   1.618 -33.819  1.00  0.00     0.043 A 
HETATM    8  C   UNL     1      -6.682   0.902 -32.656  1.00  0.00     0.030 A 
HETATM    9  C   UNL     1      -6.528  -0.487 -32.716  1.00  0.00     0.002 A 
HETATM   10  C   UNL     1      -6.654  -1.160 -33.931  1.00  0.00     0.000 A 
HETATM   11  C   UNL     1      -6.938  -0.449 -35.094  1.00  0.00     0.002 A 
HETATM   12  C   UNL     1      -7.100   0.935 -35.042  1.00  0.00     0.030 A 
ENDBRANCH   3   7
BRANCH   4  13
HETATM   13  C   UNL     1      -9.648   3.167 -33.506  1.00  0.00     0.315 C 
BRANCH  13  14
HETATM   14  N   UNL     1     -10.388   2.649 -34.720  1.00  0.00    -0.064 N 
HETATM   15  H   UNL     1      -9.649   2.396 -35.398  1.00  0.00     0.280 HD
HETATM   16  C   UNL     1     -11.247   3.685 -35.434  1.00  0.00     0.235 C 
HETATM   17  C   UNL     1     -12.660   3.155 -35.279  1.00  0.00     0.029 C 
HETATM   18  C   UNL     1     -12.474   1.652 -35.312  1.00  0.00     0.029 C 
HETATM   19  C   UNL     1     -11.248   1.442 -34.447  1.00  0.00     0.235 C 
ENDBRANCH  13  14
ENDBRANCH   4  13
ENDBRANCH   1   2
BRANCH   1  20
HETATM   20  C   UNL     1      -3.775   5.156 -34.526  1.00  0.00     0.185 C 
BRANCH  20  21
HETATM   21  C   UNL     1      -2.796   6.046 -33.770  1.00  0.00     0.231 C 
HETATM   22  N   UNL     1      -2.409   5.519 -32.549  1.00  0.00    -0.326 N 
HETATM   23  H   UNL     1      -2.963   4.746 -32.198  1.00  0.00     0.169 HD
HETATM   24  O   UNL     1      -2.480   7.156 -34.188  1.00  0.00    -0.272 OA
BRANCH  22  25
HETATM   25  C   UNL     1      -1.557   6.136 -31.608  1.00  0.00     0.050 A 
HETATM   26  C   UNL     1      -1.933   6.666 -30.366  1.00  0.00     0.058 A 
HETATM   27  C   UNL     1      -0.954   7.180 -29.495  1.00  0.00     0.019 A 
HETATM   28  C   UNL     1       0.390   7.189 -29.864  1.00  0.00     0.001 A 
HETATM   29  C   UNL     1       0.761   6.723 -31.120  1.00  0.00     0.002 A 
HETATM   30  C   UNL     1      -0.206   6.213 -31.989  1.00  0.00     0.030 A 
BRANCH  26  31
HETATM   31  C   UNL     1      -3.331   6.952 -29.963  1.00  0.00     0.254 C 
HETATM   32  N   UNL     1      -3.666   6.463 -28.719  1.00  0.00    -0.352 N 
HETATM   33  H   UNL     1      -3.142   5.645 -28.412  1.00  0.00     0.163 HD
HETATM   34  O   UNL     1      -4.038   7.663 -30.674  1.00  0.00    -0.268 OA
BRANCH  32  35
HETATM   35  C   UNL     1      -4.891   6.749 -28.048  1.00  0.00     0.084 A 
HETATM   36  C   UNL     1      -6.174   6.028 -28.345  1.00  0.00     0.027 A 
HETATM   37  C   UNL     1      -5.450   5.760 -27.060  1.00  0.00     0.027 A 
ENDBRANCH  32  35
ENDBRANCH  26  31
ENDBRANCH  22  25
ENDBRANCH  20  21
ENDBRANCH   1  20
TORSDOF 9
ENDMDL
MODEL 5
REMARK VINA RESULT:      -8.4      2.600      9.126
REMARK  9 active torsions:
REMARK  status: ('A' for Active; 'I' for Inactive)
REMARK    1  A    between atoms: C_4  and  N_5 
REMARK    2  A    between atoms: C_6  and  S_7 
REMARK    3  A    between atoms: S_7  and  C_8 
REMARK    4  A    between atoms: C_8  and  C_9 
REMARK       I    between atoms: C_9  and  N_10 
REMARK    5  A    between atoms: N_10  and  C_11 
REMARK    6  A    between atoms: C_12  and  C_13 
REMARK       I    between atoms: C_13  and  N_14 
REMARK    7  A    between atoms: N_14  and  C_15 
REMARK    8  A    between atoms: C_26  and  C_27 
REMARK    9  A    between atoms: C_27  and  N_28 
ROOT
HETATM    1  S   UNL     1      -4.668   2.743 -32.782  1.00  0.00    -0.080 SA
ENDROOT
BRANCH   1   2
HETATM    2  C   UNL     1      -4.850   3.659 -31.328  1.00  0.00     0.196 C 
HETATM    3  N   UNL     1      -4.178   4.827 -31.004  1.00  0.00    -0.274 N 
HETATM    4  C   UNL     1      -4.814   5.243 -29.842  1.00  0.00     0.161 C 
HETATM    5  N   UNL     1      -5.585   4.284 -29.379  1.00  0.00    -0.132 NA
HETATM    6  N   UNL     1      -5.594   3.289 -30.308  1.00  0.00    -0.122 NA
BRANCH   3   7
HETATM    7  C   UNL     1      -3.086   5.482 -31.629  1.00  0.00     0.043 A 
HETATM    8  C   UNL     1      -3.277   6.485 -32.582  1.00  0.00     0.030 A 
HETATM    9  C   UNL     1      -2.170   7.090 -33.185  1.00  0.00     0.002 A 
HETATM   10  C   UNL     1      -0.876   6.691 -32.848  1.00  0.00     0.000 A 
HETATM   11  C   UNL     1      -0.681   5.688 -31.903  1.00  0.00     0.002 A 
HETATM   12  C   UNL     1      -1.780   5.085 -31.291  1.00  0.00     0.030 A 
ENDBRANCH   3   7
BRANCH   4  13
HETATM   13  C   UNL     1      -4.817   6.633 -29.319  1.00  0.00     0.315 C 
BRANCH  13  14
HETATM   14  N   UNL     1      -3.676   6.851 -28.349  1.00  0.00    -0.064 N 
HETATM   15  H   UNL     1      -3.189   5.940 -28.297  1.00  0.00     0.280 HD
HETATM   16  C   UNL     1      -4.104   7.155 -26.919  1.00  0.00     0.235 C 
HETATM   17  C   UNL     1      -3.586   8.560 -26.676  1.00  0.00     0.029 C 
HETATM   18  C   UNL     1      -2.308   8.607 -27.488  1.00  0.00     0.029 C 
HETATM   19  C   UNL     1      -2.699   7.915 -28.778  1.00  0.00     0.235 C 
ENDBRANCH  13  14
ENDBRANCH   4  13
ENDBRANCH   1   2
BRANCH   1  20
HETATM   20  C   UNL     1      -3.743   1.296 -32.208  1.00  0.00     0.185 C 
BRANCH  20  21
HETATM   21  C   UNL     1      -4.532   0.001 -32.363  1.00  0.00     0.231 C 
HETATM   22  N   UNL     1      -4.190  -0.715 -33.498  1.00  0.00    -0.326 N 
HETATM   23  H   UNL     1      -3.643  -0.220 -34.192  1.00  0.00     0.169 HD
HETATM   24  O   UNL     1      -5.440  -0.296 -31.591  1.00  0.00    -0.272 OA
BRANCH  22  25
HETATM   25  C   UNL     1      -4.784  -1.919 -33.932  1.00  0.00     0.050 A 
HETATM   26  C   UNL     1      -6.015  -2.051 -34.590  1.00  0.00     0.058 A 
HETATM   27  C   UNL     1      -6.441  -3.316 -35.037  1.00  0.00     0.019 A 
HETATM   28  C   UNL     1      -5.660  -4.449 -34.813  1.00  0.00     0.001 A 
HETATM   29  C   UNL     1      -4.469  -4.334 -34.106  1.00  0.00     0.002 A 
HETATM   30  C   UNL     1      -4.042  -3.082 -33.658  1.00  0.00     0.030 A 
BRANCH  26  31
HETATM   31  C   UNL     1      -7.047  -0.990 -34.662  1.00  0.00     0.254 C 
HETATM   32  N   UNL     1      -7.851  -0.915 -33.545  1.00  0.00    -0.352 N 
HETATM   33  H   UNL     1      -7.964  -1.784 -33.025  1.00  0.00     0.163 HD
HETATM   34  O   UNL     1      -7.057  -0.210 -35.611  1.00  0.00    -0.268 OA
BRANCH  32  35
HETATM   35  C   UNL     1      -8.802   0.121 -33.309  1.00  0.00     0.084 A 
HETATM   36  C   UNL     1     -10.163  -0.136 -32.726  1.00  0.00     0.027 A 
HETATM   37  C   UNL     1      -9.113   0.541 -31.896  1.00  0.00     0.027 A 
ENDBRANCH  32  35
ENDBRANCH  26  31
ENDBRANCH  22  25
ENDBRANCH  20  21
ENDBRANCH   1  20
TORSDOF 9
ENDMDL
MODEL 6
REMARK VINA RESULT:      -8.3      1.567      3.030
REMARK  9 active torsions:
REMARK  status: ('A' for Active; 'I' for Inactive)
REMARK    1  A    between atoms: C_4  and  N_5 
REMARK    2  A    between atoms: C_6  and  S_7 
REMARK    3  A    between atoms: S_7  and  C_8 
REMARK    4  A    between atoms: C_8  and  C_9 
REMARK       I    between atoms: C_9  and  N_10 
REMARK    5  A    between atoms: N_10  and  C_11 
REMARK    6  A    between atoms: C_12  and  C_13 
REMARK       I    between atoms: C_13  and  N_14 
REMARK    7  A    between atoms: N_14  and  C_15 
REMARK    8  A    between atoms: C_26  and  C_27 
REMARK    9  A    between atoms: C_27  and  N_28 
ROOT
HETATM    1  S   UNL     1      -5.891   4.065 -29.489  1.00  0.00    -0.080 SA
ENDROOT
BRANCH   1   2
HETATM    2  C   UNL     1      -7.078   3.225 -30.423  1.00  0.00     0.196 C 
HETATM    3  N   UNL     1      -6.887   2.042 -31.120  1.00  0.00    -0.274 N 
HETATM    4  C   UNL     1      -8.171   1.708 -31.530  1.00  0.00     0.161 C 
HETATM    5  N   UNL     1      -8.986   2.722 -31.337  1.00  0.00    -0.132 NA
HETATM    6  N   UNL     1      -8.292   3.674 -30.654  1.00  0.00    -0.122 NA
BRANCH   3   7
HETATM    7  C   UNL     1      -5.709   1.309 -31.414  1.00  0.00     0.043 A 
HETATM    8  C   UNL     1      -5.424   0.092 -30.792  1.00  0.00     0.030 A 
HETATM    9  C   UNL     1      -4.241  -0.586 -31.100  1.00  0.00     0.002 A 
HETATM   10  C   UNL     1      -3.338  -0.050 -32.018  1.00  0.00     0.000 A 
HETATM   11  C   UNL     1      -3.615   1.166 -32.637  1.00  0.00     0.002 A 
HETATM   12  C   UNL     1      -4.797   1.845 -32.341  1.00  0.00     0.030 A 
ENDBRANCH   3   7
BRANCH   4  13
HETATM   13  C   UNL     1      -8.621   0.345 -31.908  1.00  0.00     0.315 C 
BRANCH  13  14
HETATM   14  N   UNL     1      -8.496   0.127 -33.401  1.00  0.00    -0.064 N 
HETATM   15  H   UNL     1      -9.446  -0.132 -33.715  1.00  0.00     0.280 HD
HETATM   16  C   UNL     1      -7.609  -1.045 -33.802  1.00  0.00     0.235 C 
HETATM   17  C   UNL     1      -6.468  -0.394 -34.560  1.00  0.00     0.029 C 
HETATM   18  C   UNL     1      -7.130   0.785 -35.244  1.00  0.00     0.029 C 
HETATM   19  C   UNL     1      -8.033   1.342 -34.162  1.00  0.00     0.235 C 
ENDBRANCH  13  14
ENDBRANCH   4  13
ENDBRANCH   1   2
BRANCH   1  20
HETATM   20  C   UNL     1      -6.131   5.779 -30.022  1.00  0.00     0.185 C 
BRANCH  20  21
HETATM   21  C   UNL     1      -5.143   6.194 -31.107  1.00  0.00     0.231 C 
HETATM   22  N   UNL     1      -4.560   5.118 -31.757  1.00  0.00    -0.326 N 
HETATM   23  H   UNL     1      -4.672   4.214 -31.314  1.00  0.00     0.169 HD
HETATM   24  O   UNL     1      -4.846   7.371 -31.291  1.00  0.00    -0.272 OA
BRANCH  22  25
HETATM   25  C   UNL     1      -3.575   5.189 -32.764  1.00  0.00     0.050 A 
HETATM   26  C   UNL     1      -2.186   5.161 -32.573  1.00  0.00     0.058 A 
HETATM   27  C   UNL     1      -1.323   5.157 -33.685  1.00  0.00     0.019 A 
HETATM   28  C   UNL     1      -1.835   5.205 -34.982  1.00  0.00     0.001 A 
HETATM   29  C   UNL     1      -3.209   5.296 -35.175  1.00  0.00     0.002 A 
HETATM   30  C   UNL     1      -4.069   5.302 -34.075  1.00  0.00     0.030 A 
BRANCH  26  31
HETATM   31  C   UNL     1      -1.513   5.369 -31.269  1.00  0.00     0.254 C 
HETATM   32  N   UNL     1      -1.718   6.619 -30.728  1.00  0.00    -0.352 N 
HETATM   33  H   UNL     1      -1.904   7.365 -31.397  1.00  0.00     0.163 HD
HETATM   34  O   UNL     1      -0.932   4.433 -30.725  1.00  0.00    -0.268 OA
BRANCH  32  35
HETATM   35  C   UNL     1      -1.313   7.002 -29.415  1.00  0.00     0.084 A 
HETATM   36  C   UNL     1       0.078   7.468 -29.091  1.00  0.00     0.027 A 
HETATM   37  C   UNL     1      -1.053   8.453 -29.106  1.00  0.00     0.027 A 
ENDBRANCH  32  35
ENDBRANCH  26  31
ENDBRANCH  22  25
ENDBRANCH  20  21
ENDBRANCH   1  20
TORSDOF 9
ENDMDL
MODEL 7
REMARK VINA RESULT:      -8.3      2.500      8.806
REMARK  9 active torsions:
REMARK  status: ('A' for Active; 'I' for Inactive)
REMARK    1  A    between atoms: C_4  and  N_5 
REMARK    2  A    between atoms: C_6  and  S_7 
REMARK    3  A    between atoms: S_7  and  C_8 
REMARK    4  A    between atoms: C_8  and  C_9 
REMARK       I    between atoms: C_9  and  N_10 
REMARK    5  A    between atoms: N_10  and  C_11 
REMARK    6  A    between atoms: C_12  and  C_13 
REMARK       I    between atoms: C_13  and  N_14 
REMARK    7  A    between atoms: N_14  and  C_15 
REMARK    8  A    between atoms: C_26  and  C_27 
REMARK    9  A    between atoms: C_27  and  N_28 
ROOT
HETATM    1  S   UNL     1      -4.450   2.383 -31.364  1.00  0.00    -0.080 SA
ENDROOT
BRANCH   1   2
HETATM    2  C   UNL     1      -3.363   3.706 -31.596  1.00  0.00     0.196 C 
HETATM    3  N   UNL     1      -3.573   5.019 -31.207  1.00  0.00    -0.274 N 
HETATM    4  C   UNL     1      -2.346   5.621 -31.452  1.00  0.00     0.161 C 
HETATM    5  N   UNL     1      -1.585   4.821 -32.166  1.00  0.00    -0.132 NA
HETATM    6  N   UNL     1      -2.232   3.627 -32.263  1.00  0.00    -0.122 NA
BRANCH   3   7
HETATM    7  C   UNL     1      -4.728   5.673 -30.705  1.00  0.00     0.043 A 
HETATM    8  C   UNL     1      -5.095   5.591 -29.360  1.00  0.00     0.030 A 
HETATM    9  C   UNL     1      -6.252   6.237 -28.914  1.00  0.00     0.002 A 
HETATM   10  C   UNL     1      -7.048   6.955 -29.807  1.00  0.00     0.000 A 
HETATM   11  C   UNL     1      -6.689   7.036 -31.150  1.00  0.00     0.002 A 
HETATM   12  C   UNL     1      -5.532   6.400 -31.601  1.00  0.00     0.030 A 
ENDBRANCH   3   7
BRANCH   4  13
HETATM   13  C   UNL     1      -1.864   6.873 -30.817  1.00  0.00     0.315 C 
BRANCH  13  14
HETATM   14  N   UNL     1      -1.329   6.605 -29.426  1.00  0.00    -0.064 N 
HETATM   15  H   UNL     1      -2.107   6.150 -28.922  1.00  0.00     0.280 HD
HETATM   16  C   UNL     1      -1.004   7.854 -28.616  1.00  0.00     0.235 C 
HETATM   17  C   UNL     1       0.494   7.765 -28.395  1.00  0.00     0.029 C 
HETATM   18  C   UNL     1       0.743   6.274 -28.289  1.00  0.00     0.029 C 
HETATM   19  C   UNL     1      -0.120   5.705 -29.396  1.00  0.00     0.235 C 
ENDBRANCH  13  14
ENDBRANCH   4  13
ENDBRANCH   1   2
BRANCH   1  20
HETATM   20  C   UNL     1      -3.525   1.001 -32.080  1.00  0.00     0.185 C 
BRANCH  20  21
HETATM   21  C   UNL     1      -4.392  -0.236 -32.283  1.00  0.00     0.231 C 
HETATM   22  N   UNL     1      -4.145  -0.888 -33.480  1.00  0.00    -0.326 N 
HETATM   23  H   UNL     1      -3.603  -0.375 -34.166  1.00  0.00     0.169 HD
HETATM   24  O   UNL     1      -5.279  -0.539 -31.488  1.00  0.00    -0.272 OA
BRANCH  22  25
HETATM   25  C   UNL     1      -4.824  -2.025 -33.964  1.00  0.00     0.050 A 
HETATM   26  C   UNL     1      -6.077  -2.042 -34.595  1.00  0.00     0.058 A 
HETATM   27  C   UNL     1      -6.594  -3.249 -35.101  1.00  0.00     0.019 A 
HETATM   28  C   UNL     1      -5.883  -4.440 -34.961  1.00  0.00     0.001 A 
HETATM   29  C   UNL     1      -4.670  -4.441 -34.281  1.00  0.00     0.002 A 
HETATM   30  C   UNL     1      -4.153  -3.246 -33.776  1.00  0.00     0.030 A 
BRANCH  26  31
HETATM   31  C   UNL     1      -7.039  -0.915 -34.580  1.00  0.00     0.254 C 
HETATM   32  N   UNL     1      -7.756  -0.808 -33.408  1.00  0.00    -0.352 N 
HETATM   33  H   UNL     1      -7.890  -1.677 -32.893  1.00  0.00     0.163 HD
HETATM   34  O   UNL     1      -7.065  -0.120 -35.516  1.00  0.00    -0.268 OA
BRANCH  32  35
HETATM   35  C   UNL     1      -8.619   0.282 -33.091  1.00  0.00     0.084 A 
HETATM   36  C   UNL     1      -9.693   0.772 -34.020  1.00  0.00     0.027 A 
HETATM   37  C   UNL     1     -10.069   0.021 -32.778  1.00  0.00     0.027 A 
ENDBRANCH  32  35
ENDBRANCH  26  31
ENDBRANCH  22  25
ENDBRANCH  20  21
ENDBRANCH   1  20
TORSDOF 9
ENDMDL
MODEL 8
REMARK VINA RESULT:      -8.3      1.867      4.019
REMARK  9 active torsions:
REMARK  status: ('A' for Active; 'I' for Inactive)
REMARK    1  A    between atoms: C_4  and  N_5 
REMARK    2  A    between atoms: C_6  and  S_7 
REMARK    3  A    between atoms: S_7  and  C_8 
REMARK    4  A    between atoms: C_8  and  C_9 
REMARK       I    between atoms: C_9  and  N_10 
REMARK    5  A    between atoms: N_10  and  C_11 
REMARK    6  A    between atoms: C_12  and  C_13 
REMARK       I    between atoms: C_13  and  N_14 
REMARK    7  A    between atoms: N_14  and  C_15 
REMARK    8  A    between atoms: C_26  and  C_27 
REMARK    9  A    between atoms: C_27  and  N_28 
ROOT
HETATM    1  S   UNL     1      -5.795   1.954 -30.556  1.00  0.00    -0.080 SA
ENDROOT
BRANCH   1   2
HETATM    2  C   UNL     1      -7.422   2.164 -31.100  1.00  0.00     0.196 C 
HETATM    3  N   UNL     1      -8.029   1.498 -32.153  1.00  0.00    -0.274 N 
HETATM    4  C   UNL     1      -9.357   1.888 -32.049  1.00  0.00     0.161 C 
HETATM    5  N   UNL     1      -9.469   2.890 -31.204  1.00  0.00    -0.132 NA
HETATM    6  N   UNL     1      -8.252   3.066 -30.622  1.00  0.00    -0.122 NA
BRANCH   3   7
HETATM    7  C   UNL     1      -7.495   0.641 -33.150  1.00  0.00     0.043 A 
HETATM    8  C   UNL     1      -7.522   0.980 -34.504  1.00  0.00     0.030 A 
HETATM    9  C   UNL     1      -7.000   0.095 -35.453  1.00  0.00     0.002 A 
HETATM   10  C   UNL     1      -6.462  -1.129 -35.056  1.00  0.00     0.000 A 
HETATM   11  C   UNL     1      -6.438  -1.474 -33.707  1.00  0.00     0.002 A 
HETATM   12  C   UNL     1      -6.949  -0.594 -32.754  1.00  0.00     0.030 A 
ENDBRANCH   3   7
BRANCH   4  13
HETATM   13  C   UNL     1     -10.513   1.149 -32.616  1.00  0.00     0.315 C 
BRANCH  13  14
HETATM   14  N   UNL     1     -11.535   2.102 -33.197  1.00  0.00    -0.064 N 
HETATM   15  H   UNL     1     -11.668   2.828 -32.474  1.00  0.00     0.280 HD
HETATM   16  C   UNL     1     -12.917   1.500 -33.415  1.00  0.00     0.235 C 
HETATM   17  C   UNL     1     -13.109   1.565 -34.919  1.00  0.00     0.029 C 
HETATM   18  C   UNL     1     -12.373   2.830 -35.310  1.00  0.00     0.029 C 
HETATM   19  C   UNL     1     -11.104   2.754 -34.486  1.00  0.00     0.235 C 
ENDBRANCH  13  14
ENDBRANCH   4  13
ENDBRANCH   1   2
BRANCH   1  20
HETATM   20  C   UNL     1      -5.414   3.581 -29.859  1.00  0.00     0.185 C 
BRANCH  20  21
HETATM   21  C   UNL     1      -4.840   4.538 -30.897  1.00  0.00     0.231 C 
HETATM   22  N   UNL     1      -3.478   4.379 -31.094  1.00  0.00    -0.326 N 
HETATM   23  H   UNL     1      -2.986   3.828 -30.401  1.00  0.00     0.169 HD
HETATM   24  O   UNL     1      -5.527   5.414 -31.415  1.00  0.00    -0.272 OA
BRANCH  22  25
HETATM   25  C   UNL     1      -2.665   5.153 -31.949  1.00  0.00     0.050 A 
HETATM   26  C   UNL     1      -1.762   6.152 -31.560  1.00  0.00     0.058 A 
HETATM   27  C   UNL     1      -0.955   6.786 -32.524  1.00  0.00     0.019 A 
HETATM   28  C   UNL     1      -1.060   6.445 -33.872  1.00  0.00     0.001 A 
HETATM   29  C   UNL     1      -1.997   5.500 -34.271  1.00  0.00     0.002 A 
HETATM   30  C   UNL     1      -2.801   4.869 -33.319  1.00  0.00     0.030 A 
BRANCH  26  31
HETATM   31  C   UNL     1      -1.736   6.785 -30.220  1.00  0.00     0.254 C 
HETATM   32  N   UNL     1      -0.504   7.290 -29.864  1.00  0.00    -0.352 N 
HETATM   33  H   UNL     1       0.300   6.834 -30.293  1.00  0.00     0.163 HD
HETATM   34  O   UNL     1      -2.780   6.913 -29.584  1.00  0.00    -0.268 OA
BRANCH  32  35
HETATM   35  C   UNL     1      -0.267   8.083 -28.702  1.00  0.00     0.084 A 
HETATM   36  C   UNL     1       0.035   7.490 -27.356  1.00  0.00     0.027 A 
HETATM   37  C   UNL     1       1.123   8.172 -28.130  1.00  0.00     0.027 A 
ENDBRANCH  32  35
ENDBRANCH  26  31
ENDBRANCH  22  25
ENDBRANCH  20  21
ENDBRANCH   1  20
TORSDOF 9
ENDMDL
MODEL 9
REMARK VINA RESULT:      -8.2      2.301      9.354
REMARK  9 active torsions:
REMARK  status: ('A' for Active; 'I' for Inactive)
REMARK    1  A    between atoms: C_4  and  N_5 
REMARK    2  A    between atoms: C_6  and  S_7 
REMARK    3  A    between atoms: S_7  and  C_8 
REMARK    4  A    between atoms: C_8  and  C_9 
REMARK       I    between atoms: C_9  and  N_10 
REMARK    5  A    between atoms: N_10  and  C_11 
REMARK    6  A    between atoms: C_12  and  C_13 
REMARK       I    between atoms: C_13  and  N_14 
REMARK    7  A    between atoms: N_14  and  C_15 
REMARK    8  A    between atoms: C_26  and  C_27 
REMARK    9  A    between atoms: C_27  and  N_28 
ROOT
HETATM    1  S   UNL     1      -5.852   5.414 -30.976  1.00  0.00    -0.080 SA
ENDROOT
BRANCH   1   2
HETATM    2  C   UNL     1      -4.727   6.151 -29.890  1.00  0.00     0.196 C 
HETATM    3  N   UNL     1      -3.453   6.597 -30.206  1.00  0.00    -0.274 N 
HETATM    4  C   UNL     1      -3.057   7.259 -29.051  1.00  0.00     0.161 C 
HETATM    5  N   UNL     1      -3.890   6.993 -28.069  1.00  0.00    -0.132 NA
HETATM    6  N   UNL     1      -4.927   6.288 -28.598  1.00  0.00    -0.122 NA
BRANCH   3   7
HETATM    7  C   UNL     1      -2.668   6.435 -31.376  1.00  0.00     0.043 A 
HETATM    8  C   UNL     1      -1.892   5.293 -31.589  1.00  0.00     0.030 A 
HETATM    9  C   UNL     1      -1.118   5.185 -32.749  1.00  0.00     0.002 A 
HETATM   10  C   UNL     1      -1.109   6.215 -33.690  1.00  0.00     0.000 A 
HETATM   11  C   UNL     1      -1.877   7.357 -33.479  1.00  0.00     0.002 A 
HETATM   12  C   UNL     1      -2.657   7.469 -32.328  1.00  0.00     0.030 A 
ENDBRANCH   3   7
BRANCH   4  13
HETATM   13  C   UNL     1      -1.997   8.296 -28.980  1.00  0.00     0.315 C 
BRANCH  13  14
HETATM   14  N   UNL     1      -1.034   8.012 -27.848  1.00  0.00    -0.064 N 
HETATM   15  H   UNL     1      -1.620   7.983 -26.997  1.00  0.00     0.280 HD
HETATM   16  C   UNL     1      -0.011   9.111 -27.590  1.00  0.00     0.235 C 
HETATM   17  C   UNL     1       1.320   8.446 -27.888  1.00  0.00     0.029 C 
HETATM   18  C   UNL     1       1.097   7.011 -27.458  1.00  0.00     0.029 C 
HETATM   19  C   UNL     1      -0.291   6.709 -27.986  1.00  0.00     0.235 C 
ENDBRANCH  13  14
ENDBRANCH   4  13
ENDBRANCH   1   2
BRANCH   1  20
HETATM   20  C   UNL     1      -5.546   3.651 -30.701  1.00  0.00     0.185 C 
BRANCH  20  21
HETATM   21  C   UNL     1      -5.539   2.852 -32.000  1.00  0.00     0.231 C 
HETATM   22  N   UNL     1      -6.527   1.882 -32.051  1.00  0.00    -0.326 N 
HETATM   23  H   UNL     1      -6.983   1.661 -31.174  1.00  0.00     0.169 HD
HETATM   24  O   UNL     1      -4.669   3.015 -32.851  1.00  0.00    -0.272 OA
BRANCH  22  25
HETATM   25  C   UNL     1      -6.733   0.958 -33.097  1.00  0.00     0.050 A 
HETATM   26  C   UNL     1      -7.661   1.075 -34.141  1.00  0.00     0.058 A 
HETATM   27  C   UNL     1      -7.695   0.109 -35.164  1.00  0.00     0.019 A 
HETATM   28  C   UNL     1      -6.828  -0.983 -35.138  1.00  0.00     0.001 A 
HETATM   29  C   UNL     1      -5.949  -1.138 -34.072  1.00  0.00     0.002 A 
HETATM   30  C   UNL     1      -5.912  -0.182 -33.054  1.00  0.00     0.030 A 
BRANCH  26  31
HETATM   31  C   UNL     1      -8.796   2.028 -34.153  1.00  0.00     0.254 C 
HETATM   32  N   UNL     1     -10.003   1.455 -34.489  1.00  0.00    -0.352 N 
HETATM   33  H   UNL     1      -9.948   0.629 -35.083  1.00  0.00     0.163 HD
HETATM   34  O   UNL     1      -8.626   3.186 -33.778  1.00  0.00    -0.268 OA
BRANCH  32  35
HETATM   35  C   UNL     1     -11.259   2.126 -34.412  1.00  0.00     0.084 A 
HETATM   36  C   UNL     1     -11.754   3.062 -35.477  1.00  0.00     0.027 A 
HETATM   37  C   UNL     1     -12.385   1.711 -35.321  1.00  0.00     0.027 A 
ENDBRANCH  32  35
ENDBRANCH  26  31
ENDBRANCH  22  25
ENDBRANCH  20  21
ENDBRANCH   1  20
TORSDOF 9
ENDMDL
MODEL 10
REMARK VINA RESULT:      -8.2      1.914      3.458
REMARK  9 active torsions:
REMARK  status: ('A' for Active; 'I' for Inactive)
REMARK    1  A    between atoms: C_4  and  N_5 
REMARK    2  A    between atoms: C_6  and  S_7 
REMARK    3  A    between atoms: S_7  and  C_8 
REMARK    4  A    between atoms: C_8  and  C_9 
REMARK       I    between atoms: C_9  and  N_10 
REMARK    5  A    between atoms: N_10  and  C_11 
REMARK    6  A    between atoms: C_12  and  C_13 
REMARK       I    between atoms: C_13  and  N_14 
REMARK    7  A    between atoms: N_14  and  C_15 
REMARK    8  A    between atoms: C_26  and  C_27 
REMARK    9  A    between atoms: C_27  and  N_28 
ROOT
HETATM    1  S   UNL     1      -5.264   4.793 -33.778  1.00  0.00    -0.080 SA
ENDROOT
BRANCH   1   2
HETATM    2  C   UNL     1      -4.993   3.244 -33.061  1.00  0.00     0.196 C 
HETATM    3  N   UNL     1      -5.958   2.291 -32.777  1.00  0.00    -0.274 N 
HETATM    4  C   UNL     1      -5.207   1.187 -32.395  1.00  0.00     0.161 C 
HETATM    5  N   UNL     1      -3.953   1.537 -32.205  1.00  0.00    -0.132 NA
HETATM    6  N   UNL     1      -3.829   2.830 -32.612  1.00  0.00    -0.122 NA
BRANCH   3   7
HETATM    7  C   UNL     1      -7.375   2.354 -32.811  1.00  0.00     0.043 A 
HETATM    8  C   UNL     1      -8.090   2.197 -34.001  1.00  0.00     0.030 A 
HETATM    9  C   UNL     1      -9.486   2.286 -33.989  1.00  0.00     0.002 A 
HETATM   10  C   UNL     1     -10.167   2.540 -32.798  1.00  0.00     0.000 A 
HETATM   11  C   UNL     1      -9.458   2.702 -31.611  1.00  0.00     0.002 A 
HETATM   12  C   UNL     1      -8.066   2.607 -31.613  1.00  0.00     0.030 A 
ENDBRANCH   3   7
BRANCH   4  13
HETATM   13  C   UNL     1      -5.679  -0.220 -32.421  1.00  0.00     0.315 C 
BRANCH  13  14
HETATM   14  N   UNL     1      -5.484  -0.833 -33.790  1.00  0.00    -0.064 N 
HETATM   15  H   UNL     1      -5.069  -0.081 -34.365  1.00  0.00     0.280 HD
HETATM   16  C   UNL     1      -6.772  -1.218 -34.506  1.00  0.00     0.235 C 
HETATM   17  C   UNL     1      -6.675  -2.725 -34.645  1.00  0.00     0.029 C 
HETATM   18  C   UNL     1      -5.190  -2.965 -34.823  1.00  0.00     0.029 C 
HETATM   19  C   UNL     1      -4.570  -2.032 -33.803  1.00  0.00     0.235 C 
ENDBRANCH  13  14
ENDBRANCH   4  13
ENDBRANCH   1   2
BRANCH   1  20
HETATM   20  C   UNL     1      -3.700   5.093 -34.639  1.00  0.00     0.185 C 
BRANCH  20  21
HETATM   21  C   UNL     1      -2.768   6.006 -33.851  1.00  0.00     0.231 C 
HETATM   22  N   UNL     1      -2.368   5.465 -32.640  1.00  0.00    -0.326 N 
HETATM   23  H   UNL     1      -2.890   4.660 -32.314  1.00  0.00     0.169 HD
HETATM   24  O   UNL     1      -2.498   7.140 -34.238  1.00  0.00    -0.272 OA
BRANCH  22  25
HETATM   25  C   UNL     1      -1.553   6.095 -31.676  1.00  0.00     0.050 A 
HETATM   26  C   UNL     1      -1.965   6.588 -30.430  1.00  0.00     0.058 A 
HETATM   27  C   UNL     1      -1.018   7.120 -29.535  1.00  0.00     0.019 A 
HETATM   28  C   UNL     1       0.331   7.185 -29.884  1.00  0.00     0.001 A 
HETATM   29  C   UNL     1       0.736   6.755 -31.143  1.00  0.00     0.002 A 
HETATM   30  C   UNL     1      -0.200   6.228 -32.035  1.00  0.00     0.030 A 
BRANCH  26  31
HETATM   31  C   UNL     1      -3.378   6.817 -30.043  1.00  0.00     0.254 C 
HETATM   32  N   UNL     1      -3.663   6.471 -28.740  1.00  0.00    -0.352 N 
HETATM   33  H   UNL     1      -3.075   5.743 -28.338  1.00  0.00     0.163 HD
HETATM   34  O   UNL     1      -4.144   7.371 -30.828  1.00  0.00    -0.268 OA
BRANCH  32  35
HETATM   35  C   UNL     1      -4.902   6.748 -28.090  1.00  0.00     0.084 A 
HETATM   36  C   UNL     1      -6.189   6.067 -28.457  1.00  0.00     0.027 A 
HETATM   37  C   UNL     1      -5.507   5.723 -27.167  1.00  0.00     0.027 A 
ENDBRANCH  32  35
ENDBRANCH  26  31
ENDBRANCH  22  25
ENDBRANCH  20  21
ENDBRANCH   1  20
TORSDOF 9
ENDMDL
