MODEL 1
REMARK VINA RESULT:     -10.3      0.000      0.000
REMARK  8 active torsions:
REMARK  status: ('A' for Active; 'I' for Inactive)
REMARK    1  A    between atoms: C_6  and  S_7 
REMARK    2  A    between atoms: S_7  and  C_8 
REMARK    3  A    between atoms: C_8  and  C_9 
REMARK       I    between atoms: C_9  and  N_10 
REMARK    4  A    between atoms: N_10  and  C_11 
REMARK    5  A    between atoms: C_24  and  C_25 
REMARK    6  A    between atoms: C_25  and  C_26 
REMARK       I    between atoms: C_26  and  N_27 
REMARK    7  A    between atoms: N_27  and  C_28 
REMARK    8  A    between atoms: C_28  and  C_29 
ROOT
HETATM    1  C   UNL     1      -1.321   5.606 -34.978  1.00  0.00     0.001 A 
HETATM    2  C   UNL     1      -2.666   5.275 -34.814  1.00  0.00     0.018 A 
HETATM    3  C   UNL     1      -3.375   5.814 -33.737  1.00  0.00     0.039 A 
HETATM    4  C   UNL     1      -2.760   6.669 -32.813  1.00  0.00     0.073 A 
HETATM    5  N   UNL     1      -3.458   7.245 -31.736  1.00  0.00    -0.223 NA
HETATM    6  C   UNL     1      -4.724   6.991 -31.633  1.00  0.00     0.178 A 
HETATM    7  N   UNL     1      -5.416   6.157 -32.498  1.00  0.00    -0.241 N 
HETATM    8  C   UNL     1      -4.806   5.554 -33.549  1.00  0.00     0.147 A 
HETATM    9  N   UNL     1      -5.534   4.799 -34.322  1.00  0.00    -0.256 NA
HETATM   10  C   UNL     1      -6.730   5.753 -32.498  1.00  0.00     0.257 C 
HETATM   11  O   UNL     1      -7.601   5.949 -31.666  1.00  0.00    -0.270 OA
HETATM   12  C   UNL     1      -6.909   4.948 -33.772  1.00  0.00     0.211 C 
HETATM   13  C   UNL     1      -1.414   6.989 -32.991  1.00  0.00     0.032 A 
HETATM   14  C   UNL     1      -0.697   6.464 -34.070  1.00  0.00     0.002 A 
ENDROOT
BRANCH  12  15
HETATM   15  C   UNL     1      -7.654   3.649 -33.516  1.00  0.00     0.140 C 
BRANCH  15  16
HETATM   16  C   UNL     1      -6.967   2.597 -32.678  1.00  0.00     0.220 C 
HETATM   17  N   UNL     1      -5.843   2.059 -33.259  1.00  0.00    -0.357 N 
HETATM   18  H   UNL     1      -5.263   2.708 -33.779  1.00  0.00     0.162 HD
HETATM   19  O   UNL     1      -7.446   2.195 -31.623  1.00  0.00    -0.274 OA
BRANCH  17  20
HETATM   20  C   UNL     1      -5.196   0.911 -32.666  1.00  0.00     0.161 C 
BRANCH  20  21
HETATM   21  C   UNL     1      -5.485  -0.381 -33.398  1.00  0.00    -0.038 A 
HETATM   22  C   UNL     1      -4.599  -1.462 -33.237  1.00  0.00     0.048 A 
HETATM   23  C   UNL     1      -4.889  -2.650 -33.879  1.00  0.00     0.105 A 
HETATM   24  C   UNL     1      -6.010  -2.800 -34.656  1.00  0.00     0.105 A 
HETATM   25  O   UNL     1      -4.139  -3.784 -33.826  1.00  0.00    -0.323 OA
HETATM   26  O   UNL     1      -6.107  -4.042 -35.199  1.00  0.00    -0.323 OA
HETATM   27  C   UNL     1      -6.915  -1.775 -34.825  1.00  0.00     0.040 A 
HETATM   28  C   UNL     1      -4.920  -4.663 -34.662  1.00  0.00     0.352 A 
HETATM   29  C   UNL     1      -6.653  -0.562 -34.178  1.00  0.00     0.012 A 
ENDBRANCH  20  21
ENDBRANCH  17  20
ENDBRANCH  15  16
ENDBRANCH  12  15
BRANCH   6  30
HETATM   30  S   UNL     1      -5.583   7.792 -30.347  1.00  0.00    -0.082 SA
BRANCH  30  31
HETATM   31  C   UNL     1      -5.022   6.757 -28.963  1.00  0.00     0.185 C 
BRANCH  31  32
HETATM   32  C   UNL     1      -3.796   7.368 -28.305  1.00  0.00     0.232 C 
HETATM   33  N   UNL     1      -2.612   6.758 -28.695  1.00  0.00    -0.324 N 
HETATM   34  H   UNL     1      -2.658   6.244 -29.571  1.00  0.00     0.169 HD
HETATM   35  O   UNL     1      -3.911   8.300 -27.516  1.00  0.00    -0.272 OA
BRANCH  33  36
HETATM   36  C   UNL     1      -1.321   7.034 -28.192  1.00  0.00     0.073 A 
HETATM   37  C   UNL     1      -0.881   6.726 -26.899  1.00  0.00     0.143 A 
HETATM   38  F   UNL     1      -1.639   6.030 -26.041  1.00  0.00    -0.204 F 
HETATM   39  C   UNL     1       0.410   7.055 -26.481  1.00  0.00     0.044 A 
HETATM   40  C   UNL     1       1.290   7.680 -27.359  1.00  0.00     0.003 A 
HETATM   41  C   UNL     1       0.882   7.959 -28.661  1.00  0.00     0.002 A 
HETATM   42  C   UNL     1      -0.413   7.631 -29.078  1.00  0.00     0.033 A 
ENDBRANCH  33  36
ENDBRANCH  31  32
ENDBRANCH  30  31
ENDBRANCH   6  30
TORSDOF 8
ENDMDL
MODEL 2
REMARK VINA RESULT:     -10.0      6.498     10.243
REMARK  8 active torsions:
REMARK  status: ('A' for Active; 'I' for Inactive)
REMARK    1  A    between atoms: C_6  and  S_7 
REMARK    2  A    between atoms: S_7  and  C_8 
REMARK    3  A    between atoms: C_8  and  C_9 
REMARK       I    between atoms: C_9  and  N_10 
REMARK    4  A    between atoms: N_10  and  C_11 
REMARK    5  A    between atoms: C_24  and  C_25 
REMARK    6  A    between atoms: C_25  and  C_26 
REMARK       I    between atoms: C_26  and  N_27 
REMARK    7  A    between atoms: N_27  and  C_28 
REMARK    8  A    between atoms: C_28  and  C_29 
ROOT
HETATM    1  C   UNL     1     -13.989   1.120 -34.523  1.00  0.00     0.001 A 
HETATM    2  C   UNL     1     -13.310   2.313 -34.767  1.00  0.00     0.018 A 
HETATM    3  C   UNL     1     -11.981   2.439 -34.352  1.00  0.00     0.039 A 
HETATM    4  C   UNL     1     -11.322   1.398 -33.687  1.00  0.00     0.073 A 
HETATM    5  N   UNL     1      -9.978   1.489 -33.282  1.00  0.00    -0.223 NA
HETATM    6  C   UNL     1      -9.333   2.574 -33.578  1.00  0.00     0.178 A 
HETATM    7  N   UNL     1      -9.902   3.656 -34.231  1.00  0.00    -0.241 N 
HETATM    8  C   UNL     1     -11.197   3.645 -34.637  1.00  0.00     0.147 A 
HETATM    9  N   UNL     1     -11.646   4.698 -35.259  1.00  0.00    -0.256 NA
HETATM   10  C   UNL     1      -9.374   4.879 -34.571  1.00  0.00     0.257 C 
HETATM   11  O   UNL     1      -8.291   5.361 -34.286  1.00  0.00    -0.270 OA
HETATM   12  C   UNL     1     -10.451   5.576 -35.382  1.00  0.00     0.211 C 
HETATM   13  C   UNL     1     -12.016   0.211 -33.450  1.00  0.00     0.032 A 
HETATM   14  C   UNL     1     -13.342   0.069 -33.868  1.00  0.00     0.002 A 
ENDROOT
BRANCH  12  15
HETATM   15  C   UNL     1     -10.649   7.014 -34.935  1.00  0.00     0.140 C 
BRANCH  15  16
HETATM   16  C   UNL     1     -11.863   7.329 -34.094  1.00  0.00     0.220 C 
HETATM   17  N   UNL     1     -11.789   6.862 -32.803  1.00  0.00    -0.357 N 
HETATM   18  H   UNL     1     -10.877   6.922 -32.365  1.00  0.00     0.162 HD
HETATM   19  O   UNL     1     -12.861   7.859 -34.570  1.00  0.00    -0.274 OA
BRANCH  17  20
HETATM   20  C   UNL     1     -12.949   6.917 -31.942  1.00  0.00     0.161 C 
BRANCH  20  21
HETATM   21  C   UNL     1     -13.646   5.583 -31.795  1.00  0.00    -0.038 A 
HETATM   22  C   UNL     1     -14.995   5.478 -32.182  1.00  0.00     0.048 A 
HETATM   23  C   UNL     1     -15.614   4.249 -32.080  1.00  0.00     0.105 A 
HETATM   24  C   UNL     1     -14.952   3.138 -31.618  1.00  0.00     0.105 A 
HETATM   25  O   UNL     1     -16.906   3.981 -32.411  1.00  0.00    -0.323 OA
HETATM   26  O   UNL     1     -15.742   2.033 -31.592  1.00  0.00    -0.323 OA
HETATM   27  C   UNL     1     -13.627   3.190 -31.247  1.00  0.00     0.040 A 
HETATM   28  C   UNL     1     -16.978   2.573 -32.103  1.00  0.00     0.352 A 
HETATM   29  C   UNL     1     -12.969   4.421 -31.351  1.00  0.00     0.012 A 
ENDBRANCH  20  21
ENDBRANCH  17  20
ENDBRANCH  15  16
ENDBRANCH  12  15
BRANCH   6  30
HETATM   30  S   UNL     1      -7.646   2.623 -33.149  1.00  0.00    -0.082 SA
BRANCH  30  31
HETATM   31  C   UNL     1      -7.714   1.583 -31.662  1.00  0.00     0.185 C 
BRANCH  31  32
HETATM   32  C   UNL     1      -6.970   0.278 -31.891  1.00  0.00     0.232 C 
HETATM   33  N   UNL     1      -6.857  -0.052 -33.233  1.00  0.00    -0.324 N 
HETATM   34  H   UNL     1      -6.967   0.723 -33.881  1.00  0.00     0.169 HD
HETATM   35  O   UNL     1      -6.542  -0.371 -30.942  1.00  0.00    -0.272 OA
BRANCH  33  36
HETATM   36  C   UNL     1      -6.306  -1.241 -33.761  1.00  0.00     0.073 A 
HETATM   37  C   UNL     1      -4.937  -1.525 -33.843  1.00  0.00     0.143 A 
HETATM   38  F   UNL     1      -4.013  -0.709 -33.315  1.00  0.00    -0.204 F 
HETATM   39  C   UNL     1      -4.481  -2.721 -34.399  1.00  0.00     0.044 A 
HETATM   40  C   UNL     1      -5.391  -3.665 -34.866  1.00  0.00     0.003 A 
HETATM   41  C   UNL     1      -6.757  -3.417 -34.757  1.00  0.00     0.002 A 
HETATM   42  C   UNL     1      -7.212  -2.216 -34.201  1.00  0.00     0.033 A 
ENDBRANCH  33  36
ENDBRANCH  31  32
ENDBRANCH  30  31
ENDBRANCH   6  30
TORSDOF 8
ENDMDL
MODEL 3
REMARK VINA RESULT:     -10.0      4.118      9.067
REMARK  8 active torsions:
REMARK  status: ('A' for Active; 'I' for Inactive)
REMARK    1  A    between atoms: C_6  and  S_7 
REMARK    2  A    between atoms: S_7  and  C_8 
REMARK    3  A    between atoms: C_8  and  C_9 
REMARK       I    between atoms: C_9  and  N_10 
REMARK    4  A    between atoms: N_10  and  C_11 
REMARK    5  A    between atoms: C_24  and  C_25 
REMARK    6  A    between atoms: C_25  and  C_26 
REMARK       I    between atoms: C_26  and  N_27 
REMARK    7  A    between atoms: N_27  and  C_28 
REMARK    8  A    between atoms: C_28  and  C_29 
ROOT
HETATM    1  C   UNL     1      -9.030   1.675 -34.223  1.00  0.00     0.001 A 
HETATM    2  C   UNL     1      -7.917   2.494 -34.036  1.00  0.00     0.018 A 
HETATM    3  C   UNL     1      -6.869   2.047 -33.226  1.00  0.00     0.039 A 
HETATM    4  C   UNL     1      -6.919   0.801 -32.589  1.00  0.00     0.073 A 
HETATM    5  N   UNL     1      -5.867   0.316 -31.791  1.00  0.00    -0.223 NA
HETATM    6  C   UNL     1      -4.806   1.052 -31.682  1.00  0.00     0.178 A 
HETATM    7  N   UNL     1      -4.668   2.298 -32.273  1.00  0.00    -0.241 N 
HETATM    8  C   UNL     1      -5.646   2.836 -33.044  1.00  0.00     0.147 A 
HETATM    9  N   UNL     1      -5.427   4.005 -33.576  1.00  0.00    -0.256 NA
HETATM   10  C   UNL     1      -3.640   3.210 -32.216  1.00  0.00     0.257 C 
HETATM   11  O   UNL     1      -2.626   3.194 -31.539  1.00  0.00    -0.270 OA
HETATM   12  C   UNL     1      -4.027   4.320 -33.176  1.00  0.00     0.211 C 
HETATM   13  C   UNL     1      -8.041  -0.006 -32.786  1.00  0.00     0.032 A 
HETATM   14  C   UNL     1      -9.090   0.426 -33.602  1.00  0.00     0.002 A 
ENDROOT
BRANCH  12  15
HETATM   15  C   UNL     1      -3.818   5.693 -32.562  1.00  0.00     0.140 C 
BRANCH  15  16
HETATM   16  C   UNL     1      -4.951   6.285 -31.758  1.00  0.00     0.220 C 
HETATM   17  N   UNL     1      -5.353   5.510 -30.696  1.00  0.00    -0.357 N 
HETATM   18  H   UNL     1      -4.612   5.033 -30.195  1.00  0.00     0.162 HD
HETATM   19  O   UNL     1      -5.522   7.314 -32.105  1.00  0.00    -0.274 OA
BRANCH  17  20
HETATM   20  C   UNL     1      -6.547   5.851 -29.957  1.00  0.00     0.161 C 
BRANCH  20  21
HETATM   21  C   UNL     1      -7.777   5.114 -30.437  1.00  0.00    -0.038 A 
HETATM   22  C   UNL     1      -8.622   5.743 -31.369  1.00  0.00     0.048 A 
HETATM   23  C   UNL     1      -9.723   5.050 -31.831  1.00  0.00     0.105 A 
HETATM   24  C   UNL     1     -10.006   3.774 -31.409  1.00  0.00     0.105 A 
HETATM   25  O   UNL     1     -10.634   5.513 -32.729  1.00  0.00    -0.323 OA
HETATM   26  O   UNL     1     -11.133   3.274 -31.981  1.00  0.00    -0.323 OA
HETATM   27  C   UNL     1      -9.196   3.112 -30.514  1.00  0.00     0.040 A 
HETATM   28  C   UNL     1     -11.523   4.380 -32.822  1.00  0.00     0.352 A 
HETATM   29  C   UNL     1      -8.066   3.786 -30.037  1.00  0.00     0.012 A 
ENDBRANCH  20  21
ENDBRANCH  17  20
ENDBRANCH  15  16
ENDBRANCH  12  15
BRANCH   6  30
HETATM   30  S   UNL     1      -3.483   0.387 -30.765  1.00  0.00    -0.082 SA
BRANCH  30  31
HETATM   31  C   UNL     1      -2.627  -0.476 -32.114  1.00  0.00     0.185 C 
BRANCH  31  32
HETATM   32  C   UNL     1      -3.314  -1.796 -32.422  1.00  0.00     0.232 C 
HETATM   33  N   UNL     1      -3.990  -1.785 -33.633  1.00  0.00    -0.324 N 
HETATM   34  H   UNL     1      -3.688  -1.072 -34.291  1.00  0.00     0.169 HD
HETATM   35  O   UNL     1      -3.241  -2.735 -31.636  1.00  0.00    -0.272 OA
BRANCH  33  36
HETATM   36  C   UNL     1      -4.799  -2.820 -34.152  1.00  0.00     0.073 A 
HETATM   37  C   UNL     1      -4.373  -4.136 -34.375  1.00  0.00     0.143 A 
HETATM   38  F   UNL     1      -3.156  -4.557 -34.007  1.00  0.00    -0.204 F 
HETATM   39  C   UNL     1      -5.238  -5.091 -34.911  1.00  0.00     0.044 A 
HETATM   40  C   UNL     1      -6.553  -4.751 -35.213  1.00  0.00     0.003 A 
HETATM   41  C   UNL     1      -7.006  -3.457 -34.961  1.00  0.00     0.002 A 
HETATM   42  C   UNL     1      -6.136  -2.500 -34.426  1.00  0.00     0.033 A 
ENDBRANCH  33  36
ENDBRANCH  31  32
ENDBRANCH  30  31
ENDBRANCH   6  30
TORSDOF 8
ENDMDL
MODEL 4
REMARK VINA RESULT:      -9.8      2.836      9.251
REMARK  8 active torsions:
REMARK  status: ('A' for Active; 'I' for Inactive)
REMARK    1  A    between atoms: C_6  and  S_7 
REMARK    2  A    between atoms: S_7  and  C_8 
REMARK    3  A    between atoms: C_8  and  C_9 
REMARK       I    between atoms: C_9  and  N_10 
REMARK    4  A    between atoms: N_10  and  C_11 
REMARK    5  A    between atoms: C_24  and  C_25 
REMARK    6  A    between atoms: C_25  and  C_26 
REMARK       I    between atoms: C_26  and  N_27 
REMARK    7  A    between atoms: N_27  and  C_28 
REMARK    8  A    between atoms: C_28  and  C_29 
ROOT
HETATM    1  C   UNL     1      -5.881   8.708 -29.092  1.00  0.00     0.001 A 
HETATM    2  C   UNL     1      -5.311   8.100 -30.211  1.00  0.00     0.018 A 
HETATM    3  C   UNL     1      -5.266   6.705 -30.280  1.00  0.00     0.039 A 
HETATM    4  C   UNL     1      -5.770   5.906 -29.247  1.00  0.00     0.073 A 
HETATM    5  N   UNL     1      -5.761   4.500 -29.304  1.00  0.00    -0.223 NA
HETATM    6  C   UNL     1      -5.296   3.944 -30.378  1.00  0.00     0.178 A 
HETATM    7  N   UNL     1      -4.775   4.653 -31.450  1.00  0.00    -0.241 N 
HETATM    8  C   UNL     1      -4.737   6.010 -31.458  1.00  0.00     0.147 A 
HETATM    9  N   UNL     1      -4.246   6.596 -32.513  1.00  0.00    -0.256 NA
HETATM   10  C   UNL     1      -4.208   4.218 -32.624  1.00  0.00     0.257 C 
HETATM   11  O   UNL     1      -3.925   3.085 -32.974  1.00  0.00    -0.270 OA
HETATM   12  C   UNL     1      -3.953   5.471 -33.442  1.00  0.00     0.211 C 
HETATM   13  C   UNL     1      -6.337   6.530 -28.135  1.00  0.00     0.032 A 
HETATM   14  C   UNL     1      -6.396   7.924 -28.058  1.00  0.00     0.002 A 
ENDROOT
BRANCH  12  15
HETATM   15  C   UNL     1      -2.561   5.472 -34.050  1.00  0.00     0.140 C 
BRANCH  15  16
HETATM   16  C   UNL     1      -1.573   6.496 -33.544  1.00  0.00     0.220 C 
HETATM   17  N   UNL     1      -0.977   6.162 -32.351  1.00  0.00    -0.357 N 
HETATM   18  H   UNL     1      -0.750   5.181 -32.232  1.00  0.00     0.162 HD
HETATM   19  O   UNL     1      -1.412   7.574 -34.106  1.00  0.00    -0.274 OA
BRANCH  17  20
HETATM   20  C   UNL     1      -0.160   7.126 -31.650  1.00  0.00     0.161 C 
BRANCH  20  21
HETATM   21  C   UNL     1      -0.339   7.080 -30.148  1.00  0.00    -0.038 A 
HETATM   22  C   UNL     1      -1.635   7.210 -29.617  1.00  0.00     0.048 A 
HETATM   23  C   UNL     1      -1.794   7.131 -28.248  1.00  0.00     0.105 A 
HETATM   24  C   UNL     1      -0.731   6.926 -27.404  1.00  0.00     0.105 A 
HETATM   25  O   UNL     1      -2.974   7.235 -27.579  1.00  0.00    -0.323 OA
HETATM   26  O   UNL     1      -1.103   6.883 -26.098  1.00  0.00    -0.323 OA
HETATM   27  C   UNL     1       0.551   6.773 -27.881  1.00  0.00     0.040 A 
HETATM   28  C   UNL     1      -2.528   7.073 -26.216  1.00  0.00     0.352 A 
HETATM   29  C   UNL     1       0.743   6.838 -29.267  1.00  0.00     0.012 A 
ENDBRANCH  20  21
ENDBRANCH  17  20
ENDBRANCH  15  16
ENDBRANCH  12  15
BRANCH   6  30
HETATM   30  S   UNL     1      -5.384   2.207 -30.463  1.00  0.00    -0.082 SA
BRANCH  30  31
HETATM   31  C   UNL     1      -6.935   2.060 -31.394  1.00  0.00     0.185 C 
BRANCH  31  32
HETATM   32  C   UNL     1      -6.742   1.173 -32.614  1.00  0.00     0.232 C 
HETATM   33  N   UNL     1      -6.359  -0.120 -32.287  1.00  0.00    -0.324 N 
HETATM   34  H   UNL     1      -6.571  -0.407 -31.335  1.00  0.00     0.169 HD
HETATM   35  O   UNL     1      -6.919   1.618 -33.742  1.00  0.00    -0.272 OA
BRANCH  33  36
HETATM   36  C   UNL     1      -6.013  -1.146 -33.194  1.00  0.00     0.073 A 
HETATM   37  C   UNL     1      -4.707  -1.579 -33.457  1.00  0.00     0.143 A 
HETATM   38  F   UNL     1      -3.655  -1.109 -32.772  1.00  0.00    -0.204 F 
HETATM   39  C   UNL     1      -4.457  -2.590 -34.386  1.00  0.00     0.044 A 
HETATM   40  C   UNL     1      -5.514  -3.201 -35.054  1.00  0.00     0.003 A 
HETATM   41  C   UNL     1      -6.822  -2.811 -34.776  1.00  0.00     0.002 A 
HETATM   42  C   UNL     1      -7.071  -1.795 -33.846  1.00  0.00     0.033 A 
ENDBRANCH  33  36
ENDBRANCH  31  32
ENDBRANCH  30  31
ENDBRANCH   6  30
TORSDOF 8
ENDMDL
MODEL 5
REMARK VINA RESULT:      -9.8      4.621     10.030
REMARK  8 active torsions:
REMARK  status: ('A' for Active; 'I' for Inactive)
REMARK    1  A    between atoms: C_6  and  S_7 
REMARK    2  A    between atoms: S_7  and  C_8 
REMARK    3  A    between atoms: C_8  and  C_9 
REMARK       I    between atoms: C_9  and  N_10 
REMARK    4  A    between atoms: N_10  and  C_11 
REMARK    5  A    between atoms: C_24  and  C_25 
REMARK    6  A    between atoms: C_25  and  C_26 
REMARK       I    between atoms: C_26  and  N_27 
REMARK    7  A    between atoms: N_27  and  C_28 
REMARK    8  A    between atoms: C_28  and  C_29 
ROOT
HETATM    1  C   UNL     1      -4.137  -2.229 -33.758  1.00  0.00     0.001 A 
HETATM    2  C   UNL     1      -4.555  -1.213 -32.898  1.00  0.00     0.018 A 
HETATM    3  C   UNL     1      -5.889  -0.796 -32.932  1.00  0.00     0.039 A 
HETATM    4  C   UNL     1      -6.810  -1.368 -33.819  1.00  0.00     0.073 A 
HETATM    5  N   UNL     1      -8.164  -0.985 -33.854  1.00  0.00    -0.223 NA
HETATM    6  C   UNL     1      -8.560  -0.093 -33.002  1.00  0.00     0.178 A 
HETATM    7  N   UNL     1      -7.720   0.528 -32.090  1.00  0.00    -0.241 N 
HETATM    8  C   UNL     1      -6.401   0.221 -32.009  1.00  0.00     0.147 A 
HETATM    9  N   UNL     1      -5.688   0.840 -31.111  1.00  0.00    -0.256 NA
HETATM   10  C   UNL     1      -7.971   1.514 -31.164  1.00  0.00     0.257 C 
HETATM   11  O   UNL     1      -8.985   2.168 -30.985  1.00  0.00    -0.270 OA
HETATM   12  C   UNL     1      -6.681   1.676 -30.382  1.00  0.00     0.211 C 
HETATM   13  C   UNL     1      -6.376  -2.382 -34.673  1.00  0.00     0.032 A 
HETATM   14  C   UNL     1      -5.047  -2.814 -34.642  1.00  0.00     0.002 A 
ENDROOT
BRANCH  12  15
HETATM   15  C   UNL     1      -6.306   3.137 -30.213  1.00  0.00     0.140 C 
BRANCH  15  16
HETATM   16  C   UNL     1      -5.966   3.925 -31.456  1.00  0.00     0.220 C 
HETATM   17  N   UNL     1      -4.897   3.428 -32.163  1.00  0.00    -0.357 N 
HETATM   18  H   UNL     1      -4.830   2.418 -32.206  1.00  0.00     0.162 HD
HETATM   19  O   UNL     1      -6.537   4.975 -31.733  1.00  0.00    -0.274 OA
BRANCH  17  20
HETATM   20  C   UNL     1      -4.337   4.183 -33.261  1.00  0.00     0.161 C 
BRANCH  20  21
HETATM   21  C   UNL     1      -3.110   4.978 -32.873  1.00  0.00    -0.038 A 
HETATM   22  C   UNL     1      -2.221   4.434 -31.929  1.00  0.00     0.048 A 
HETATM   23  C   UNL     1      -1.085   5.149 -31.607  1.00  0.00     0.105 A 
HETATM   24  C   UNL     1      -0.804   6.363 -32.184  1.00  0.00     0.105 A 
HETATM   25  O   UNL     1      -0.130   4.764 -30.718  1.00  0.00    -0.323 OA
HETATM   26  O   UNL     1       0.357   6.901 -31.728  1.00  0.00    -0.323 OA
HETATM   27  C   UNL     1      -1.636   6.924 -33.127  1.00  0.00     0.040 A 
HETATM   28  C   UNL     1       0.784   5.878 -30.803  1.00  0.00     0.352 A 
HETATM   29  C   UNL     1      -2.790   6.216 -33.482  1.00  0.00     0.012 A 
ENDBRANCH  20  21
ENDBRANCH  17  20
ENDBRANCH  15  16
ENDBRANCH  12  15
BRANCH   6  30
HETATM   30  S   UNL     1     -10.257   0.294 -33.005  1.00  0.00    -0.082 SA
BRANCH  30  31
HETATM   31  C   UNL     1     -10.217   1.677 -34.181  1.00  0.00     0.185 C 
BRANCH  31  32
HETATM   32  C   UNL     1     -11.499   2.488 -34.093  1.00  0.00     0.232 C 
HETATM   33  N   UNL     1     -12.265   2.171 -32.980  1.00  0.00    -0.324 N 
HETATM   34  H   UNL     1     -11.761   1.718 -32.222  1.00  0.00     0.169 HD
HETATM   35  O   UNL     1     -11.771   3.320 -34.952  1.00  0.00    -0.272 OA
BRANCH  33  36
HETATM   36  C   UNL     1     -13.545   2.679 -32.670  1.00  0.00     0.073 A 
HETATM   37  C   UNL     1     -13.816   4.002 -32.299  1.00  0.00     0.143 A 
HETATM   38  F   UNL     1     -12.865   4.947 -32.308  1.00  0.00    -0.204 F 
HETATM   39  C   UNL     1     -15.114   4.413 -31.991  1.00  0.00     0.044 A 
HETATM   40  C   UNL     1     -16.169   3.509 -32.069  1.00  0.00     0.003 A 
HETATM   41  C   UNL     1     -15.925   2.199 -32.474  1.00  0.00     0.002 A 
HETATM   42  C   UNL     1     -14.623   1.788 -32.781  1.00  0.00     0.033 A 
ENDBRANCH  33  36
ENDBRANCH  31  32
ENDBRANCH  30  31
ENDBRANCH   6  30
TORSDOF 8
ENDMDL
MODEL 6
REMARK VINA RESULT:      -9.7      4.974      8.177
REMARK  8 active torsions:
REMARK  status: ('A' for Active; 'I' for Inactive)
REMARK    1  A    between atoms: C_6  and  S_7 
REMARK    2  A    between atoms: S_7  and  C_8 
REMARK    3  A    between atoms: C_8  and  C_9 
REMARK       I    between atoms: C_9  and  N_10 
REMARK    4  A    between atoms: N_10  and  C_11 
REMARK    5  A    between atoms: C_24  and  C_25 
REMARK    6  A    between atoms: C_25  and  C_26 
REMARK       I    between atoms: C_26  and  N_27 
REMARK    7  A    between atoms: N_27  and  C_28 
REMARK    8  A    between atoms: C_28  and  C_29 
ROOT
HETATM    1  C   UNL     1      -5.765  -3.827 -35.066  1.00  0.00     0.001 A 
HETATM    2  C   UNL     1      -6.632  -2.767 -34.802  1.00  0.00     0.018 A 
HETATM    3  C   UNL     1      -6.239  -1.771 -33.904  1.00  0.00     0.039 A 
HETATM    4  C   UNL     1      -4.998  -1.822 -33.255  1.00  0.00     0.073 A 
HETATM    5  N   UNL     1      -4.568  -0.820 -32.366  1.00  0.00    -0.223 NA
HETATM    6  C   UNL     1      -5.348   0.198 -32.182  1.00  0.00     0.178 A 
HETATM    7  N   UNL     1      -6.592   0.333 -32.779  1.00  0.00    -0.241 N 
HETATM    8  C   UNL     1      -7.080  -0.601 -33.635  1.00  0.00     0.147 A 
HETATM    9  N   UNL     1      -8.251  -0.386 -34.164  1.00  0.00    -0.256 NA
HETATM   10  C   UNL     1      -7.548   1.314 -32.653  1.00  0.00     0.257 C 
HETATM   11  O   UNL     1      -7.581   2.270 -31.896  1.00  0.00    -0.270 OA
HETATM   12  C   UNL     1      -8.629   0.962 -33.658  1.00  0.00     0.211 C 
HETATM   13  C   UNL     1      -4.143  -2.890 -33.530  1.00  0.00     0.032 A 
HETATM   14  C   UNL     1      -4.521  -3.886 -34.434  1.00  0.00     0.002 A 
ENDROOT
BRANCH  12  15
HETATM   15  C   UNL     1     -10.016   1.064 -33.049  1.00  0.00     0.140 C 
BRANCH  15  16
HETATM   16  C   UNL     1     -10.837   2.290 -33.371  1.00  0.00     0.220 C 
HETATM   17  N   UNL     1     -11.497   2.826 -32.291  1.00  0.00    -0.357 N 
HETATM   18  H   UNL     1     -10.990   2.809 -31.413  1.00  0.00     0.162 HD
HETATM   19  O   UNL     1     -10.977   2.692 -34.522  1.00  0.00    -0.274 OA
BRANCH  17  20
HETATM   20  C   UNL     1     -12.470   3.878 -32.480  1.00  0.00     0.161 C 
BRANCH  20  21
HETATM   21  C   UNL     1     -13.899   3.391 -32.392  1.00  0.00    -0.038 A 
HETATM   22  C   UNL     1     -14.893   4.288 -31.958  1.00  0.00     0.048 A 
HETATM   23  C   UNL     1     -16.201   3.847 -31.915  1.00  0.00     0.105 A 
HETATM   24  C   UNL     1     -16.550   2.572 -32.285  1.00  0.00     0.105 A 
HETATM   25  O   UNL     1     -17.274   4.585 -31.521  1.00  0.00    -0.323 OA
HETATM   26  O   UNL     1     -17.884   2.341 -32.166  1.00  0.00    -0.323 OA
HETATM   27  C   UNL     1     -15.614   1.669 -32.735  1.00  0.00     0.040 A 
HETATM   28  C   UNL     1     -18.339   3.625 -31.687  1.00  0.00     0.352 A 
HETATM   29  C   UNL     1     -14.281   2.090 -32.801  1.00  0.00     0.012 A 
ENDBRANCH  20  21
ENDBRANCH  17  20
ENDBRANCH  15  16
ENDBRANCH  12  15
BRANCH   6  30
HETATM   30  S   UNL     1      -4.751   1.468 -31.152  1.00  0.00    -0.082 SA
BRANCH  30  31
HETATM   31  C   UNL     1      -4.172   2.611 -32.439  1.00  0.00     0.185 C 
BRANCH  31  32
HETATM   32  C   UNL     1      -3.587   3.866 -31.813  1.00  0.00     0.232 C 
HETATM   33  N   UNL     1      -2.276   4.103 -32.200  1.00  0.00    -0.324 N 
HETATM   34  H   UNL     1      -1.988   3.644 -33.060  1.00  0.00     0.169 HD
HETATM   35  O   UNL     1      -4.257   4.553 -31.050  1.00  0.00    -0.272 OA
BRANCH  33  36
HETATM   36  C   UNL     1      -1.432   5.129 -31.720  1.00  0.00     0.073 A 
HETATM   37  C   UNL     1      -1.515   6.476 -32.094  1.00  0.00     0.143 A 
HETATM   38  F   UNL     1      -2.497   6.932 -32.883  1.00  0.00    -0.204 F 
HETATM   39  C   UNL     1      -0.624   7.421 -31.582  1.00  0.00     0.044 A 
HETATM   40  C   UNL     1       0.353   7.036 -30.669  1.00  0.00     0.003 A 
HETATM   41  C   UNL     1       0.426   5.708 -30.256  1.00  0.00     0.002 A 
HETATM   42  C   UNL     1      -0.467   4.762 -30.772  1.00  0.00     0.033 A 
ENDBRANCH  33  36
ENDBRANCH  31  32
ENDBRANCH  30  31
ENDBRANCH   6  30
TORSDOF 8
ENDMDL
MODEL 7
REMARK VINA RESULT:      -9.6      4.735      7.588
REMARK  8 active torsions:
REMARK  status: ('A' for Active; 'I' for Inactive)
REMARK    1  A    between atoms: C_6  and  S_7 
REMARK    2  A    between atoms: S_7  and  C_8 
REMARK    3  A    between atoms: C_8  and  C_9 
REMARK       I    between atoms: C_9  and  N_10 
REMARK    4  A    between atoms: N_10  and  C_11 
REMARK    5  A    between atoms: C_24  and  C_25 
REMARK    6  A    between atoms: C_25  and  C_26 
REMARK       I    between atoms: C_26  and  N_27 
REMARK    7  A    between atoms: N_27  and  C_28 
REMARK    8  A    between atoms: C_28  and  C_29 
ROOT
HETATM    1  C   UNL     1      -6.184  -2.515 -34.816  1.00  0.00     0.001 A 
HETATM    2  C   UNL     1      -6.797  -1.293 -34.539  1.00  0.00     0.018 A 
HETATM    3  C   UNL     1      -6.113  -0.345 -33.774  1.00  0.00     0.039 A 
HETATM    4  C   UNL     1      -4.831  -0.599 -33.271  1.00  0.00     0.073 A 
HETATM    5  N   UNL     1      -4.110   0.349 -32.521  1.00  0.00    -0.223 NA
HETATM    6  C   UNL     1      -4.657   1.508 -32.331  1.00  0.00     0.178 A 
HETATM    7  N   UNL     1      -5.921   1.848 -32.788  1.00  0.00    -0.241 N 
HETATM    8  C   UNL     1      -6.679   0.981 -33.504  1.00  0.00     0.147 A 
HETATM    9  N   UNL     1      -7.848   1.389 -33.910  1.00  0.00    -0.256 NA
HETATM   10  C   UNL     1      -6.652   3.002 -32.631  1.00  0.00     0.257 C 
HETATM   11  O   UNL     1      -6.409   3.987 -31.953  1.00  0.00    -0.270 OA
HETATM   12  C   UNL     1      -7.901   2.811 -33.472  1.00  0.00     0.211 C 
HETATM   13  C   UNL     1      -4.231  -1.827 -33.557  1.00  0.00     0.032 A 
HETATM   14  C   UNL     1      -4.902  -2.780 -34.329  1.00  0.00     0.002 A 
ENDROOT
BRANCH  12  15
HETATM   15  C   UNL     1      -9.154   3.215 -32.717  1.00  0.00     0.140 C 
BRANCH  15  16
HETATM   16  C   UNL     1     -10.482   3.047 -33.417  1.00  0.00     0.220 C 
HETATM   17  N   UNL     1     -11.364   2.220 -32.761  1.00  0.00    -0.357 N 
HETATM   18  H   UNL     1     -11.363   2.291 -31.749  1.00  0.00     0.162 HD
HETATM   19  O   UNL     1     -10.695   3.526 -34.525  1.00  0.00    -0.274 OA
BRANCH  17  20
HETATM   20  C   UNL     1     -12.593   1.812 -33.401  1.00  0.00     0.161 C 
BRANCH  20  21
HETATM   21  C   UNL     1     -13.801   2.583 -32.919  1.00  0.00    -0.038 A 
HETATM   22  C   UNL     1     -15.043   1.924 -32.855  1.00  0.00     0.048 A 
HETATM   23  C   UNL     1     -16.134   2.623 -32.380  1.00  0.00     0.105 A 
HETATM   24  C   UNL     1     -16.036   3.930 -31.969  1.00  0.00     0.105 A 
HETATM   25  O   UNL     1     -17.398   2.134 -32.255  1.00  0.00    -0.323 OA
HETATM   26  O   UNL     1     -17.224   4.433 -31.542  1.00  0.00    -0.323 OA
HETATM   27  C   UNL     1     -14.838   4.607 -31.995  1.00  0.00     0.040 A 
HETATM   28  C   UNL     1     -18.082   3.286 -31.719  1.00  0.00     0.352 A 
HETATM   29  C   UNL     1     -13.711   3.920 -32.462  1.00  0.00     0.012 A 
ENDBRANCH  20  21
ENDBRANCH  17  20
ENDBRANCH  15  16
ENDBRANCH  12  15
BRANCH   6  30
HETATM   30  S   UNL     1      -3.705   2.693 -31.481  1.00  0.00    -0.082 SA
BRANCH  30  31
HETATM   31  C   UNL     1      -2.945   3.507 -32.915  1.00  0.00     0.185 C 
BRANCH  31  32
HETATM   32  C   UNL     1      -1.976   4.586 -32.462  1.00  0.00     0.232 C 
HETATM   33  N   UNL     1      -2.047   4.840 -31.100  1.00  0.00    -0.324 N 
HETATM   34  H   UNL     1      -2.456   4.096 -30.541  1.00  0.00     0.169 HD
HETATM   35  O   UNL     1      -1.236   5.139 -33.269  1.00  0.00    -0.272 OA
BRANCH  33  36
HETATM   36  C   UNL     1      -1.346   5.845 -30.397  1.00  0.00     0.073 A 
HETATM   37  C   UNL     1       0.027   5.824 -30.121  1.00  0.00     0.143 A 
HETATM   38  F   UNL     1       0.830   4.868 -30.608  1.00  0.00    -0.204 F 
HETATM   39  C   UNL     1       0.633   6.854 -29.401  1.00  0.00     0.044 A 
HETATM   40  C   UNL     1      -0.123   7.936 -28.960  1.00  0.00     0.003 A 
HETATM   41  C   UNL     1      -1.483   7.994 -29.258  1.00  0.00     0.002 A 
HETATM   42  C   UNL     1      -2.089   6.958 -29.979  1.00  0.00     0.033 A 
ENDBRANCH  33  36
ENDBRANCH  31  32
ENDBRANCH  30  31
ENDBRANCH   6  30
TORSDOF 8
ENDMDL
MODEL 8
REMARK VINA RESULT:      -9.6      3.886     10.292
REMARK  8 active torsions:
REMARK  status: ('A' for Active; 'I' for Inactive)
REMARK    1  A    between atoms: C_6  and  S_7 
REMARK    2  A    between atoms: S_7  and  C_8 
REMARK    3  A    between atoms: C_8  and  C_9 
REMARK       I    between atoms: C_9  and  N_10 
REMARK    4  A    between atoms: N_10  and  C_11 
REMARK    5  A    between atoms: C_24  and  C_25 
REMARK    6  A    between atoms: C_25  and  C_26 
REMARK       I    between atoms: C_26  and  N_27 
REMARK    7  A    between atoms: N_27  and  C_28 
REMARK    8  A    between atoms: C_28  and  C_29 
ROOT
HETATM    1  C   UNL     1      -3.867  -0.821 -31.927  1.00  0.00     0.001 A 
HETATM    2  C   UNL     1      -3.340   0.463 -31.789  1.00  0.00     0.018 A 
HETATM    3  C   UNL     1      -4.083   1.557 -32.241  1.00  0.00     0.039 A 
HETATM    4  C   UNL     1      -5.339   1.390 -32.839  1.00  0.00     0.073 A 
HETATM    5  N   UNL     1      -6.118   2.476 -33.278  1.00  0.00    -0.223 NA
HETATM    6  C   UNL     1      -5.653   3.669 -33.080  1.00  0.00     0.178 A 
HETATM    7  N   UNL     1      -4.422   3.931 -32.499  1.00  0.00    -0.241 N 
HETATM    8  C   UNL     1      -3.610   2.934 -32.065  1.00  0.00     0.147 A 
HETATM    9  N   UNL     1      -2.478   3.269 -31.515  1.00  0.00    -0.256 NA
HETATM   10  C   UNL     1      -3.774   5.121 -32.264  1.00  0.00     0.257 C 
HETATM   11  O   UNL     1      -4.080   6.250 -32.608  1.00  0.00    -0.270 OA
HETATM   12  C   UNL     1      -2.523   4.757 -31.485  1.00  0.00     0.211 C 
HETATM   13  C   UNL     1      -5.851   0.098 -32.970  1.00  0.00     0.032 A 
HETATM   14  C   UNL     1      -5.122  -1.003 -32.513  1.00  0.00     0.002 A 
ENDROOT
BRANCH  12  15
HETATM   15  C   UNL     1      -1.294   5.458 -32.035  1.00  0.00     0.140 C 
BRANCH  15  16
HETATM   16  C   UNL     1      -0.137   5.693 -31.093  1.00  0.00     0.220 C 
HETATM   17  N   UNL     1      -0.262   5.060 -29.879  1.00  0.00    -0.357 N 
HETATM   18  H   UNL     1      -0.675   4.135 -29.906  1.00  0.00     0.162 HD
HETATM   19  O   UNL     1       0.772   6.470 -31.366  1.00  0.00    -0.274 OA
BRANCH  17  20
HETATM   20  C   UNL     1       0.667   5.347 -28.810  1.00  0.00     0.161 C 
BRANCH  20  21
HETATM   21  C   UNL     1       0.294   6.574 -28.009  1.00  0.00    -0.038 A 
HETATM   22  C   UNL     1      -0.749   6.478 -27.070  1.00  0.00     0.048 A 
HETATM   23  C   UNL     1      -1.060   7.593 -26.316  1.00  0.00     0.105 A 
HETATM   24  C   UNL     1      -0.379   8.777 -26.457  1.00  0.00     0.105 A 
HETATM   25  O   UNL     1      -2.036   7.664 -25.371  1.00  0.00    -0.323 OA
HETATM   26  O   UNL     1      -0.843   9.747 -25.626  1.00  0.00    -0.323 OA
HETATM   27  C   UNL     1       0.661   8.910 -27.349  1.00  0.00     0.040 A 
HETATM   28  C   UNL     1      -1.889   9.032 -24.935  1.00  0.00     0.352 A 
HETATM   29  C   UNL     1       1.007   7.793 -28.119  1.00  0.00     0.012 A 
ENDBRANCH  20  21
ENDBRANCH  17  20
ENDBRANCH  15  16
ENDBRANCH  12  15
BRANCH   6  30
HETATM   30  S   UNL     1      -6.679   4.997 -33.547  1.00  0.00    -0.082 SA
BRANCH  30  31
HETATM   31  C   UNL     1      -7.769   5.020 -32.095  1.00  0.00     0.185 C 
BRANCH  31  32
HETATM   32  C   UNL     1      -9.174   4.585 -32.478  1.00  0.00     0.232 C 
HETATM   33  N   UNL     1      -9.189   3.483 -33.320  1.00  0.00    -0.324 N 
HETATM   34  H   UNL     1      -8.344   2.919 -33.310  1.00  0.00     0.169 HD
HETATM   35  O   UNL     1     -10.152   5.192 -32.054  1.00  0.00    -0.272 OA
BRANCH  33  36
HETATM   36  C   UNL     1     -10.328   2.903 -33.922  1.00  0.00     0.073 A 
HETATM   37  C   UNL     1     -10.987   3.411 -35.049  1.00  0.00     0.143 A 
HETATM   38  F   UNL     1     -10.514   4.464 -35.729  1.00  0.00    -0.204 F 
HETATM   39  C   UNL     1     -12.120   2.780 -35.565  1.00  0.00     0.044 A 
HETATM   40  C   UNL     1     -12.601   1.616 -34.974  1.00  0.00     0.003 A 
HETATM   41  C   UNL     1     -11.935   1.074 -33.877  1.00  0.00     0.002 A 
HETATM   42  C   UNL     1     -10.801   1.709 -33.359  1.00  0.00     0.033 A 
ENDBRANCH  33  36
ENDBRANCH  31  32
ENDBRANCH  30  31
ENDBRANCH   6  30
TORSDOF 8
ENDMDL
MODEL 9
REMARK VINA RESULT:      -9.5      3.826      6.279
REMARK  8 active torsions:
REMARK  status: ('A' for Active; 'I' for Inactive)
REMARK    1  A    between atoms: C_6  and  S_7 
REMARK    2  A    between atoms: S_7  and  C_8 
REMARK    3  A    between atoms: C_8  and  C_9 
REMARK       I    between atoms: C_9  and  N_10 
REMARK    4  A    between atoms: N_10  and  C_11 
REMARK    5  A    between atoms: C_24  and  C_25 
REMARK    6  A    between atoms: C_25  and  C_26 
REMARK       I    between atoms: C_26  and  N_27 
REMARK    7  A    between atoms: N_27  and  C_28 
REMARK    8  A    between atoms: C_28  and  C_29 
ROOT
HETATM    1  C   UNL     1      -7.963  -0.122 -35.133  1.00  0.00     0.001 A 
HETATM    2  C   UNL     1      -7.978   1.174 -34.617  1.00  0.00     0.018 A 
HETATM    3  C   UNL     1      -6.915   1.604 -33.820  1.00  0.00     0.039 A 
HETATM    4  C   UNL     1      -5.840   0.758 -33.519  1.00  0.00     0.073 A 
HETATM    5  N   UNL     1      -4.744   1.175 -32.741  1.00  0.00    -0.223 NA
HETATM    6  C   UNL     1      -4.731   2.403 -32.326  1.00  0.00     0.178 A 
HETATM    7  N   UNL     1      -5.750   3.310 -32.573  1.00  0.00    -0.241 N 
HETATM    8  C   UNL     1      -6.845   2.974 -33.302  1.00  0.00     0.147 A 
HETATM    9  N   UNL     1      -7.746   3.893 -33.501  1.00  0.00    -0.256 NA
HETATM   10  C   UNL     1      -5.909   4.615 -32.170  1.00  0.00     0.257 C 
HETATM   11  O   UNL     1      -5.232   5.275 -31.399  1.00  0.00    -0.270 OA
HETATM   12  C   UNL     1      -7.162   5.108 -32.869  1.00  0.00     0.211 C 
HETATM   13  C   UNL     1      -5.839  -0.536 -34.042  1.00  0.00     0.032 A 
HETATM   14  C   UNL     1      -6.893  -0.974 -34.849  1.00  0.00     0.002 A 
ENDROOT
BRANCH  12  15
HETATM   15  C   UNL     1      -8.080   5.854 -31.917  1.00  0.00     0.140 C 
BRANCH  15  16
HETATM   16  C   UNL     1      -9.352   5.166 -31.482  1.00  0.00     0.220 C 
HETATM   17  N   UNL     1     -10.415   5.357 -32.333  1.00  0.00    -0.357 N 
HETATM   18  H   UNL     1     -10.191   5.364 -33.322  1.00  0.00     0.162 HD
HETATM   19  O   UNL     1      -9.438   4.585 -30.405  1.00  0.00    -0.274 OA
BRANCH  17  20
HETATM   20  C   UNL     1     -11.740   4.925 -31.952  1.00  0.00     0.161 C 
BRANCH  20  21
HETATM   21  C   UNL     1     -12.250   3.765 -32.778  1.00  0.00    -0.038 A 
HETATM   22  C   UNL     1     -13.537   3.262 -32.516  1.00  0.00     0.048 A 
HETATM   23  C   UNL     1     -14.010   2.227 -33.298  1.00  0.00     0.105 A 
HETATM   24  C   UNL     1     -13.264   1.687 -34.316  1.00  0.00     0.105 A 
HETATM   25  O   UNL     1     -15.227   1.631 -33.175  1.00  0.00    -0.323 OA
HETATM   26  O   UNL     1     -13.910   0.679 -34.959  1.00  0.00    -0.323 OA
HETATM   27  C   UNL     1     -12.008   2.162 -34.621  1.00  0.00     0.040 A 
HETATM   28  C   UNL     1     -15.158   0.653 -34.234  1.00  0.00     0.352 A 
HETATM   29  C   UNL     1     -11.506   3.218 -33.852  1.00  0.00     0.012 A 
ENDBRANCH  20  21
ENDBRANCH  17  20
ENDBRANCH  15  16
ENDBRANCH  12  15
BRANCH   6  30
HETATM   30  S   UNL     1      -3.320   2.918 -31.446  1.00  0.00    -0.082 SA
BRANCH  30  31
HETATM   31  C   UNL     1      -2.479   3.812 -32.785  1.00  0.00     0.185 C 
BRANCH  31  32
HETATM   32  C   UNL     1      -1.606   4.920 -32.219  1.00  0.00     0.232 C 
HETATM   33  N   UNL     1      -1.866   5.184 -30.882  1.00  0.00    -0.324 N 
HETATM   34  H   UNL     1      -2.328   4.434 -30.374  1.00  0.00     0.169 HD
HETATM   35  O   UNL     1      -0.778   5.484 -32.925  1.00  0.00    -0.272 OA
BRANCH  33  36
HETATM   36  C   UNL     1      -1.291   6.212 -30.102  1.00  0.00     0.073 A 
HETATM   37  C   UNL     1      -0.023   6.158 -29.512  1.00  0.00     0.143 A 
HETATM   38  F   UNL     1       0.816   5.136 -29.731  1.00  0.00    -0.204 F 
HETATM   39  C   UNL     1       0.457   7.217 -28.740  1.00  0.00     0.044 A 
HETATM   40  C   UNL     1      -0.317   8.359 -28.562  1.00  0.00     0.003 A 
HETATM   41  C   UNL     1      -1.566   8.447 -29.174  1.00  0.00     0.002 A 
HETATM   42  C   UNL     1      -2.046   7.383 -29.946  1.00  0.00     0.033 A 
ENDBRANCH  33  36
ENDBRANCH  31  32
ENDBRANCH  30  31
ENDBRANCH   6  30
TORSDOF 8
ENDMDL
MODEL 10
REMARK VINA RESULT:      -9.5      1.515      2.060
REMARK  8 active torsions:
REMARK  status: ('A' for Active; 'I' for Inactive)
REMARK    1  A    between atoms: C_6  and  S_7 
REMARK    2  A    between atoms: S_7  and  C_8 
REMARK    3  A    between atoms: C_8  and  C_9 
REMARK       I    between atoms: C_9  and  N_10 
REMARK    4  A    between atoms: N_10  and  C_11 
REMARK    5  A    between atoms: C_24  and  C_25 
REMARK    6  A    between atoms: C_25  and  C_26 
REMARK       I    between atoms: C_26  and  N_27 
REMARK    7  A    between atoms: N_27  and  C_28 
REMARK    8  A    between atoms: C_28  and  C_29 
ROOT
HETATM    1  C   UNL     1      -2.532   5.222 -34.977  1.00  0.00     0.001 A 
HETATM    2  C   UNL     1      -3.888   5.096 -34.676  1.00  0.00     0.018 A 
HETATM    3  C   UNL     1      -4.399   5.738 -33.545  1.00  0.00     0.039 A 
HETATM    4  C   UNL     1      -3.576   6.496 -32.702  1.00  0.00     0.073 A 
HETATM    5  N   UNL     1      -4.070   7.174 -31.572  1.00  0.00    -0.223 NA
HETATM    6  C   UNL     1      -5.343   7.111 -31.341  1.00  0.00     0.178 A 
HETATM    7  N   UNL     1      -6.233   6.386 -32.118  1.00  0.00    -0.241 N 
HETATM    8  C   UNL     1      -5.827   5.695 -33.214  1.00  0.00     0.147 A 
HETATM    9  N   UNL     1      -6.732   5.054 -33.897  1.00  0.00    -0.256 NA
HETATM   10  C   UNL     1      -7.586   6.182 -31.982  1.00  0.00     0.257 C 
HETATM   11  O   UNL     1      -8.331   6.509 -31.073  1.00  0.00    -0.270 OA
HETATM   12  C   UNL     1      -8.008   5.408 -33.217  1.00  0.00     0.211 C 
HETATM   13  C   UNL     1      -2.221   6.611 -33.017  1.00  0.00     0.032 A 
HETATM   14  C   UNL     1      -1.701   5.981 -34.151  1.00  0.00     0.002 A 
ENDROOT
BRANCH  12  15
HETATM   15  C   UNL     1      -8.907   4.235 -32.865  1.00  0.00     0.140 C 
BRANCH  15  16
HETATM   16  C   UNL     1      -8.984   3.089 -33.846  1.00  0.00     0.220 C 
HETATM   17  N   UNL     1      -7.990   2.151 -33.695  1.00  0.00    -0.357 N 
HETATM   18  H   UNL     1      -7.721   1.944 -32.740  1.00  0.00     0.162 HD
HETATM   19  O   UNL     1      -9.804   3.071 -34.757  1.00  0.00    -0.274 OA
BRANCH  17  20
HETATM   20  C   UNL     1      -7.820   1.106 -34.678  1.00  0.00     0.161 C 
BRANCH  20  21
HETATM   21  C   UNL     1      -6.752   0.102 -34.303  1.00  0.00    -0.038 A 
HETATM   22  C   UNL     1      -5.842   0.432 -33.282  1.00  0.00     0.048 A 
HETATM   23  C   UNL     1      -4.893  -0.503 -32.921  1.00  0.00     0.105 A 
HETATM   24  C   UNL     1      -4.820  -1.734 -33.524  1.00  0.00     0.105 A 
HETATM   25  O   UNL     1      -3.946  -0.340 -31.957  1.00  0.00    -0.323 OA
HETATM   26  O   UNL     1      -3.815  -2.500 -33.025  1.00  0.00    -0.323 OA
HETATM   27  C   UNL     1      -5.702  -2.107 -34.513  1.00  0.00     0.040 A 
HETATM   28  C   UNL     1      -3.269  -1.613 -32.027  1.00  0.00     0.352 A 
HETATM   29  C   UNL     1      -6.683  -1.183 -34.893  1.00  0.00     0.012 A 
ENDBRANCH  20  21
ENDBRANCH  17  20
ENDBRANCH  15  16
ENDBRANCH  12  15
BRANCH   6  30
HETATM   30  S   UNL     1      -5.941   8.036 -29.993  1.00  0.00    -0.082 SA
BRANCH  30  31
HETATM   31  C   UNL     1      -5.046   7.182 -28.662  1.00  0.00     0.185 C 
BRANCH  31  32
HETATM   32  C   UNL     1      -3.684   7.820 -28.443  1.00  0.00     0.232 C 
HETATM   33  N   UNL     1      -2.663   6.888 -28.332  1.00  0.00    -0.324 N 
HETATM   34  H   UNL     1      -2.866   5.973 -28.725  1.00  0.00     0.169 HD
HETATM   35  O   UNL     1      -3.570   9.039 -28.377  1.00  0.00    -0.272 OA
BRANCH  33  36
HETATM   36  C   UNL     1      -1.309   7.159 -28.033  1.00  0.00     0.073 A 
HETATM   37  C   UNL     1      -0.369   7.655 -28.945  1.00  0.00     0.143 A 
HETATM   38  F   UNL     1      -0.714   8.022 -30.186  1.00  0.00    -0.204 F 
HETATM   39  C   UNL     1       0.956   7.876 -28.565  1.00  0.00     0.044 A 
HETATM   40  C   UNL     1       1.358   7.623 -27.257  1.00  0.00     0.003 A 
HETATM   41  C   UNL     1       0.428   7.166 -26.326  1.00  0.00     0.002 A 
HETATM   42  C   UNL     1      -0.899   6.943 -26.709  1.00  0.00     0.033 A 
ENDBRANCH  33  36
ENDBRANCH  31  32
ENDBRANCH  30  31
ENDBRANCH   6  30
TORSDOF 8
ENDMDL
