MODEL 1
REMARK VINA RESULT:      -8.7      0.000      0.000
REMARK  4 active torsions:
REMARK  status: ('A' for Active; 'I' for Inactive)
REMARK    1  A    between atoms: C_6  and  N_7 
REMARK       I    between atoms: N_7  and  C_8 
REMARK    2  A    between atoms: C_8  and  C_9 
REMARK    3  A    between atoms: C_10  and  C_11 
REMARK    4  A    between atoms: C_14  and  O_15 
ROOT
HETATM    1  C   UNL     1      -5.865   2.131 -30.882  1.00  0.00     0.062 C 
HETATM    2  C   UNL     1      -7.154   2.845 -30.494  1.00  0.00     0.202 C 
HETATM    3  N   UNL     1      -6.855   4.122 -29.834  1.00  0.00    -0.084 N 
HETATM    4  C   UNL     1      -5.611   4.696 -29.804  1.00  0.00     0.725 A 
HETATM    5  N   UNL     1      -4.572   4.054 -30.374  1.00  0.00    -0.192 N 
HETATM    6  N   UNL     1      -7.740   4.835 -29.107  1.00  0.00    -0.149 NA
HETATM    7  C   UNL     1      -6.980   5.876 -28.745  1.00  0.00     0.275 A 
HETATM    8  N   UNL     1      -5.668   5.826 -29.146  1.00  0.00    -0.054 NA
HETATM    9  C   UNL     1      -4.659   2.748 -30.845  1.00  0.00     0.037 C 
HETATM   10  C   UNL     1      -3.364   2.116 -31.287  1.00  0.00     0.070 C 
HETATM   11  H   UNL     1      -3.648   4.471 -30.304  1.00  0.00     0.184 HD
ENDROOT
BRANCH   1  12
HETATM   12  C   UNL     1      -6.021   0.698 -31.231  1.00  0.00     0.256 C 
HETATM   13  N   UNL     1      -5.867   0.480 -32.586  1.00  0.00    -0.323 N 
HETATM   14  H   UNL     1      -5.717   1.299 -33.159  1.00  0.00     0.169 HD
HETATM   15  O   UNL     1      -6.226  -0.125 -30.352  1.00  0.00    -0.267 OA
BRANCH  13  16
HETATM   16  C   UNL     1      -5.881  -0.758 -33.270  1.00  0.00     0.041 A 
HETATM   17  C   UNL     1      -7.091  -1.204 -33.846  1.00  0.00    -0.035 A 
HETATM   18  C   UNL     1      -7.113  -2.421 -34.554  1.00  0.00     0.015 A 
HETATM   19  C   UNL     1      -8.373  -0.422 -33.739  1.00  0.00     0.050 C 
HETATM   20  C   UNL     1      -5.964  -3.207 -34.686  1.00  0.00    -0.061 A 
HETATM   21  C   UNL     1      -5.991  -4.480 -35.478  1.00  0.00     0.048 C 
HETATM   22  C   UNL     1      -4.774  -2.756 -34.118  1.00  0.00     0.009 A 
HETATM   23  C   UNL     1      -4.736  -1.548 -33.414  1.00  0.00     0.030 A 
ENDBRANCH  13  16
ENDBRANCH   1  12
BRANCH   2  24
HETATM   24  C   UNL     1      -8.099   3.081 -31.667  1.00  0.00    -0.028 A 
HETATM   25  C   UNL     1      -9.379   2.509 -31.659  1.00  0.00     0.012 A 
HETATM   26  C   UNL     1     -10.254   2.710 -32.731  1.00  0.00     0.037 A 
HETATM   27  C   UNL     1      -9.874   3.484 -33.828  1.00  0.00     0.068 A 
HETATM   28  C   UNL     1      -8.603   4.057 -33.847  1.00  0.00     0.037 A 
HETATM   29  C   UNL     1      -7.723   3.858 -32.777  1.00  0.00     0.012 A 
BRANCH  27  30
HETATM   30  O   UNL     1     -10.826   3.601 -34.803  1.00  0.00    -0.356 OA
HETATM   31  C   UNL     1     -11.861   2.626 -34.808  1.00  0.00     0.210 C 
ENDBRANCH  27  30
ENDBRANCH   2  24
TORSDOF 4
ENDMDL
MODEL 2
REMARK VINA RESULT:      -8.6      2.679      4.192
REMARK  4 active torsions:
REMARK  status: ('A' for Active; 'I' for Inactive)
REMARK    1  A    between atoms: C_6  and  N_7 
REMARK       I    between atoms: N_7  and  C_8 
REMARK    2  A    between atoms: C_8  and  C_9 
REMARK    3  A    between atoms: C_10  and  C_11 
REMARK    4  A    between atoms: C_14  and  O_15 
ROOT
HETATM    1  C   UNL     1      -6.201   2.494 -31.473  1.00  0.00     0.062 C 
HETATM    2  C   UNL     1      -6.174   3.939 -31.955  1.00  0.00     0.202 C 
HETATM    3  N   UNL     1      -6.137   4.860 -30.811  1.00  0.00    -0.084 N 
HETATM    4  C   UNL     1      -5.905   4.469 -29.519  1.00  0.00     0.725 A 
HETATM    5  N   UNL     1      -5.734   3.160 -29.245  1.00  0.00    -0.192 N 
HETATM    6  N   UNL     1      -6.414   6.179 -30.880  1.00  0.00    -0.149 NA
HETATM    7  C   UNL     1      -6.238   6.535 -29.602  1.00  0.00     0.275 A 
HETATM    8  N   UNL     1      -5.933   5.516 -28.735  1.00  0.00    -0.054 NA
HETATM    9  C   UNL     1      -5.953   2.158 -30.184  1.00  0.00     0.037 C 
HETATM   10  C   UNL     1      -5.893   0.743 -29.668  1.00  0.00     0.070 C 
HETATM   11  H   UNL     1      -5.607   2.881 -28.276  1.00  0.00     0.184 HD
ENDROOT
BRANCH   1  12
HETATM   12  C   UNL     1      -6.587   1.496 -32.501  1.00  0.00     0.256 C 
HETATM   13  N   UNL     1      -5.766   0.386 -32.473  1.00  0.00    -0.323 N 
HETATM   14  H   UNL     1      -5.003   0.407 -31.810  1.00  0.00     0.169 HD
HETATM   15  O   UNL     1      -7.553   1.704 -33.220  1.00  0.00    -0.267 OA
BRANCH  13  16
HETATM   16  C   UNL     1      -5.873  -0.788 -33.254  1.00  0.00     0.041 A 
HETATM   17  C   UNL     1      -4.695  -1.489 -33.594  1.00  0.00    -0.035 A 
HETATM   18  C   UNL     1      -4.787  -2.675 -34.347  1.00  0.00     0.015 A 
HETATM   19  C   UNL     1      -3.326  -1.020 -33.175  1.00  0.00     0.050 C 
HETATM   20  C   UNL     1      -6.023  -3.167 -34.781  1.00  0.00    -0.061 A 
HETATM   21  C   UNL     1      -6.112  -4.453 -35.546  1.00  0.00     0.048 C 
HETATM   22  C   UNL     1      -7.180  -2.470 -34.435  1.00  0.00     0.009 A 
HETATM   23  C   UNL     1      -7.104  -1.292 -33.686  1.00  0.00     0.030 A 
ENDBRANCH  13  16
ENDBRANCH   1  12
BRANCH   2  24
HETATM   24  C   UNL     1      -5.019   4.247 -32.901  1.00  0.00    -0.028 A 
HETATM   25  C   UNL     1      -3.699   4.012 -32.493  1.00  0.00     0.012 A 
HETATM   26  C   UNL     1      -2.629   4.295 -33.347  1.00  0.00     0.037 A 
HETATM   27  C   UNL     1      -2.852   4.817 -34.622  1.00  0.00     0.068 A 
HETATM   28  C   UNL     1      -4.161   5.055 -35.039  1.00  0.00     0.037 A 
HETATM   29  C   UNL     1      -5.235   4.775 -34.187  1.00  0.00     0.012 A 
BRANCH  27  30
HETATM   30  O   UNL     1      -1.718   5.046 -35.353  1.00  0.00    -0.356 OA
HETATM   31  C   UNL     1      -0.681   5.777 -34.713  1.00  0.00     0.210 C 
ENDBRANCH  27  30
ENDBRANCH   2  24
TORSDOF 4
ENDMDL
MODEL 3
REMARK VINA RESULT:      -8.6      2.817      4.889
REMARK  4 active torsions:
REMARK  status: ('A' for Active; 'I' for Inactive)
REMARK    1  A    between atoms: C_6  and  N_7 
REMARK       I    between atoms: N_7  and  C_8 
REMARK    2  A    between atoms: C_8  and  C_9 
REMARK    3  A    between atoms: C_10  and  C_11 
REMARK    4  A    between atoms: C_14  and  O_15 
ROOT
HETATM    1  C   UNL     1      -8.922   1.308 -33.798  1.00  0.00     0.062 C 
HETATM    2  C   UNL     1      -8.529   2.753 -34.079  1.00  0.00     0.202 C 
HETATM    3  N   UNL     1      -9.630   3.661 -33.735  1.00  0.00    -0.084 N 
HETATM    4  C   UNL     1     -10.743   3.284 -33.030  1.00  0.00     0.725 A 
HETATM    5  N   UNL     1     -10.881   1.998 -32.650  1.00  0.00    -0.192 N 
HETATM    6  N   UNL     1      -9.722   4.944 -34.144  1.00  0.00    -0.149 NA
HETATM    7  C   UNL     1     -10.875   5.303 -33.569  1.00  0.00     0.275 A 
HETATM    8  N   UNL     1     -11.536   4.314 -32.884  1.00  0.00    -0.054 NA
HETATM    9  C   UNL     1     -10.029   0.987 -33.086  1.00  0.00     0.037 C 
HETATM   10  C   UNL     1     -10.427  -0.418 -32.714  1.00  0.00     0.070 C 
HETATM   11  H   UNL     1     -11.732   1.725 -32.167  1.00  0.00     0.184 HD
ENDROOT
BRANCH   1  12
HETATM   12  C   UNL     1      -8.047   0.285 -34.421  1.00  0.00     0.256 C 
HETATM   13  N   UNL     1      -7.234  -0.330 -33.489  1.00  0.00    -0.323 N 
HETATM   14  H   UNL     1      -7.300   0.010 -32.540  1.00  0.00     0.169 HD
HETATM   15  O   UNL     1      -8.130   0.059 -35.618  1.00  0.00    -0.267 OA
BRANCH  13  16
HETATM   16  C   UNL     1      -6.325  -1.393 -33.703  1.00  0.00     0.041 A 
HETATM   17  C   UNL     1      -5.013  -1.280 -33.191  1.00  0.00    -0.035 A 
HETATM   18  C   UNL     1      -4.106  -2.342 -33.370  1.00  0.00     0.015 A 
HETATM   19  C   UNL     1      -4.539  -0.060 -32.446  1.00  0.00     0.050 C 
HETATM   20  C   UNL     1      -4.471  -3.502 -34.061  1.00  0.00    -0.061 A 
HETATM   21  C   UNL     1      -3.510  -4.642 -34.209  1.00  0.00     0.048 C 
HETATM   22  C   UNL     1      -5.770  -3.605 -34.558  1.00  0.00     0.009 A 
HETATM   23  C   UNL     1      -6.683  -2.560 -34.385  1.00  0.00     0.030 A 
ENDBRANCH  13  16
ENDBRANCH   1  12
BRANCH   2  24
HETATM   24  C   UNL     1      -7.256   3.191 -33.362  1.00  0.00    -0.028 A 
HETATM   25  C   UNL     1      -7.140   3.015 -31.976  1.00  0.00     0.012 A 
HETATM   26  C   UNL     1      -5.982   3.418 -31.303  1.00  0.00     0.037 A 
HETATM   27  C   UNL     1      -4.920   4.000 -31.996  1.00  0.00     0.068 A 
HETATM   28  C   UNL     1      -5.025   4.181 -33.374  1.00  0.00     0.037 A 
HETATM   29  C   UNL     1      -6.183   3.781 -34.052  1.00  0.00     0.012 A 
BRANCH  27  30
HETATM   30  O   UNL     1      -3.850   4.345 -31.217  1.00  0.00    -0.356 OA
HETATM   31  C   UNL     1      -2.568   3.930 -31.669  1.00  0.00     0.210 C 
ENDBRANCH  27  30
ENDBRANCH   2  24
TORSDOF 4
ENDMDL
MODEL 4
REMARK VINA RESULT:      -8.1      2.589      5.755
REMARK  4 active torsions:
REMARK  status: ('A' for Active; 'I' for Inactive)
REMARK    1  A    between atoms: C_6  and  N_7 
REMARK       I    between atoms: N_7  and  C_8 
REMARK    2  A    between atoms: C_8  and  C_9 
REMARK    3  A    between atoms: C_10  and  C_11 
REMARK    4  A    between atoms: C_14  and  O_15 
ROOT
HETATM    1  C   UNL     1      -7.753   3.494 -32.123  1.00  0.00     0.062 C 
HETATM    2  C   UNL     1      -7.086   3.272 -33.475  1.00  0.00     0.202 C 
HETATM    3  N   UNL     1      -5.904   4.133 -33.611  1.00  0.00    -0.084 N 
HETATM    4  C   UNL     1      -5.345   4.837 -32.577  1.00  0.00     0.725 A 
HETATM    5  N   UNL     1      -5.917   4.787 -31.357  1.00  0.00    -0.192 N 
HETATM    6  N   UNL     1      -5.283   4.403 -34.778  1.00  0.00    -0.149 NA
HETATM    7  C   UNL     1      -4.301   5.207 -34.354  1.00  0.00     0.275 A 
HETATM    8  N   UNL     1      -4.307   5.503 -33.014  1.00  0.00    -0.054 NA
HETATM    9  C   UNL     1      -7.153   4.190 -31.128  1.00  0.00     0.037 C 
HETATM   10  C   UNL     1      -7.732   4.377 -29.748  1.00  0.00     0.070 C 
HETATM   11  H   UNL     1      -5.517   5.350 -30.611  1.00  0.00     0.184 HD
ENDROOT
BRANCH   1  12
HETATM   12  C   UNL     1      -9.130   2.955 -32.005  1.00  0.00     0.256 C 
HETATM   13  N   UNL     1      -9.757   2.878 -33.233  1.00  0.00    -0.323 N 
HETATM   14  H   UNL     1      -9.238   3.226 -34.027  1.00  0.00     0.169 HD
HETATM   15  O   UNL     1      -9.561   2.616 -30.914  1.00  0.00    -0.267 OA
BRANCH  13  16
HETATM   16  C   UNL     1     -11.041   2.355 -33.517  1.00  0.00     0.041 A 
HETATM   17  C   UNL     1     -11.242   0.959 -33.433  1.00  0.00    -0.035 A 
HETATM   18  C   UNL     1     -12.520   0.427 -33.684  1.00  0.00     0.015 A 
HETATM   19  C   UNL     1     -10.133   0.004 -33.075  1.00  0.00     0.050 C 
HETATM   20  C   UNL     1     -13.596   1.250 -34.033  1.00  0.00    -0.061 A 
HETATM   21  C   UNL     1     -14.962   0.676 -34.257  1.00  0.00     0.048 C 
HETATM   22  C   UNL     1     -13.388   2.627 -34.108  1.00  0.00     0.009 A 
HETATM   23  C   UNL     1     -12.124   3.170 -33.858  1.00  0.00     0.030 A 
ENDBRANCH  13  16
ENDBRANCH   1  12
BRANCH   2  24
HETATM   24  C   UNL     1      -6.699   1.820 -33.735  1.00  0.00    -0.028 A 
HETATM   25  C   UNL     1      -7.184   1.161 -34.873  1.00  0.00     0.012 A 
HETATM   26  C   UNL     1      -6.844  -0.172 -35.121  1.00  0.00     0.037 A 
HETATM   27  C   UNL     1      -6.014  -0.873 -34.244  1.00  0.00     0.068 A 
HETATM   28  C   UNL     1      -5.526  -0.227 -33.109  1.00  0.00     0.037 A 
HETATM   29  C   UNL     1      -5.865   1.107 -32.855  1.00  0.00     0.012 A 
BRANCH  27  30
HETATM   30  O   UNL     1      -5.760  -2.167 -34.608  1.00  0.00    -0.356 OA
HETATM   31  C   UNL     1      -4.489  -2.695 -34.252  1.00  0.00     0.210 C 
ENDBRANCH  27  30
ENDBRANCH   2  24
TORSDOF 4
ENDMDL
MODEL 5
REMARK VINA RESULT:      -8.1      3.075      6.663
REMARK  4 active torsions:
REMARK  status: ('A' for Active; 'I' for Inactive)
REMARK    1  A    between atoms: C_6  and  N_7 
REMARK       I    between atoms: N_7  and  C_8 
REMARK    2  A    between atoms: C_8  and  C_9 
REMARK    3  A    between atoms: C_10  and  C_11 
REMARK    4  A    between atoms: C_14  and  O_15 
ROOT
HETATM    1  C   UNL     1      -8.504   2.942 -33.168  1.00  0.00     0.062 C 
HETATM    2  C   UNL     1      -8.897   1.502 -32.862  1.00  0.00     0.202 C 
HETATM    3  N   UNL     1     -10.259   1.229 -33.338  1.00  0.00    -0.084 N 
HETATM    4  C   UNL     1     -10.966   2.068 -34.159  1.00  0.00     0.725 A 
HETATM    5  N   UNL     1     -10.419   3.241 -34.537  1.00  0.00    -0.192 N 
HETATM    6  N   UNL     1     -11.006   0.172 -32.957  1.00  0.00    -0.149 NA
HETATM    7  C   UNL     1     -12.122   0.394 -33.662  1.00  0.00     0.275 A 
HETATM    8  N   UNL     1     -12.141   1.547 -34.406  1.00  0.00    -0.054 NA
HETATM    9  C   UNL     1      -9.233   3.728 -33.997  1.00  0.00     0.037 C 
HETATM   10  C   UNL     1      -8.853   5.132 -34.394  1.00  0.00     0.070 C 
HETATM   11  H   UNL     1     -10.973   3.871 -35.109  1.00  0.00     0.184 HD
ENDROOT
BRANCH   1  12
HETATM   12  C   UNL     1      -7.311   3.437 -32.439  1.00  0.00     0.256 C 
HETATM   13  N   UNL     1      -6.217   3.564 -33.272  1.00  0.00    -0.323 N 
HETATM   14  H   UNL     1      -6.345   3.273 -34.231  1.00  0.00     0.169 HD
HETATM   15  O   UNL     1      -7.391   3.706 -31.250  1.00  0.00    -0.267 OA
BRANCH  13  16
HETATM   16  C   UNL     1      -4.935   4.068 -32.946  1.00  0.00     0.041 A 
HETATM   17  C   UNL     1      -3.954   3.173 -32.465  1.00  0.00    -0.035 A 
HETATM   18  C   UNL     1      -2.666   3.654 -32.164  1.00  0.00     0.015 A 
HETATM   19  C   UNL     1      -4.228   1.705 -32.264  1.00  0.00     0.050 C 
HETATM   20  C   UNL     1      -2.341   5.006 -32.315  1.00  0.00    -0.061 A 
HETATM   21  C   UNL     1      -0.954   5.499 -32.031  1.00  0.00     0.048 C 
HETATM   22  C   UNL     1      -3.315   5.880 -32.795  1.00  0.00     0.009 A 
HETATM   23  C   UNL     1      -4.598   5.416 -33.101  1.00  0.00     0.030 A 
ENDBRANCH  13  16
ENDBRANCH   1  12
BRANCH   2  24
HETATM   24  C   UNL     1      -7.933   0.470 -33.437  1.00  0.00    -0.028 A 
HETATM   25  C   UNL     1      -7.834   0.303 -34.825  1.00  0.00     0.012 A 
HETATM   26  C   UNL     1      -6.960  -0.643 -35.367  1.00  0.00     0.037 A 
HETATM   27  C   UNL     1      -6.169  -1.441 -34.539  1.00  0.00     0.068 A 
HETATM   28  C   UNL     1      -6.260  -1.285 -33.157  1.00  0.00     0.037 A 
HETATM   29  C   UNL     1      -7.134  -0.339 -32.609  1.00  0.00     0.012 A 
BRANCH  27  30
HETATM   30  O   UNL     1      -5.359  -2.324 -35.200  1.00  0.00    -0.356 OA
HETATM   31  C   UNL     1      -4.553  -3.178 -34.398  1.00  0.00     0.210 C 
ENDBRANCH  27  30
ENDBRANCH   2  24
TORSDOF 4
ENDMDL
MODEL 6
REMARK VINA RESULT:      -7.9      1.527      1.980
REMARK  4 active torsions:
REMARK  status: ('A' for Active; 'I' for Inactive)
REMARK    1  A    between atoms: C_6  and  N_7 
REMARK       I    between atoms: N_7  and  C_8 
REMARK    2  A    between atoms: C_8  and  C_9 
REMARK    3  A    between atoms: C_10  and  C_11 
REMARK    4  A    between atoms: C_14  and  O_15 
ROOT
HETATM    1  C   UNL     1      -4.563   3.173 -31.303  1.00  0.00     0.062 C 
HETATM    2  C   UNL     1      -5.586   3.691 -30.299  1.00  0.00     0.202 C 
HETATM    3  N   UNL     1      -5.242   5.054 -29.873  1.00  0.00    -0.084 N 
HETATM    4  C   UNL     1      -4.290   5.830 -30.482  1.00  0.00     0.725 A 
HETATM    5  N   UNL     1      -3.584   5.324 -31.512  1.00  0.00    -0.192 N 
HETATM    6  N   UNL     1      -5.752   5.669 -28.786  1.00  0.00    -0.149 NA
HETATM    7  C   UNL     1      -5.128   6.850 -28.856  1.00  0.00     0.275 A 
HETATM    8  N   UNL     1      -4.219   6.987 -29.876  1.00  0.00    -0.054 NA
HETATM    9  C   UNL     1      -3.648   3.985 -31.886  1.00  0.00     0.037 C 
HETATM   10  C   UNL     1      -2.664   3.544 -32.939  1.00  0.00     0.070 C 
HETATM   11  H   UNL     1      -2.851   5.895 -31.924  1.00  0.00     0.184 HD
ENDROOT
BRANCH   1  12
HETATM   12  C   UNL     1      -4.599   1.709 -31.538  1.00  0.00     0.256 C 
HETATM   13  N   UNL     1      -5.374   1.384 -32.634  1.00  0.00    -0.323 N 
HETATM   14  H   UNL     1      -5.841   2.150 -33.099  1.00  0.00     0.169 HD
HETATM   15  O   UNL     1      -3.960   0.960 -30.816  1.00  0.00    -0.267 OA
BRANCH  13  16
HETATM   16  C   UNL     1      -5.583   0.102 -33.196  1.00  0.00     0.041 A 
HETATM   17  C   UNL     1      -6.902  -0.302 -33.498  1.00  0.00    -0.035 A 
HETATM   18  C   UNL     1      -7.123  -1.563 -34.084  1.00  0.00     0.015 A 
HETATM   19  C   UNL     1      -8.098   0.572 -33.222  1.00  0.00     0.050 C 
HETATM   20  C   UNL     1      -6.063  -2.433 -34.359  1.00  0.00    -0.061 A 
HETATM   21  C   UNL     1      -6.308  -3.756 -35.021  1.00  0.00     0.048 C 
HETATM   22  C   UNL     1      -4.764  -2.022 -34.062  1.00  0.00     0.009 A 
HETATM   23  C   UNL     1      -4.529  -0.772 -33.482  1.00  0.00     0.030 A 
ENDBRANCH  13  16
ENDBRANCH   1  12
BRANCH   2  24
HETATM   24  C   UNL     1      -7.020   3.659 -30.815  1.00  0.00    -0.028 A 
HETATM   25  C   UNL     1      -7.342   4.290 -32.025  1.00  0.00     0.012 A 
HETATM   26  C   UNL     1      -8.654   4.275 -32.507  1.00  0.00     0.037 A 
HETATM   27  C   UNL     1      -9.669   3.632 -31.797  1.00  0.00     0.068 A 
HETATM   28  C   UNL     1      -9.360   3.002 -30.593  1.00  0.00     0.037 A 
HETATM   29  C   UNL     1      -8.048   3.015 -30.104  1.00  0.00     0.012 A 
BRANCH  27  30
HETATM   30  O   UNL     1     -10.903   3.693 -32.383  1.00  0.00    -0.356 OA
HETATM   31  C   UNL     1     -11.660   4.876 -32.162  1.00  0.00     0.210 C 
ENDBRANCH  27  30
ENDBRANCH   2  24
TORSDOF 4
ENDMDL
MODEL 7
REMARK VINA RESULT:      -7.9     16.433     18.956
REMARK  4 active torsions:
REMARK  status: ('A' for Active; 'I' for Inactive)
REMARK    1  A    between atoms: C_6  and  N_7 
REMARK       I    between atoms: N_7  and  C_8 
REMARK    2  A    between atoms: C_8  and  C_9 
REMARK    3  A    between atoms: C_10  and  C_11 
REMARK    4  A    between atoms: C_14  and  O_15 
ROOT
HETATM    1  C   UNL     1      -2.342 -13.857 -38.282  1.00  0.00     0.062 C 
HETATM    2  C   UNL     1      -1.382 -14.029 -39.452  1.00  0.00     0.202 C 
HETATM    3  N   UNL     1      -0.094 -14.558 -38.986  1.00  0.00    -0.084 N 
HETATM    4  C   UNL     1       0.119 -15.060 -37.729  1.00  0.00     0.725 A 
HETATM    5  N   UNL     1      -0.887 -15.043 -36.831  1.00  0.00    -0.192 N 
HETATM    6  N   UNL     1       1.049 -14.534 -39.703  1.00  0.00    -0.149 NA
HETATM    7  C   UNL     1       1.890 -15.122 -38.844  1.00  0.00     0.275 A 
HETATM    8  N   UNL     1       1.362 -15.453 -37.621  1.00  0.00    -0.054 NA
HETATM    9  C   UNL     1      -2.090 -14.382 -37.058  1.00  0.00     0.037 C 
HETATM   10  C   UNL     1      -3.035 -14.308 -35.887  1.00  0.00     0.070 C 
HETATM   11  H   UNL     1      -0.700 -15.377 -35.889  1.00  0.00     0.184 HD
ENDROOT
BRANCH   1  12
HETATM   12  C   UNL     1      -3.531 -13.016 -38.562  1.00  0.00     0.256 C 
HETATM   13  N   UNL     1      -4.602 -13.770 -39.000  1.00  0.00    -0.323 N 
HETATM   14  H   UNL     1      -4.438 -14.760 -39.114  1.00  0.00     0.169 HD
HETATM   15  O   UNL     1      -3.485 -11.811 -38.367  1.00  0.00    -0.267 OA
BRANCH  13  16
HETATM   16  C   UNL     1      -5.911 -13.323 -39.296  1.00  0.00     0.041 A 
HETATM   17  C   UNL     1      -6.867 -13.278 -38.257  1.00  0.00    -0.035 A 
HETATM   18  C   UNL     1      -8.165 -12.808 -38.531  1.00  0.00     0.015 A 
HETATM   19  C   UNL     1      -6.551 -13.711 -36.850  1.00  0.00     0.050 C 
HETATM   20  C   UNL     1      -8.535 -12.399 -39.816  1.00  0.00    -0.061 A 
HETATM   21  C   UNL     1      -9.908 -11.861 -40.085  1.00  0.00     0.048 C 
HETATM   22  C   UNL     1      -7.583 -12.442 -40.834  1.00  0.00     0.009 A 
HETATM   23  C   UNL     1      -6.288 -12.904 -40.576  1.00  0.00     0.030 A 
ENDBRANCH  13  16
ENDBRANCH   1  12
BRANCH   2  24
HETATM   24  C   UNL     1      -1.929 -14.913 -40.567  1.00  0.00    -0.028 A 
HETATM   25  C   UNL     1      -2.476 -14.329 -41.718  1.00  0.00     0.012 A 
HETATM   26  C   UNL     1      -2.988 -15.126 -42.746  1.00  0.00     0.037 A 
HETATM   27  C   UNL     1      -2.964 -16.519 -42.649  1.00  0.00     0.068 A 
HETATM   28  C   UNL     1      -2.423 -17.111 -41.508  1.00  0.00     0.037 A 
HETATM   29  C   UNL     1      -1.911 -16.316 -40.476  1.00  0.00     0.012 A 
BRANCH  27  30
HETATM   30  O   UNL     1      -3.495 -17.176 -43.725  1.00  0.00    -0.356 OA
HETATM   31  C   UNL     1      -3.695 -16.412 -44.907  1.00  0.00     0.210 C 
ENDBRANCH  27  30
ENDBRANCH   2  24
TORSDOF 4
ENDMDL
MODEL 8
REMARK VINA RESULT:      -7.8      3.007      5.177
REMARK  4 active torsions:
REMARK  status: ('A' for Active; 'I' for Inactive)
REMARK    1  A    between atoms: C_6  and  N_7 
REMARK       I    between atoms: N_7  and  C_8 
REMARK    2  A    between atoms: C_8  and  C_9 
REMARK    3  A    between atoms: C_10  and  C_11 
REMARK    4  A    between atoms: C_14  and  O_15 
ROOT
HETATM    1  C   UNL     1      -9.857   2.040 -33.665  1.00  0.00     0.062 C 
HETATM    2  C   UNL     1      -9.063   3.340 -33.708  1.00  0.00     0.202 C 
HETATM    3  N   UNL     1      -9.833   4.388 -34.391  1.00  0.00    -0.084 N 
HETATM    4  C   UNL     1     -11.161   4.279 -34.711  1.00  0.00     0.725 A 
HETATM    5  N   UNL     1     -11.817   3.136 -34.429  1.00  0.00    -0.192 N 
HETATM    6  N   UNL     1      -9.309   5.539 -34.862  1.00  0.00    -0.149 NA
HETATM    7  C   UNL     1     -10.403   6.116 -35.374  1.00  0.00     0.275 A 
HETATM    8  N   UNL     1     -11.556   5.374 -35.308  1.00  0.00    -0.054 NA
HETATM    9  C   UNL     1     -11.173   1.987 -33.981  1.00  0.00     0.037 C 
HETATM   10  C   UNL     1     -12.024   0.747 -33.885  1.00  0.00     0.070 C 
HETATM   11  H   UNL     1     -12.790   3.054 -34.712  1.00  0.00     0.184 HD
ENDROOT
BRANCH   1  12
HETATM   12  C   UNL     1      -9.067   0.832 -33.323  1.00  0.00     0.256 C 
HETATM   13  N   UNL     1      -8.072   0.590 -34.249  1.00  0.00    -0.323 N 
HETATM   14  H   UNL     1      -8.032   1.216 -35.042  1.00  0.00     0.169 HD
HETATM   15  O   UNL     1      -9.319   0.208 -32.304  1.00  0.00    -0.267 OA
BRANCH  13  16
HETATM   16  C   UNL     1      -7.087  -0.426 -34.216  1.00  0.00     0.041 A 
HETATM   17  C   UNL     1      -5.830  -0.137 -33.640  1.00  0.00    -0.035 A 
HETATM   18  C   UNL     1      -4.851  -1.146 -33.573  1.00  0.00     0.015 A 
HETATM   19  C   UNL     1      -5.491   1.220 -33.080  1.00  0.00     0.050 C 
HETATM   20  C   UNL     1      -5.090  -2.427 -34.082  1.00  0.00    -0.061 A 
HETATM   21  C   UNL     1      -4.054  -3.504 -33.967  1.00  0.00     0.048 C 
HETATM   22  C   UNL     1      -6.336  -2.703 -34.644  1.00  0.00     0.009 A 
HETATM   23  C   UNL     1      -7.319  -1.711 -34.715  1.00  0.00     0.030 A 
ENDBRANCH  13  16
ENDBRANCH   1  12
BRANCH   2  24
HETATM   24  C   UNL     1      -8.625   3.835 -32.334  1.00  0.00    -0.028 A 
HETATM   25  C   UNL     1      -7.283   4.170 -32.107  1.00  0.00     0.012 A 
HETATM   26  C   UNL     1      -6.865   4.619 -30.851  1.00  0.00     0.037 A 
HETATM   27  C   UNL     1      -7.773   4.744 -29.799  1.00  0.00     0.068 A 
HETATM   28  C   UNL     1      -9.110   4.412 -30.013  1.00  0.00     0.037 A 
HETATM   29  C   UNL     1      -9.534   3.961 -31.268  1.00  0.00     0.012 A 
BRANCH  27  30
HETATM   30  O   UNL     1      -7.232   5.194 -28.626  1.00  0.00    -0.356 OA
HETATM   31  C   UNL     1      -6.415   6.355 -28.702  1.00  0.00     0.210 C 
ENDBRANCH  27  30
ENDBRANCH   2  24
TORSDOF 4
ENDMDL
MODEL 9
REMARK VINA RESULT:      -7.8     15.591     17.509
REMARK  4 active torsions:
REMARK  status: ('A' for Active; 'I' for Inactive)
REMARK    1  A    between atoms: C_6  and  N_7 
REMARK       I    between atoms: N_7  and  C_8 
REMARK    2  A    between atoms: C_8  and  C_9 
REMARK    3  A    between atoms: C_10  and  C_11 
REMARK    4  A    between atoms: C_14  and  O_15 
ROOT
HETATM    1  C   UNL     1      -4.698 -14.257 -37.571  1.00  0.00     0.062 C 
HETATM    2  C   UNL     1      -6.005 -14.674 -36.907  1.00  0.00     0.202 C 
HETATM    3  N   UNL     1      -6.085 -14.130 -35.546  1.00  0.00    -0.084 N 
HETATM    4  C   UNL     1      -5.230 -13.182 -35.047  1.00  0.00     0.725 A 
HETATM    5  N   UNL     1      -4.220 -12.732 -35.818  1.00  0.00    -0.192 N 
HETATM    6  N   UNL     1      -6.947 -14.558 -34.599  1.00  0.00    -0.149 NA
HETATM    7  C   UNL     1      -6.612 -13.756 -33.582  1.00  0.00     0.275 A 
HETATM    8  N   UNL     1      -5.561 -12.904 -33.812  1.00  0.00    -0.054 NA
HETATM    9  C   UNL     1      -3.892 -13.305 -37.042  1.00  0.00     0.037 C 
HETATM   10  C   UNL     1      -2.629 -12.800 -37.691  1.00  0.00     0.070 C 
HETATM   11  H   UNL     1      -3.568 -12.062 -35.418  1.00  0.00     0.184 HD
ENDROOT
BRANCH   1  12
HETATM   12  C   UNL     1      -4.344 -15.017 -38.794  1.00  0.00     0.256 C 
HETATM   13  N   UNL     1      -4.751 -14.364 -39.941  1.00  0.00    -0.323 N 
HETATM   14  H   UNL     1      -5.262 -13.502 -39.811  1.00  0.00     0.169 HD
HETATM   15  O   UNL     1      -3.734 -16.071 -38.701  1.00  0.00    -0.267 OA
BRANCH  13  16
HETATM   16  C   UNL     1      -4.528 -14.753 -41.283  1.00  0.00     0.041 A 
HETATM   17  C   UNL     1      -5.634 -15.129 -42.076  1.00  0.00    -0.035 A 
HETATM   18  C   UNL     1      -5.430 -15.491 -43.422  1.00  0.00     0.015 A 
HETATM   19  C   UNL     1      -7.041 -15.156 -41.540  1.00  0.00     0.050 C 
HETATM   20  C   UNL     1      -4.150 -15.500 -43.987  1.00  0.00    -0.061 A 
HETATM   21  C   UNL     1      -3.951 -15.846 -45.432  1.00  0.00     0.048 C 
HETATM   22  C   UNL     1      -3.066 -15.121 -43.196  1.00  0.00     0.009 A 
HETATM   23  C   UNL     1      -3.253 -14.758 -41.859  1.00  0.00     0.030 A 
ENDBRANCH  13  16
ENDBRANCH   1  12
BRANCH   2  24
HETATM   24  C   UNL     1      -7.247 -14.273 -37.696  1.00  0.00    -0.028 A 
HETATM   25  C   UNL     1      -7.439 -12.934 -38.065  1.00  0.00     0.012 A 
HETATM   26  C   UNL     1      -8.576 -12.551 -38.782  1.00  0.00     0.037 A 
HETATM   27  C   UNL     1      -9.541 -13.490 -39.147  1.00  0.00     0.068 A 
HETATM   28  C   UNL     1      -9.361 -14.824 -38.785  1.00  0.00     0.037 A 
HETATM   29  C   UNL     1      -8.225 -15.213 -38.066  1.00  0.00     0.012 A 
BRANCH  27  30
HETATM   30  O   UNL     1     -10.600 -12.980 -39.847  1.00  0.00    -0.356 OA
HETATM   31  C   UNL     1     -10.445 -11.671 -40.379  1.00  0.00     0.210 C 
ENDBRANCH  27  30
ENDBRANCH   2  24
TORSDOF 4
ENDMDL
MODEL 10
REMARK VINA RESULT:      -7.6      1.576      2.054
REMARK  4 active torsions:
REMARK  status: ('A' for Active; 'I' for Inactive)
REMARK    1  A    between atoms: C_6  and  N_7 
REMARK       I    between atoms: N_7  and  C_8 
REMARK    2  A    between atoms: C_8  and  C_9 
REMARK    3  A    between atoms: C_10  and  C_11 
REMARK    4  A    between atoms: C_14  and  O_15 
ROOT
HETATM    1  C   UNL     1      -6.063   3.246 -32.464  1.00  0.00     0.062 C 
HETATM    2  C   UNL     1      -7.209   3.273 -31.461  1.00  0.00     0.202 C 
HETATM    3  N   UNL     1      -6.896   4.178 -30.347  1.00  0.00    -0.084 N 
HETATM    4  C   UNL     1      -5.843   5.055 -30.346  1.00  0.00     0.725 A 
HETATM    5  N   UNL     1      -5.004   5.083 -31.401  1.00  0.00    -0.192 N 
HETATM    6  N   UNL     1      -7.546   4.193 -29.165  1.00  0.00    -0.149 NA
HETATM    7  C   UNL     1      -6.886   5.170 -28.534  1.00  0.00     0.275 A 
HETATM    8  N   UNL     1      -5.831   5.719 -29.219  1.00  0.00    -0.054 NA
HETATM    9  C   UNL     1      -5.049   4.144 -32.425  1.00  0.00     0.037 C 
HETATM   10  C   UNL     1      -3.930   4.211 -33.434  1.00  0.00     0.070 C 
HETATM   11  H   UNL     1      -4.202   5.707 -31.365  1.00  0.00     0.184 HD
ENDROOT
BRANCH   1  12
HETATM   12  C   UNL     1      -6.103   2.125 -33.435  1.00  0.00     0.256 C 
HETATM   13  N   UNL     1      -5.864   0.909 -32.825  1.00  0.00    -0.323 N 
HETATM   14  H   UNL     1      -5.654   0.934 -31.837  1.00  0.00     0.169 HD
HETATM   15  O   UNL     1      -6.358   2.345 -34.609  1.00  0.00    -0.267 OA
BRANCH  13  16
HETATM   16  C   UNL     1      -5.890  -0.375 -33.418  1.00  0.00     0.041 A 
HETATM   17  C   UNL     1      -4.680  -1.092 -33.544  1.00  0.00    -0.035 A 
HETATM   18  C   UNL     1      -4.694  -2.383 -34.105  1.00  0.00     0.015 A 
HETATM   19  C   UNL     1      -3.357  -0.530 -33.092  1.00  0.00     0.050 C 
HETATM   20  C   UNL     1      -5.883  -2.966 -34.557  1.00  0.00    -0.061 A 
HETATM   21  C   UNL     1      -5.892  -4.358 -35.115  1.00  0.00     0.048 C 
HETATM   22  C   UNL     1      -7.073  -2.252 -34.424  1.00  0.00     0.009 A 
HETATM   23  C   UNL     1      -7.074  -0.970 -33.865  1.00  0.00     0.030 A 
ENDBRANCH  13  16
ENDBRANCH   1  12
BRANCH   2  24
HETATM   24  C   UNL     1      -8.550   3.659 -32.075  1.00  0.00    -0.028 A 
HETATM   25  C   UNL     1      -9.571   2.704 -32.182  1.00  0.00     0.012 A 
HETATM   26  C   UNL     1     -10.803   3.040 -32.749  1.00  0.00     0.037 A 
HETATM   27  C   UNL     1     -11.044   4.332 -33.220  1.00  0.00     0.068 A 
HETATM   28  C   UNL     1     -10.036   5.290 -33.120  1.00  0.00     0.037 A 
HETATM   29  C   UNL     1      -8.800   4.957 -32.554  1.00  0.00     0.012 A 
BRANCH  27  30
HETATM   30  O   UNL     1     -12.291   4.525 -33.748  1.00  0.00    -0.356 OA
HETATM   31  C   UNL     1     -13.215   3.452 -33.618  1.00  0.00     0.210 C 
ENDBRANCH  27  30
ENDBRANCH   2  24
TORSDOF 4
ENDMDL
