MODEL 1
REMARK VINA RESULT:      -9.6      0.000      0.000
REMARK  5 active torsions:
REMARK  status: ('A' for Active; 'I' for Inactive)
REMARK    1  A    between atoms: C_4  and  C_5 
REMARK    2  A    between atoms: C_5  and  C_6 
REMARK       I    between atoms: C_6  and  N_7 
REMARK    3  A    between atoms: N_7  and  C_8 
REMARK    4  A    between atoms: C_8  and  C_9 
REMARK    5  A    between atoms: N_11  and  C_12 
ROOT
HETATM    1  C   UNL     1      -5.204   1.719 -30.716  1.00  0.00     0.184 C 
ENDROOT
BRANCH   1   2
HETATM    2  N   UNL     1      -4.684   2.901 -31.374  1.00  0.00    -0.354 N 
HETATM    3  C   UNL     1      -3.334   3.150 -31.510  1.00  0.00     0.231 C 
HETATM    4  O   UNL     1      -2.485   2.376 -31.072  1.00  0.00    -0.272 OA
HETATM    5  H   UNL     1      -5.352   3.617 -31.635  1.00  0.00     0.162 HD
BRANCH   3   6
HETATM    6  C   UNL     1      -2.977   4.455 -32.279  1.00  0.00     0.072 C 
HETATM    7  C   UNL     1      -4.310   5.221 -32.517  1.00  0.00     0.050 C 
HETATM    8  C   UNL     1      -4.177   6.336 -33.551  1.00  0.00     0.169 C 
HETATM    9  O   UNL     1      -3.657   5.837 -34.778  1.00  0.00    -0.391 OA
HETATM   10  C   UNL     1      -2.360   5.268 -34.616  1.00  0.00     0.169 C 
HETATM   11  C   UNL     1      -2.436   4.067 -33.686  1.00  0.00     0.050 C 
BRANCH   6  12
HETATM   12  C   UNL     1      -1.907   5.224 -31.469  1.00  0.00    -0.040 A 
HETATM   13  C   UNL     1      -2.310   6.136 -30.473  1.00  0.00     0.008 A 
HETATM   14  C   UNL     1      -1.378   6.860 -29.725  1.00  0.00     0.001 A 
HETATM   15  C   UNL     1      -0.018   6.702 -29.966  1.00  0.00     0.000 A 
HETATM   16  C   UNL     1       0.406   5.829 -30.961  1.00  0.00     0.001 A 
HETATM   17  C   UNL     1      -0.527   5.101 -31.708  1.00  0.00     0.008 A 
ENDBRANCH   6  12
ENDBRANCH   3   6
ENDBRANCH   1   2
BRANCH   1  18
HETATM   18  C   UNL     1      -5.693   0.757 -31.793  1.00  0.00     0.084 A 
HETATM   19  N   UNL     1      -6.808   1.062 -32.389  1.00  0.00    -0.171 NA
HETATM   20  N   UNL     1      -7.296   0.249 -33.382  1.00  0.00    -0.229 N 
HETATM   21  C   UNL     1      -6.702  -0.958 -33.752  1.00  0.00     0.275 A 
HETATM   22  O   UNL     1      -7.182  -1.743 -34.568  1.00  0.00    -0.266 OA
HETATM   23  C   UNL     1      -5.416  -1.287 -33.111  1.00  0.00     0.046 A 
HETATM   24  C   UNL     1      -4.897  -0.442 -32.136  1.00  0.00     0.008 A 
HETATM   25  C   UNL     1      -4.724  -2.446 -33.488  1.00  0.00     0.018 A 
HETATM   26  C   UNL     1      -3.671  -0.758 -31.536  1.00  0.00     0.014 A 
HETATM   27  C   UNL     1      -2.979  -1.912 -31.914  1.00  0.00     0.001 A 
HETATM   28  C   UNL     1      -3.505  -2.757 -32.888  1.00  0.00     0.001 A 
BRANCH  20  29
HETATM   29  C   UNL     1      -8.618   0.568 -33.919  1.00  0.00     0.114 C 
HETATM   30  C   UNL     1      -9.744   0.127 -32.980  1.00  0.00     0.027 C 
HETATM   31  C   UNL     1     -10.931   0.940 -33.465  1.00  0.00     0.002 C 
HETATM   32  C   UNL     1     -10.332   2.313 -33.731  1.00  0.00     0.002 C 
HETATM   33  C   UNL     1      -8.897   2.056 -34.198  1.00  0.00     0.027 C 
ENDBRANCH  20  29
ENDBRANCH   1  18
TORSDOF 5
ENDMDL
MODEL 2
REMARK VINA RESULT:      -9.5      2.744      7.048
REMARK  5 active torsions:
REMARK  status: ('A' for Active; 'I' for Inactive)
REMARK    1  A    between atoms: C_4  and  C_5 
REMARK    2  A    between atoms: C_5  and  C_6 
REMARK       I    between atoms: C_6  and  N_7 
REMARK    3  A    between atoms: N_7  and  C_8 
REMARK    4  A    between atoms: C_8  and  C_9 
REMARK    5  A    between atoms: N_11  and  C_12 
ROOT
HETATM    1  C   UNL     1      -7.118  -0.573 -35.035  1.00  0.00     0.184 C 
ENDROOT
BRANCH   1   2
HETATM    2  N   UNL     1      -7.699   0.650 -34.519  1.00  0.00    -0.354 N 
HETATM    3  C   UNL     1      -8.681   0.663 -33.549  1.00  0.00     0.231 C 
HETATM    4  O   UNL     1      -9.126  -0.376 -33.066  1.00  0.00    -0.272 OA
HETATM    5  H   UNL     1      -7.444   1.515 -34.982  1.00  0.00     0.162 HD
BRANCH   3   6
HETATM    6  C   UNL     1      -9.150   2.077 -33.102  1.00  0.00     0.072 C 
HETATM    7  C   UNL     1      -7.930   3.030 -33.257  1.00  0.00     0.050 C 
HETATM    8  C   UNL     1      -8.123   4.362 -32.537  1.00  0.00     0.169 C 
HETATM    9  O   UNL     1      -8.432   4.162 -31.163  1.00  0.00    -0.391 OA
HETATM   10  C   UNL     1      -9.638   3.422 -30.991  1.00  0.00     0.169 C 
HETATM   11  C   UNL     1      -9.478   2.029 -31.581  1.00  0.00     0.050 C 
BRANCH   6  12
HETATM   12  C   UNL     1     -10.401   2.462 -33.925  1.00  0.00    -0.040 A 
HETATM   13  C   UNL     1     -11.588   1.718 -33.777  1.00  0.00     0.008 A 
HETATM   14  C   UNL     1     -12.738   2.024 -34.509  1.00  0.00     0.001 A 
HETATM   15  C   UNL     1     -12.725   3.074 -35.420  1.00  0.00     0.000 A 
HETATM   16  C   UNL     1     -11.559   3.807 -35.605  1.00  0.00     0.001 A 
HETATM   17  C   UNL     1     -10.408   3.503 -34.871  1.00  0.00     0.008 A 
ENDBRANCH   6  12
ENDBRANCH   3   6
ENDBRANCH   1   2
BRANCH   1  18
HETATM   18  C   UNL     1      -5.949  -0.957 -34.134  1.00  0.00     0.084 A 
HETATM   19  N   UNL     1      -5.495  -0.035 -33.338  1.00  0.00    -0.171 NA
HETATM   20  N   UNL     1      -4.457  -0.320 -32.486  1.00  0.00    -0.229 N 
HETATM   21  C   UNL     1      -3.784  -1.542 -32.471  1.00  0.00     0.275 A 
HETATM   22  O   UNL     1      -2.791  -1.776 -31.785  1.00  0.00    -0.266 OA
HETATM   23  C   UNL     1      -4.323  -2.604 -33.339  1.00  0.00     0.046 A 
HETATM   24  C   UNL     1      -5.403  -2.332 -34.172  1.00  0.00     0.008 A 
HETATM   25  C   UNL     1      -3.745  -3.881 -33.321  1.00  0.00     0.018 A 
HETATM   26  C   UNL     1      -5.914  -3.349 -34.989  1.00  0.00     0.014 A 
HETATM   27  C   UNL     1      -5.340  -4.623 -34.968  1.00  0.00     0.001 A 
HETATM   28  C   UNL     1      -4.255  -4.890 -34.136  1.00  0.00     0.001 A 
BRANCH  20  29
HETATM   29  C   UNL     1      -3.900   0.791 -31.715  1.00  0.00     0.114 C 
HETATM   30  C   UNL     1      -3.437   1.941 -32.613  1.00  0.00     0.027 C 
HETATM   31  C   UNL     1      -3.353   3.113 -31.651  1.00  0.00     0.002 C 
HETATM   32  C   UNL     1      -4.601   2.954 -30.795  1.00  0.00     0.002 C 
HETATM   33  C   UNL     1      -4.841   1.446 -30.689  1.00  0.00     0.027 C 
ENDBRANCH  20  29
ENDBRANCH   1  18
TORSDOF 5
ENDMDL
MODEL 3
REMARK VINA RESULT:      -9.3      1.470      2.299
REMARK  5 active torsions:
REMARK  status: ('A' for Active; 'I' for Inactive)
REMARK    1  A    between atoms: C_4  and  C_5 
REMARK    2  A    between atoms: C_5  and  C_6 
REMARK       I    between atoms: C_6  and  N_7 
REMARK    3  A    between atoms: N_7  and  C_8 
REMARK    4  A    between atoms: C_8  and  C_9 
REMARK    5  A    between atoms: N_11  and  C_12 
ROOT
HETATM    1  C   UNL     1      -5.852   1.436 -30.418  1.00  0.00     0.184 C 
ENDROOT
BRANCH   1   2
HETATM    2  N   UNL     1      -5.698   2.825 -30.802  1.00  0.00    -0.354 N 
HETATM    3  C   UNL     1      -4.493   3.362 -31.203  1.00  0.00     0.231 C 
HETATM    4  O   UNL     1      -3.467   2.686 -31.253  1.00  0.00    -0.272 OA
HETATM    5  H   UNL     1      -6.493   3.436 -30.654  1.00  0.00     0.162 HD
BRANCH   3   6
HETATM    6  C   UNL     1      -4.541   4.863 -31.610  1.00  0.00     0.072 C 
HETATM    7  C   UNL     1      -4.488   5.692 -30.295  1.00  0.00     0.050 C 
HETATM    8  C   UNL     1      -4.874   7.155 -30.499  1.00  0.00     0.169 C 
HETATM    9  O   UNL     1      -6.153   7.265 -31.112  1.00  0.00    -0.391 OA
HETATM   10  C   UNL     1      -6.185   6.647 -32.396  1.00  0.00     0.169 C 
HETATM   11  C   UNL     1      -5.927   5.155 -32.257  1.00  0.00     0.050 C 
BRANCH   6  12
HETATM   12  C   UNL     1      -3.395   5.136 -32.612  1.00  0.00    -0.040 A 
HETATM   13  C   UNL     1      -3.616   4.946 -33.991  1.00  0.00     0.008 A 
HETATM   14  C   UNL     1      -2.606   5.170 -34.930  1.00  0.00     0.001 A 
HETATM   15  C   UNL     1      -1.344   5.575 -34.513  1.00  0.00     0.000 A 
HETATM   16  C   UNL     1      -1.091   5.744 -33.156  1.00  0.00     0.001 A 
HETATM   17  C   UNL     1      -2.103   5.523 -32.215  1.00  0.00     0.008 A 
ENDBRANCH   6  12
ENDBRANCH   3   6
ENDBRANCH   1   2
BRANCH   1  18
HETATM   18  C   UNL     1      -6.218   0.638 -31.665  1.00  0.00     0.084 A 
HETATM   19  N   UNL     1      -7.318   0.973 -32.272  1.00  0.00    -0.171 NA
HETATM   20  N   UNL     1      -7.697   0.308 -33.413  1.00  0.00    -0.229 N 
HETATM   21  C   UNL     1      -7.004  -0.784 -33.936  1.00  0.00     0.275 A 
HETATM   22  O   UNL     1      -7.386  -1.448 -34.897  1.00  0.00    -0.266 OA
HETATM   23  C   UNL     1      -5.734  -1.138 -33.277  1.00  0.00     0.046 A 
HETATM   24  C   UNL     1      -5.325  -0.438 -32.147  1.00  0.00     0.008 A 
HETATM   25  C   UNL     1      -4.946  -2.176 -33.793  1.00  0.00     0.018 A 
HETATM   26  C   UNL     1      -4.113  -0.777 -31.531  1.00  0.00     0.014 A 
HETATM   27  C   UNL     1      -3.326  -1.809 -32.047  1.00  0.00     0.001 A 
HETATM   28  C   UNL     1      -3.741  -2.511 -33.177  1.00  0.00     0.001 A 
BRANCH  20  29
HETATM   29  C   UNL     1      -9.008   0.635 -33.973  1.00  0.00     0.114 C 
HETATM   30  C   UNL     1     -10.153   0.167 -33.071  1.00  0.00     0.027 C 
HETATM   31  C   UNL     1     -11.333   0.986 -33.564  1.00  0.00     0.002 C 
HETATM   32  C   UNL     1     -10.734   2.367 -33.785  1.00  0.00     0.002 C 
HETATM   33  C   UNL     1      -9.288   2.127 -34.225  1.00  0.00     0.027 C 
ENDBRANCH  20  29
ENDBRANCH   1  18
TORSDOF 5
ENDMDL
MODEL 4
REMARK VINA RESULT:      -9.1      2.810      7.013
REMARK  5 active torsions:
REMARK  status: ('A' for Active; 'I' for Inactive)
REMARK    1  A    between atoms: C_4  and  C_5 
REMARK    2  A    between atoms: C_5  and  C_6 
REMARK       I    between atoms: C_6  and  N_7 
REMARK    3  A    between atoms: N_7  and  C_8 
REMARK    4  A    between atoms: C_8  and  C_9 
REMARK    5  A    between atoms: N_11  and  C_12 
ROOT
HETATM    1  C   UNL     1      -8.641  -0.034 -33.832  1.00  0.00     0.184 C 
ENDROOT
BRANCH   1   2
HETATM    2  N   UNL     1      -8.979   1.375 -33.811  1.00  0.00    -0.354 N 
HETATM    3  C   UNL     1     -10.270   1.839 -33.957  1.00  0.00     0.231 C 
HETATM    4  O   UNL     1     -11.218   1.073 -34.119  1.00  0.00    -0.272 OA
HETATM    5  H   UNL     1      -8.209   2.034 -33.804  1.00  0.00     0.162 HD
BRANCH   3   6
HETATM    6  C   UNL     1     -10.431   3.383 -33.870  1.00  0.00     0.072 C 
HETATM    7  C   UNL     1     -10.889   3.872 -35.274  1.00  0.00     0.050 C 
HETATM    8  C   UNL     1     -10.756   5.382 -35.449  1.00  0.00     0.169 C 
HETATM    9  O   UNL     1      -9.428   5.815 -35.174  1.00  0.00    -0.391 OA
HETATM   10  C   UNL     1      -9.037   5.519 -33.836  1.00  0.00     0.169 C 
HETATM   11  C   UNL     1      -9.029   4.013 -33.622  1.00  0.00     0.050 C 
BRANCH   6  12
HETATM   12  C   UNL     1     -11.397   3.711 -32.707  1.00  0.00    -0.040 A 
HETATM   13  C   UNL     1     -12.775   3.850 -32.964  1.00  0.00     0.008 A 
HETATM   14  C   UNL     1     -13.682   4.155 -31.946  1.00  0.00     0.001 A 
HETATM   15  C   UNL     1     -13.229   4.347 -30.646  1.00  0.00     0.000 A 
HETATM   16  C   UNL     1     -11.871   4.243 -30.369  1.00  0.00     0.001 A 
HETATM   17  C   UNL     1     -10.963   3.934 -31.388  1.00  0.00     0.008 A 
ENDBRANCH   6  12
ENDBRANCH   3   6
ENDBRANCH   1   2
BRANCH   1  18
HETATM   18  C   UNL     1      -7.139  -0.163 -33.606  1.00  0.00     0.084 A 
HETATM   19  N   UNL     1      -6.539   0.854 -33.064  1.00  0.00    -0.171 NA
HETATM   20  N   UNL     1      -5.189   0.797 -32.814  1.00  0.00    -0.229 N 
HETATM   21  C   UNL     1      -4.381  -0.278 -33.185  1.00  0.00     0.275 A 
HETATM   22  O   UNL     1      -3.159  -0.299 -33.057  1.00  0.00    -0.266 OA
HETATM   23  C   UNL     1      -5.064  -1.451 -33.759  1.00  0.00     0.046 A 
HETATM   24  C   UNL     1      -6.437  -1.413 -33.973  1.00  0.00     0.008 A 
HETATM   25  C   UNL     1      -4.325  -2.597 -34.085  1.00  0.00     0.018 A 
HETATM   26  C   UNL     1      -7.079  -2.535 -34.512  1.00  0.00     0.014 A 
HETATM   27  C   UNL     1      -6.344  -3.680 -34.834  1.00  0.00     0.001 A 
HETATM   28  C   UNL     1      -4.967  -3.711 -34.623  1.00  0.00     0.001 A 
BRANCH  20  29
HETATM   29  C   UNL     1      -4.546   2.019 -32.331  1.00  0.00     0.114 C 
HETATM   30  C   UNL     1      -5.090   3.270 -33.025  1.00  0.00     0.027 C 
HETATM   31  C   UNL     1      -4.669   4.390 -32.090  1.00  0.00     0.002 C 
HETATM   32  C   UNL     1      -4.942   3.815 -30.708  1.00  0.00     0.002 C 
HETATM   33  C   UNL     1      -4.684   2.311 -30.827  1.00  0.00     0.027 C 
ENDBRANCH  20  29
ENDBRANCH   1  18
TORSDOF 5
ENDMDL
MODEL 5
REMARK VINA RESULT:      -8.9      1.696      2.040
REMARK  5 active torsions:
REMARK  status: ('A' for Active; 'I' for Inactive)
REMARK    1  A    between atoms: C_4  and  C_5 
REMARK    2  A    between atoms: C_5  and  C_6 
REMARK       I    between atoms: C_6  and  N_7 
REMARK    3  A    between atoms: N_7  and  C_8 
REMARK    4  A    between atoms: C_8  and  C_9 
REMARK    5  A    between atoms: N_11  and  C_12 
ROOT
HETATM    1  C   UNL     1      -4.585   2.337 -30.988  1.00  0.00     0.184 C 
ENDROOT
BRANCH   1   2
HETATM    2  N   UNL     1      -3.620   3.273 -31.528  1.00  0.00    -0.354 N 
HETATM    3  C   UNL     1      -3.649   4.624 -31.252  1.00  0.00     0.231 C 
HETATM    4  O   UNL     1      -4.510   5.117 -30.526  1.00  0.00    -0.272 OA
HETATM    5  H   UNL     1      -2.974   2.920 -32.225  1.00  0.00     0.162 HD
BRANCH   3   6
HETATM    6  C   UNL     1      -2.504   5.456 -31.898  1.00  0.00     0.072 C 
HETATM    7  C   UNL     1      -3.154   6.742 -32.485  1.00  0.00     0.050 C 
HETATM    8  C   UNL     1      -2.231   7.486 -33.447  1.00  0.00     0.169 C 
HETATM    9  O   UNL     1      -1.780   6.629 -34.490  1.00  0.00    -0.391 OA
HETATM   10  C   UNL     1      -1.041   5.520 -33.985  1.00  0.00     0.169 C 
HETATM   11  C   UNL     1      -1.937   4.658 -33.108  1.00  0.00     0.050 C 
BRANCH   6  12
HETATM   12  C   UNL     1      -1.409   5.695 -30.831  1.00  0.00    -0.040 A 
HETATM   13  C   UNL     1      -1.438   6.870 -30.055  1.00  0.00     0.008 A 
HETATM   14  C   UNL     1      -0.464   7.132 -29.089  1.00  0.00     0.001 A 
HETATM   15  C   UNL     1       0.575   6.230 -28.886  1.00  0.00     0.000 A 
HETATM   16  C   UNL     1       0.643   5.076 -29.657  1.00  0.00     0.001 A 
HETATM   17  C   UNL     1      -0.335   4.812 -30.623  1.00  0.00     0.008 A 
ENDBRANCH   6  12
ENDBRANCH   3   6
ENDBRANCH   1   2
BRANCH   1  18
HETATM   18  C   UNL     1      -5.495   1.888 -32.126  1.00  0.00     0.084 A 
HETATM   19  N   UNL     1      -6.407   2.729 -32.513  1.00  0.00    -0.171 NA
HETATM   20  N   UNL     1      -7.248   2.396 -33.547  1.00  0.00    -0.229 N 
HETATM   21  C   UNL     1      -7.242   1.151 -34.175  1.00  0.00     0.275 A 
HETATM   22  O   UNL     1      -8.053   0.805 -35.032  1.00  0.00    -0.266 OA
HETATM   23  C   UNL     1      -6.182   0.211 -33.770  1.00  0.00     0.046 A 
HETATM   24  C   UNL     1      -5.300   0.562 -32.753  1.00  0.00     0.008 A 
HETATM   25  C   UNL     1      -6.067  -1.031 -34.411  1.00  0.00     0.018 A 
HETATM   26  C   UNL     1      -4.292  -0.334 -32.379  1.00  0.00     0.014 A 
HETATM   27  C   UNL     1      -4.175  -1.570 -33.021  1.00  0.00     0.001 A 
HETATM   28  C   UNL     1      -5.063  -1.920 -34.035  1.00  0.00     0.001 A 
BRANCH  20  29
HETATM   29  C   UNL     1      -8.340   3.323 -33.847  1.00  0.00     0.114 C 
HETATM   30  C   UNL     1      -9.505   3.179 -32.865  1.00  0.00     0.027 C 
HETATM   31  C   UNL     1     -10.266   4.480 -33.044  1.00  0.00     0.002 C 
HETATM   32  C   UNL     1      -9.162   5.523 -33.138  1.00  0.00     0.002 C 
HETATM   33  C   UNL     1      -7.986   4.820 -33.822  1.00  0.00     0.027 C 
ENDBRANCH  20  29
ENDBRANCH   1  18
TORSDOF 5
ENDMDL
MODEL 6
REMARK VINA RESULT:      -8.9     16.737     18.621
REMARK  5 active torsions:
REMARK  status: ('A' for Active; 'I' for Inactive)
REMARK    1  A    between atoms: C_4  and  C_5 
REMARK    2  A    between atoms: C_5  and  C_6 
REMARK       I    between atoms: C_6  and  N_7 
REMARK    3  A    between atoms: N_7  and  C_8 
REMARK    4  A    between atoms: C_8  and  C_9 
REMARK    5  A    between atoms: N_11  and  C_12 
ROOT
HETATM    1  C   UNL     1      -2.792 -13.682 -36.471  1.00  0.00     0.184 C 
ENDROOT
BRANCH   1   2
HETATM    2  N   UNL     1      -3.950 -14.464 -36.083  1.00  0.00    -0.354 N 
HETATM    3  C   UNL     1      -4.899 -14.007 -35.193  1.00  0.00     0.231 C 
HETATM    4  O   UNL     1      -4.814 -12.898 -34.669  1.00  0.00    -0.272 OA
HETATM    5  H   UNL     1      -3.985 -15.426 -36.400  1.00  0.00     0.162 HD
BRANCH   3   6
HETATM    6  C   UNL     1      -6.085 -14.980 -34.934  1.00  0.00     0.072 C 
HETATM    7  C   UNL     1      -6.728 -14.562 -33.580  1.00  0.00     0.050 C 
HETATM    8  C   UNL     1      -7.672 -15.623 -33.020  1.00  0.00     0.169 C 
HETATM    9  O   UNL     1      -7.016 -16.880 -32.899  1.00  0.00    -0.391 OA
HETATM   10  C   UNL     1      -6.555 -17.363 -34.157  1.00  0.00     0.169 C 
HETATM   11  C   UNL     1      -5.512 -16.412 -34.724  1.00  0.00     0.050 C 
BRANCH   6  12
HETATM   12  C   UNL     1      -7.031 -14.938 -36.157  1.00  0.00    -0.040 A 
HETATM   13  C   UNL     1      -7.615 -13.715 -36.544  1.00  0.00     0.008 A 
HETATM   14  C   UNL     1      -8.483 -13.632 -37.635  1.00  0.00     0.001 A 
HETATM   15  C   UNL     1      -8.803 -14.776 -38.358  1.00  0.00     0.000 A 
HETATM   16  C   UNL     1      -8.262 -16.000 -37.982  1.00  0.00     0.001 A 
HETATM   17  C   UNL     1      -7.390 -16.082 -36.891  1.00  0.00     0.008 A 
ENDBRANCH   6  12
ENDBRANCH   3   6
ENDBRANCH   1   2
BRANCH   1  18
HETATM   18  C   UNL     1      -2.628 -13.800 -37.982  1.00  0.00     0.084 A 
HETATM   19  N   UNL     1      -3.650 -13.462 -38.710  1.00  0.00    -0.171 NA
HETATM   20  N   UNL     1      -3.563 -13.525 -40.079  1.00  0.00    -0.229 N 
HETATM   21  C   UNL     1      -2.448 -14.015 -40.760  1.00  0.00     0.275 A 
HETATM   22  O   UNL     1      -2.395 -14.169 -41.978  1.00  0.00    -0.266 OA
HETATM   23  C   UNL     1      -1.271 -14.357 -39.941  1.00  0.00     0.046 A 
HETATM   24  C   UNL     1      -1.342 -14.252 -38.556  1.00  0.00     0.008 A 
HETATM   25  C   UNL     1      -0.090 -14.784 -40.562  1.00  0.00     0.018 A 
HETATM   26  C   UNL     1      -0.216 -14.573 -37.786  1.00  0.00     0.014 A 
HETATM   27  C   UNL     1       0.963 -14.995 -38.405  1.00  0.00     0.001 A 
HETATM   28  C   UNL     1       1.027 -15.103 -39.792  1.00  0.00     0.001 A 
BRANCH  20  29
HETATM   29  C   UNL     1      -4.785 -13.265 -40.840  1.00  0.00     0.114 C 
HETATM   30  C   UNL     1      -5.835 -14.360 -40.636  1.00  0.00     0.027 C 
HETATM   31  C   UNL     1      -7.120 -13.691 -41.092  1.00  0.00     0.002 C 
HETATM   32  C   UNL     1      -7.012 -12.289 -40.510  1.00  0.00     0.002 C 
HETATM   33  C   UNL     1      -5.518 -11.951 -40.521  1.00  0.00     0.027 C 
ENDBRANCH  20  29
ENDBRANCH   1  18
TORSDOF 5
ENDMDL
MODEL 7
REMARK VINA RESULT:      -8.7      2.162      5.726
REMARK  5 active torsions:
REMARK  status: ('A' for Active; 'I' for Inactive)
REMARK    1  A    between atoms: C_4  and  C_5 
REMARK    2  A    between atoms: C_5  and  C_6 
REMARK       I    between atoms: C_6  and  N_7 
REMARK    3  A    between atoms: N_7  and  C_8 
REMARK    4  A    between atoms: C_8  and  C_9 
REMARK    5  A    between atoms: N_11  and  C_12 
ROOT
HETATM    1  C   UNL     1      -8.145   4.835 -33.952  1.00  0.00     0.184 C 
ENDROOT
BRANCH   1   2
HETATM    2  N   UNL     1      -7.055   4.758 -33.000  1.00  0.00    -0.354 N 
HETATM    3  C   UNL     1      -5.733   4.658 -33.381  1.00  0.00     0.231 C 
HETATM    4  O   UNL     1      -5.401   4.624 -34.564  1.00  0.00    -0.272 OA
HETATM    5  H   UNL     1      -7.302   4.658 -32.022  1.00  0.00     0.162 HD
BRANCH   3   6
HETATM    6  C   UNL     1      -4.709   4.623 -32.210  1.00  0.00     0.072 C 
HETATM    7  C   UNL     1      -5.184   5.668 -31.160  1.00  0.00     0.050 C 
HETATM    8  C   UNL     1      -4.111   6.002 -30.127  1.00  0.00     0.169 C 
HETATM    9  O   UNL     1      -2.910   6.433 -30.758  1.00  0.00    -0.391 OA
HETATM   10  C   UNL     1      -2.365   5.429 -31.609  1.00  0.00     0.169 C 
HETATM   11  C   UNL     1      -3.335   5.129 -32.741  1.00  0.00     0.050 C 
BRANCH   6  12
HETATM   12  C   UNL     1      -4.601   3.169 -31.696  1.00  0.00    -0.040 A 
HETATM   13  C   UNL     1      -3.721   2.269 -32.331  1.00  0.00     0.008 A 
HETATM   14  C   UNL     1      -3.599   0.944 -31.907  1.00  0.00     0.001 A 
HETATM   15  C   UNL     1      -4.368   0.479 -30.846  1.00  0.00     0.000 A 
HETATM   16  C   UNL     1      -5.263   1.338 -30.219  1.00  0.00     0.001 A 
HETATM   17  C   UNL     1      -5.383   2.666 -30.642  1.00  0.00     0.008 A 
ENDBRANCH   6  12
ENDBRANCH   3   6
ENDBRANCH   1   2
BRANCH   1  18
HETATM   18  C   UNL     1      -9.024   3.604 -33.764  1.00  0.00     0.084 A 
HETATM   19  N   UNL     1      -8.430   2.448 -33.804  1.00  0.00    -0.171 NA
HETATM   20  N   UNL     1      -9.160   1.299 -33.622  1.00  0.00    -0.229 N 
HETATM   21  C   UNL     1     -10.547   1.281 -33.472  1.00  0.00     0.275 A 
HETATM   22  O   UNL     1     -11.222   0.256 -33.409  1.00  0.00    -0.266 OA
HETATM   23  C   UNL     1     -11.219   2.590 -33.382  1.00  0.00     0.046 A 
HETATM   24  C   UNL     1     -10.476   3.757 -33.522  1.00  0.00     0.008 A 
HETATM   25  C   UNL     1     -12.601   2.651 -33.157  1.00  0.00     0.018 A 
HETATM   26  C   UNL     1     -11.121   4.997 -33.429  1.00  0.00     0.014 A 
HETATM   27  C   UNL     1     -12.499   5.058 -33.200  1.00  0.00     0.001 A 
HETATM   28  C   UNL     1     -13.240   3.886 -33.065  1.00  0.00     0.001 A 
BRANCH  20  29
HETATM   29  C   UNL     1      -8.463   0.027 -33.813  1.00  0.00     0.114 C 
HETATM   30  C   UNL     1      -7.755  -0.045 -35.168  1.00  0.00     0.027 C 
HETATM   31  C   UNL     1      -6.754  -1.170 -34.971  1.00  0.00     0.002 C 
HETATM   32  C   UNL     1      -6.213  -0.918 -33.572  1.00  0.00     0.002 C 
HETATM   33  C   UNL     1      -7.376  -0.314 -32.780  1.00  0.00     0.027 C 
ENDBRANCH  20  29
ENDBRANCH   1  18
TORSDOF 5
ENDMDL
MODEL 8
REMARK VINA RESULT:      -8.7      3.186      8.379
REMARK  5 active torsions:
REMARK  status: ('A' for Active; 'I' for Inactive)
REMARK    1  A    between atoms: C_4  and  C_5 
REMARK    2  A    between atoms: C_5  and  C_6 
REMARK       I    between atoms: C_6  and  N_7 
REMARK    3  A    between atoms: N_7  and  C_8 
REMARK    4  A    between atoms: C_8  and  C_9 
REMARK    5  A    between atoms: N_11  and  C_12 
ROOT
HETATM    1  C   UNL     1      -9.308   0.598 -31.407  1.00  0.00     0.184 C 
ENDROOT
BRANCH   1   2
HETATM    2  N   UNL     1     -10.132   1.675 -31.920  1.00  0.00    -0.354 N 
HETATM    3  C   UNL     1     -10.595   1.710 -33.219  1.00  0.00     0.231 C 
HETATM    4  O   UNL     1     -10.328   0.821 -34.026  1.00  0.00    -0.272 OA
HETATM    5  H   UNL     1     -10.266   2.480 -31.320  1.00  0.00     0.162 HD
BRANCH   3   6
HETATM    6  C   UNL     1     -11.494   2.931 -33.567  1.00  0.00     0.072 C 
HETATM    7  C   UNL     1     -11.268   3.246 -35.074  1.00  0.00     0.050 C 
HETATM    8  C   UNL     1     -11.805   4.616 -35.481  1.00  0.00     0.169 C 
HETATM    9  O   UNL     1     -11.256   5.644 -34.664  1.00  0.00    -0.391 OA
HETATM   10  C   UNL     1     -11.584   5.465 -33.289  1.00  0.00     0.169 C 
HETATM   11  C   UNL     1     -10.974   4.168 -32.778  1.00  0.00     0.050 C 
BRANCH   6  12
HETATM   12  C   UNL     1     -12.951   2.596 -33.172  1.00  0.00    -0.040 A 
HETATM   13  C   UNL     1     -13.681   1.660 -33.931  1.00  0.00     0.008 A 
HETATM   14  C   UNL     1     -15.003   1.336 -33.616  1.00  0.00     0.001 A 
HETATM   15  C   UNL     1     -15.635   1.952 -32.543  1.00  0.00     0.000 A 
HETATM   16  C   UNL     1     -14.947   2.899 -31.793  1.00  0.00     0.001 A 
HETATM   17  C   UNL     1     -13.622   3.223 -32.106  1.00  0.00     0.008 A 
ENDBRANCH   6  12
ENDBRANCH   3   6
ENDBRANCH   1   2
BRANCH   1  18
HETATM   18  C   UNL     1      -7.853   0.924 -31.725  1.00  0.00     0.084 A 
HETATM   19  N   UNL     1      -7.264   0.170 -32.605  1.00  0.00    -0.171 NA
HETATM   20  N   UNL     1      -5.959   0.420 -32.953  1.00  0.00    -0.229 N 
HETATM   21  C   UNL     1      -5.176   1.406 -32.352  1.00  0.00     0.275 A 
HETATM   22  O   UNL     1      -3.980   1.575 -32.583  1.00  0.00    -0.266 OA
HETATM   23  C   UNL     1      -5.852   2.291 -31.387  1.00  0.00     0.046 A 
HETATM   24  C   UNL     1      -7.187   2.068 -31.065  1.00  0.00     0.008 A 
HETATM   25  C   UNL     1      -5.148   3.352 -30.800  1.00  0.00     0.018 A 
HETATM   26  C   UNL     1      -7.824   2.918 -30.152  1.00  0.00     0.014 A 
HETATM   27  C   UNL     1      -7.123   3.977 -29.570  1.00  0.00     0.001 A 
HETATM   28  C   UNL     1      -5.785   4.194 -29.891  1.00  0.00     0.001 A 
BRANCH  20  29
HETATM   29  C   UNL     1      -5.307  -0.541 -33.843  1.00  0.00     0.114 C 
HETATM   30  C   UNL     1      -4.589  -1.649 -33.068  1.00  0.00     0.027 C 
HETATM   31  C   UNL     1      -4.411  -2.736 -34.112  1.00  0.00     0.002 C 
HETATM   32  C   UNL     1      -5.741  -2.735 -34.851  1.00  0.00     0.002 C 
HETATM   33  C   UNL     1      -6.225  -1.282 -34.831  1.00  0.00     0.027 C 
ENDBRANCH  20  29
ENDBRANCH   1  18
TORSDOF 5
ENDMDL
MODEL 9
REMARK VINA RESULT:      -8.6      3.582      7.921
REMARK  5 active torsions:
REMARK  status: ('A' for Active; 'I' for Inactive)
REMARK    1  A    between atoms: C_4  and  C_5 
REMARK    2  A    between atoms: C_5  and  C_6 
REMARK       I    between atoms: C_6  and  N_7 
REMARK    3  A    between atoms: N_7  and  C_8 
REMARK    4  A    between atoms: C_8  and  C_9 
REMARK    5  A    between atoms: N_11  and  C_12 
ROOT
HETATM    1  C   UNL     1     -10.663   1.496 -34.417  1.00  0.00     0.184 C 
ENDROOT
BRANCH   1   2
HETATM    2  N   UNL     1      -9.295   1.545 -33.942  1.00  0.00    -0.354 N 
HETATM    3  C   UNL     1      -8.764   0.604 -33.084  1.00  0.00     0.231 C 
HETATM    4  O   UNL     1      -9.433  -0.340 -32.666  1.00  0.00    -0.272 OA
HETATM    5  H   UNL     1      -8.757   2.374 -34.168  1.00  0.00     0.162 HD
BRANCH   3   6
HETATM    6  C   UNL     1      -7.267   0.811 -32.719  1.00  0.00     0.072 C 
HETATM    7  C   UNL     1      -7.198   1.009 -31.177  1.00  0.00     0.050 C 
HETATM    8  C   UNL     1      -5.857   1.565 -30.709  1.00  0.00     0.169 C 
HETATM    9  O   UNL     1      -5.541   2.777 -31.386  1.00  0.00    -0.391 OA
HETATM   10  C   UNL     1      -5.440   2.590 -32.795  1.00  0.00     0.169 C 
HETATM   11  C   UNL     1      -6.784   2.148 -33.354  1.00  0.00     0.050 C 
BRANCH   6  12
HETATM   12  C   UNL     1      -6.457  -0.386 -33.270  1.00  0.00    -0.040 A 
HETATM   13  C   UNL     1      -5.274  -0.786 -32.617  1.00  0.00     0.008 A 
HETATM   14  C   UNL     1      -4.506  -1.854 -33.086  1.00  0.00     0.001 A 
HETATM   15  C   UNL     1      -4.893  -2.540 -34.232  1.00  0.00     0.000 A 
HETATM   16  C   UNL     1      -6.041  -2.148 -34.911  1.00  0.00     0.001 A 
HETATM   17  C   UNL     1      -6.812  -1.080 -34.440  1.00  0.00     0.008 A 
ENDBRANCH   6  12
ENDBRANCH   3   6
ENDBRANCH   1   2
BRANCH   1  18
HETATM   18  C   UNL     1     -11.535   2.260 -33.426  1.00  0.00     0.084 A 
HETATM   19  N   UNL     1     -10.936   3.130 -32.669  1.00  0.00    -0.171 NA
HETATM   20  N   UNL     1     -11.665   3.867 -31.768  1.00  0.00    -0.229 N 
HETATM   21  C   UNL     1     -13.031   3.686 -31.549  1.00  0.00     0.275 A 
HETATM   22  O   UNL     1     -13.673   4.268 -30.678  1.00  0.00    -0.266 OA
HETATM   23  C   UNL     1     -13.722   2.733 -32.435  1.00  0.00     0.046 A 
HETATM   24  C   UNL     1     -12.993   2.016 -33.379  1.00  0.00     0.008 A 
HETATM   25  C   UNL     1     -15.108   2.554 -32.323  1.00  0.00     0.018 A 
HETATM   26  C   UNL     1     -13.659   1.118 -34.222  1.00  0.00     0.014 A 
HETATM   27  C   UNL     1     -15.041   0.942 -34.113  1.00  0.00     0.001 A 
HETATM   28  C   UNL     1     -15.766   1.658 -33.163  1.00  0.00     0.001 A 
BRANCH  20  29
HETATM   29  C   UNL     1     -10.920   4.729 -30.850  1.00  0.00     0.114 C 
HETATM   30  C   UNL     1      -9.602   4.092 -30.403  1.00  0.00     0.027 C 
HETATM   31  C   UNL     1      -8.809   5.277 -29.881  1.00  0.00     0.002 C 
HETATM   32  C   UNL     1      -9.096   6.368 -30.902  1.00  0.00     0.002 C 
HETATM   33  C   UNL     1     -10.525   6.115 -31.389  1.00  0.00     0.027 C 
ENDBRANCH  20  29
ENDBRANCH   1  18
TORSDOF 5
ENDMDL
MODEL 10
REMARK VINA RESULT:      -8.5      5.483      9.176
REMARK  5 active torsions:
REMARK  status: ('A' for Active; 'I' for Inactive)
REMARK    1  A    between atoms: C_4  and  C_5 
REMARK    2  A    between atoms: C_5  and  C_6 
REMARK       I    between atoms: C_6  and  N_7 
REMARK    3  A    between atoms: N_7  and  C_8 
REMARK    4  A    between atoms: C_8  and  C_9 
REMARK    5  A    between atoms: N_11  and  C_12 
ROOT
HETATM    1  C   UNL     1       0.123   6.069 -28.250  1.00  0.00     0.184 C 
ENDROOT
BRANCH   1   2
HETATM    2  N   UNL     1      -0.739   5.996 -29.413  1.00  0.00    -0.354 N 
HETATM    3  C   UNL     1      -0.389   6.523 -30.639  1.00  0.00     0.231 C 
HETATM    4  O   UNL     1       0.685   7.095 -30.815  1.00  0.00    -0.272 OA
HETATM    5  H   UNL     1      -1.678   5.643 -29.271  1.00  0.00     0.162 HD
BRANCH   3   6
HETATM    6  C   UNL     1      -1.434   6.311 -31.772  1.00  0.00     0.072 C 
HETATM    7  C   UNL     1      -1.753   4.789 -31.816  1.00  0.00     0.050 C 
HETATM    8  C   UNL     1      -2.488   4.373 -33.087  1.00  0.00     0.169 C 
HETATM    9  O   UNL     1      -1.766   4.769 -34.248  1.00  0.00    -0.391 OA
HETATM   10  C   UNL     1      -1.597   6.183 -34.314  1.00  0.00     0.169 C 
HETATM   11  C   UNL     1      -0.763   6.658 -33.133  1.00  0.00     0.050 C 
BRANCH   6  12
HETATM   12  C   UNL     1      -2.645   7.234 -31.502  1.00  0.00    -0.040 A 
HETATM   13  C   UNL     1      -2.431   8.597 -31.214  1.00  0.00     0.008 A 
HETATM   14  C   UNL     1      -3.494   9.464 -30.953  1.00  0.00     0.001 A 
HETATM   15  C   UNL     1      -4.800   8.987 -30.957  1.00  0.00     0.000 A 
HETATM   16  C   UNL     1      -5.037   7.641 -31.211  1.00  0.00     0.001 A 
HETATM   17  C   UNL     1      -3.973   6.772 -31.475  1.00  0.00     0.008 A 
ENDBRANCH   6  12
ENDBRANCH   3   6
ENDBRANCH   1   2
BRANCH   1  18
HETATM   18  C   UNL     1      -0.523   7.014 -27.242  1.00  0.00     0.084 A 
HETATM   19  N   UNL     1      -1.820   6.992 -27.166  1.00  0.00    -0.171 NA
HETATM   20  N   UNL     1      -2.465   7.804 -26.266  1.00  0.00    -0.229 N 
HETATM   21  C   UNL     1      -1.810   8.734 -25.459  1.00  0.00     0.275 A 
HETATM   22  O   UNL     1      -2.383   9.534 -24.722  1.00  0.00    -0.266 OA
HETATM   23  C   UNL     1      -0.337   8.732 -25.509  1.00  0.00     0.046 A 
HETATM   24  C   UNL     1       0.321   7.879 -26.389  1.00  0.00     0.008 A 
HETATM   25  C   UNL     1       0.391   9.587 -24.671  1.00  0.00     0.018 A 
HETATM   26  C   UNL     1       1.721   7.879 -26.425  1.00  0.00     0.014 A 
HETATM   27  C   UNL     1       2.448   8.729 -25.587  1.00  0.00     0.001 A 
HETATM   28  C   UNL     1       1.784   9.585 -24.711  1.00  0.00     0.001 A 
BRANCH  20  29
HETATM   29  C   UNL     1      -3.927   7.836 -26.321  1.00  0.00     0.114 C 
HETATM   30  C   UNL     1      -4.444   8.928 -27.261  1.00  0.00     0.027 C 
HETATM   31  C   UNL     1      -5.874   8.495 -27.533  1.00  0.00     0.002 C 
HETATM   32  C   UNL     1      -5.756   6.990 -27.720  1.00  0.00     0.002 C 
HETATM   33  C   UNL     1      -4.618   6.546 -26.797  1.00  0.00     0.027 C 
ENDBRANCH  20  29
ENDBRANCH   1  18
TORSDOF 5
ENDMDL
