MODEL 1
REMARK VINA RESULT:      -9.2      0.000      0.000
REMARK  6 active torsions:
REMARK  status: ('A' for Active; 'I' for Inactive)
REMARK    1  A    between atoms: C_9  and  N_10 
REMARK       I    between atoms: N_10  and  C_11 
REMARK    2  A    between atoms: C_11  and  C_12 
REMARK    3  A    between atoms: C_12  and  N_13 
REMARK    4  A    between atoms: C_12  and  C_21 
REMARK       I    between atoms: N_13  and  C_14 
REMARK    5  A    between atoms: C_14  and  C_15 
REMARK    6  A    between atoms: C_21  and  C_22 
ROOT
HETATM    1  C   UNL     1      -6.656   0.964 -33.803  1.00  0.00     0.181 C 
ENDROOT
BRANCH   1   2
HETATM    2  C   UNL     1      -6.004   2.354 -33.536  1.00  0.00     0.245 C 
HETATM    3  N   UNL     1      -5.233   2.423 -32.385  1.00  0.00    -0.325 N 
HETATM    4  H   UNL     1      -5.279   1.651 -31.739  1.00  0.00     0.169 HD
HETATM    5  O   UNL     1      -6.085   3.251 -34.376  1.00  0.00    -0.271 OA
BRANCH   3   6
HETATM    6  C   UNL     1      -4.377   3.477 -31.980  1.00  0.00     0.037 A 
HETATM    7  C   UNL     1      -3.003   3.514 -32.249  1.00  0.00     0.063 A 
HETATM    8  C   UNL     1      -2.238   4.585 -31.756  1.00  0.00     0.087 A 
HETATM    9  N   UNL     1      -0.889   4.825 -31.864  1.00  0.00    -0.234 NA
HETATM   10  C   UNL     1      -2.859   5.591 -31.027  1.00  0.00     0.062 A 
HETATM   11  C   UNL     1      -0.672   5.953 -31.222  1.00  0.00     0.101 A 
HETATM   12  C   UNL     1       0.630   6.633 -31.036  1.00  0.00     0.091 C 
HETATM   13  N   UNL     1      -1.842   6.455 -30.709  1.00  0.00    -0.343 N 
HETATM   14  H   UNL     1      -1.935   7.308 -30.177  1.00  0.00     0.167 HD
HETATM   15  C   UNL     1      -4.223   5.601 -30.750  1.00  0.00     0.034 A 
HETATM   16  C   UNL     1      -4.966   4.516 -31.238  1.00  0.00     0.032 A 
ENDBRANCH   3   6
ENDBRANCH   1   2
BRANCH   1  17
HETATM   17  N   UNL     1      -8.113   1.112 -33.879  1.00  0.00    -0.343 N 
HETATM   18  C   UNL     1      -8.888   1.535 -32.820  1.00  0.00     0.259 C 
HETATM   19  O   UNL     1      -8.398   1.778 -31.720  1.00  0.00    -0.267 OA
HETATM   20  H   UNL     1      -8.551   1.096 -34.790  1.00  0.00     0.163 HD
BRANCH  18  21
HETATM   21  C   UNL     1     -10.319   1.635 -33.079  1.00  0.00     0.072 A 
HETATM   22  S   UNL     1     -11.177   3.115 -32.952  1.00  0.00    -0.097 SA
HETATM   23  C   UNL     1     -12.643   2.391 -33.452  1.00  0.00     0.050 A 
HETATM   24  C   UNL     1     -12.496   1.046 -33.701  1.00  0.00     0.009 A 
HETATM   25  C   UNL     1     -11.157   0.612 -33.485  1.00  0.00     0.025 A 
ENDBRANCH  18  21
ENDBRANCH   1  17
BRANCH   1  26
HETATM   26  C   UNL     1      -6.213  -0.196 -32.886  1.00  0.00     0.073 C 
BRANCH  26  27
HETATM   27  C   UNL     1      -5.955  -1.471 -33.663  1.00  0.00    -0.056 A 
HETATM   28  C   UNL     1      -7.025  -2.236 -34.150  1.00  0.00     0.007 A 
HETATM   29  C   UNL     1      -6.788  -3.439 -34.817  1.00  0.00     0.001 A 
HETATM   30  C   UNL     1      -5.483  -3.893 -34.997  1.00  0.00     0.000 A 
HETATM   31  C   UNL     1      -4.413  -3.140 -34.521  1.00  0.00     0.001 A 
HETATM   32  C   UNL     1      -4.646  -1.932 -33.863  1.00  0.00     0.007 A 
ENDBRANCH  26  27
ENDBRANCH   1  26
TORSDOF 6
ENDMDL
MODEL 2
REMARK VINA RESULT:      -9.1      1.286      1.694
REMARK  6 active torsions:
REMARK  status: ('A' for Active; 'I' for Inactive)
REMARK    1  A    between atoms: C_9  and  N_10 
REMARK       I    between atoms: N_10  and  C_11 
REMARK    2  A    between atoms: C_11  and  C_12 
REMARK    3  A    between atoms: C_12  and  N_13 
REMARK    4  A    between atoms: C_12  and  C_21 
REMARK       I    between atoms: N_13  and  C_14 
REMARK    5  A    between atoms: C_14  and  C_15 
REMARK    6  A    between atoms: C_21  and  C_22 
ROOT
HETATM    1  C   UNL     1      -7.289   1.332 -32.780  1.00  0.00     0.181 C 
ENDROOT
BRANCH   1   2
HETATM    2  C   UNL     1      -6.411   2.569 -32.421  1.00  0.00     0.245 C 
HETATM    3  N   UNL     1      -5.079   2.466 -32.795  1.00  0.00    -0.325 N 
HETATM    4  H   UNL     1      -4.746   1.568 -33.112  1.00  0.00     0.169 HD
HETATM    5  O   UNL     1      -6.930   3.588 -31.964  1.00  0.00    -0.271 OA
BRANCH   3   6
HETATM    6  C   UNL     1      -4.094   3.484 -32.775  1.00  0.00     0.037 A 
HETATM    7  C   UNL     1      -2.992   3.487 -31.912  1.00  0.00     0.063 A 
HETATM    8  C   UNL     1      -2.101   4.574 -31.942  1.00  0.00     0.087 A 
HETATM    9  N   UNL     1      -0.980   4.814 -31.185  1.00  0.00    -0.234 NA
HETATM   10  C   UNL     1      -2.323   5.614 -32.836  1.00  0.00     0.062 A 
HETATM   11  C   UNL     1      -0.510   5.973 -31.595  1.00  0.00     0.101 A 
HETATM   12  C   UNL     1       0.683   6.681 -31.079  1.00  0.00     0.091 C 
HETATM   13  N   UNL     1      -1.289   6.486 -32.603  1.00  0.00    -0.343 N 
HETATM   14  H   UNL     1      -1.134   7.362 -33.080  1.00  0.00     0.167 HD
HETATM   15  C   UNL     1      -3.397   5.644 -33.721  1.00  0.00     0.034 A 
HETATM   16  C   UNL     1      -4.281   4.557 -33.664  1.00  0.00     0.032 A 
ENDBRANCH   3   6
ENDBRANCH   1   2
BRANCH   1  17
HETATM   17  N   UNL     1      -8.707   1.699 -32.709  1.00  0.00    -0.343 N 
HETATM   18  C   UNL     1      -9.629   1.355 -33.674  1.00  0.00     0.259 C 
HETATM   19  O   UNL     1      -9.302   0.743 -34.688  1.00  0.00    -0.267 OA
HETATM   20  H   UNL     1      -9.070   2.046 -31.831  1.00  0.00     0.163 HD
BRANCH  18  21
HETATM   21  C   UNL     1     -10.997   1.795 -33.432  1.00  0.00     0.072 A 
HETATM   22  S   UNL     1     -11.366   3.312 -32.723  1.00  0.00    -0.097 SA
HETATM   23  C   UNL     1     -13.049   3.053 -32.869  1.00  0.00     0.050 A 
HETATM   24  C   UNL     1     -13.337   1.832 -33.434  1.00  0.00     0.009 A 
HETATM   25  C   UNL     1     -12.154   1.108 -33.757  1.00  0.00     0.025 A 
ENDBRANCH  18  21
ENDBRANCH   1  17
BRANCH   1  26
HETATM   26  C   UNL     1      -6.967   0.017 -32.039  1.00  0.00     0.073 C 
BRANCH  26  27
HETATM   27  C   UNL     1      -6.308  -1.003 -32.946  1.00  0.00    -0.056 A 
HETATM   28  C   UNL     1      -4.923  -1.219 -32.885  1.00  0.00     0.007 A 
HETATM   29  C   UNL     1      -4.309  -2.118 -33.759  1.00  0.00     0.001 A 
HETATM   30  C   UNL     1      -5.069  -2.802 -34.705  1.00  0.00     0.000 A 
HETATM   31  C   UNL     1      -6.445  -2.598 -34.772  1.00  0.00     0.001 A 
HETATM   32  C   UNL     1      -7.063  -1.707 -33.893  1.00  0.00     0.007 A 
ENDBRANCH  26  27
ENDBRANCH   1  26
TORSDOF 6
ENDMDL
MODEL 3
REMARK VINA RESULT:      -8.9      3.018      8.072
REMARK  6 active torsions:
REMARK  status: ('A' for Active; 'I' for Inactive)
REMARK    1  A    between atoms: C_9  and  N_10 
REMARK       I    between atoms: N_10  and  C_11 
REMARK    2  A    between atoms: C_11  and  C_12 
REMARK    3  A    between atoms: C_12  and  N_13 
REMARK    4  A    between atoms: C_12  and  C_21 
REMARK       I    between atoms: N_13  and  C_14 
REMARK    5  A    between atoms: C_14  and  C_15 
REMARK    6  A    between atoms: C_21  and  C_22 
ROOT
HETATM    1  C   UNL     1      -7.547   0.285 -33.371  1.00  0.00     0.181 C 
ENDROOT
BRANCH   1   2
HETATM    2  C   UNL     1      -8.947   0.656 -32.793  1.00  0.00     0.245 C 
HETATM    3  N   UNL     1      -9.844   1.163 -33.722  1.00  0.00    -0.325 N 
HETATM    4  H   UNL     1      -9.491   1.404 -34.635  1.00  0.00     0.169 HD
HETATM    5  O   UNL     1      -9.233   0.376 -31.628  1.00  0.00    -0.271 OA
BRANCH   3   6
HETATM    6  C   UNL     1     -11.227   1.409 -33.543  1.00  0.00     0.037 A 
HETATM    7  C   UNL     1     -11.750   2.616 -33.062  1.00  0.00     0.063 A 
HETATM    8  C   UNL     1     -13.138   2.734 -32.875  1.00  0.00     0.087 A 
HETATM    9  N   UNL     1     -13.875   3.791 -32.397  1.00  0.00    -0.234 NA
HETATM   10  C   UNL     1     -13.964   1.661 -33.185  1.00  0.00     0.062 A 
HETATM   11  C   UNL     1     -15.128   3.391 -32.409  1.00  0.00     0.101 A 
HETATM   12  C   UNL     1     -16.312   4.165 -31.971  1.00  0.00     0.091 C 
HETATM   13  N   UNL     1     -15.226   2.109 -32.890  1.00  0.00    -0.343 N 
HETATM   14  H   UNL     1     -16.081   1.583 -32.996  1.00  0.00     0.167 HD
HETATM   15  C   UNL     1     -13.487   0.450 -33.679  1.00  0.00     0.034 A 
HETATM   16  C   UNL     1     -12.098   0.347 -33.844  1.00  0.00     0.032 A 
ENDBRANCH   3   6
ENDBRANCH   1   2
BRANCH   1  17
HETATM   17  N   UNL     1      -6.770   1.509 -33.595  1.00  0.00    -0.343 N 
HETATM   18  C   UNL     1      -5.843   1.993 -32.697  1.00  0.00     0.259 C 
HETATM   19  O   UNL     1      -5.640   1.439 -31.619  1.00  0.00    -0.267 OA
HETATM   20  H   UNL     1      -6.761   1.910 -34.523  1.00  0.00     0.163 HD
BRANCH  18  21
HETATM   21  C   UNL     1      -5.155   3.216 -33.090  1.00  0.00     0.072 A 
HETATM   22  S   UNL     1      -3.630   3.664 -32.444  1.00  0.00    -0.097 SA
HETATM   23  C   UNL     1      -3.547   5.064 -33.422  1.00  0.00     0.050 A 
HETATM   24  C   UNL     1      -4.659   5.204 -34.220  1.00  0.00     0.009 A 
HETATM   25  C   UNL     1      -5.585   4.139 -34.027  1.00  0.00     0.025 A 
ENDBRANCH  18  21
ENDBRANCH   1  17
BRANCH   1  26
HETATM   26  C   UNL     1      -7.530  -0.672 -34.582  1.00  0.00     0.073 C 
BRANCH  26  27
HETATM   27  C   UNL     1      -6.492  -1.766 -34.429  1.00  0.00    -0.056 A 
HETATM   28  C   UNL     1      -5.248  -1.490 -33.842  1.00  0.00     0.007 A 
HETATM   29  C   UNL     1      -4.273  -2.485 -33.752  1.00  0.00     0.001 A 
HETATM   30  C   UNL     1      -4.527  -3.760 -34.253  1.00  0.00     0.000 A 
HETATM   31  C   UNL     1      -5.760  -4.046 -34.834  1.00  0.00     0.001 A 
HETATM   32  C   UNL     1      -6.741  -3.057 -34.916  1.00  0.00     0.007 A 
ENDBRANCH  26  27
ENDBRANCH   1  26
TORSDOF 6
ENDMDL
MODEL 4
REMARK VINA RESULT:      -8.9      3.138      8.349
REMARK  6 active torsions:
REMARK  status: ('A' for Active; 'I' for Inactive)
REMARK    1  A    between atoms: C_9  and  N_10 
REMARK       I    between atoms: N_10  and  C_11 
REMARK    2  A    between atoms: C_11  and  C_12 
REMARK    3  A    between atoms: C_12  and  N_13 
REMARK    4  A    between atoms: C_12  and  C_21 
REMARK       I    between atoms: N_13  and  C_14 
REMARK    5  A    between atoms: C_14  and  C_15 
REMARK    6  A    between atoms: C_21  and  C_22 
ROOT
HETATM    1  C   UNL     1      -6.032   1.068 -32.762  1.00  0.00     0.181 C 
ENDROOT
BRANCH   1   2
HETATM    2  C   UNL     1      -7.536   1.373 -32.488  1.00  0.00     0.245 C 
HETATM    3  N   UNL     1      -8.251   1.814 -33.592  1.00  0.00    -0.325 N 
HETATM    4  H   UNL     1      -7.734   2.056 -34.423  1.00  0.00     0.169 HD
HETATM    5  O   UNL     1      -8.036   1.102 -31.396  1.00  0.00    -0.271 OA
BRANCH   3   6
HETATM    6  C   UNL     1      -9.652   1.989 -33.700  1.00  0.00     0.037 A 
HETATM    7  C   UNL     1     -10.568   0.933 -33.786  1.00  0.00     0.063 A 
HETATM    8  C   UNL     1     -11.935   1.222 -33.941  1.00  0.00     0.087 A 
HETATM    9  N   UNL     1     -13.004   0.369 -34.072  1.00  0.00    -0.234 NA
HETATM   10  C   UNL     1     -12.352   2.545 -33.991  1.00  0.00     0.062 A 
HETATM   11  C   UNL     1     -14.064   1.139 -34.200  1.00  0.00     0.101 A 
HETATM   12  C   UNL     1     -15.465   0.698 -34.386  1.00  0.00     0.091 C 
HETATM   13  N   UNL     1     -13.713   2.465 -34.145  1.00  0.00    -0.343 N 
HETATM   14  H   UNL     1     -14.347   3.247 -34.218  1.00  0.00     0.167 HD
HETATM   15  C   UNL     1     -11.478   3.625 -33.895  1.00  0.00     0.034 A 
HETATM   16  C   UNL     1     -10.118   3.315 -33.755  1.00  0.00     0.032 A 
ENDBRANCH   3   6
ENDBRANCH   1   2
BRANCH   1  17
HETATM   17  N   UNL     1      -5.872  -0.354 -33.085  1.00  0.00    -0.343 N 
HETATM   18  C   UNL     1      -6.153  -0.887 -34.324  1.00  0.00     0.259 C 
HETATM   19  O   UNL     1      -6.600  -0.195 -35.236  1.00  0.00    -0.267 OA
HETATM   20  H   UNL     1      -5.350  -0.936 -32.443  1.00  0.00     0.163 HD
BRANCH  18  21
HETATM   21  C   UNL     1      -5.923  -2.319 -34.468  1.00  0.00     0.072 A 
HETATM   22  S   UNL     1      -4.397  -3.042 -34.167  1.00  0.00    -0.097 SA
HETATM   23  C   UNL     1      -4.999  -4.612 -34.480  1.00  0.00     0.050 A 
HETATM   24  C   UNL     1      -6.332  -4.595 -34.822  1.00  0.00     0.009 A 
HETATM   25  C   UNL     1      -6.863  -3.274 -34.815  1.00  0.00     0.025 A 
ENDBRANCH  18  21
ENDBRANCH   1  17
BRANCH   1  26
HETATM   26  C   UNL     1      -5.021   1.567 -31.708  1.00  0.00     0.073 C 
BRANCH  26  27
HETATM   27  C   UNL     1      -4.276   2.802 -32.171  1.00  0.00    -0.056 A 
HETATM   28  C   UNL     1      -4.828   3.638 -33.154  1.00  0.00     0.007 A 
HETATM   29  C   UNL     1      -4.117   4.745 -33.620  1.00  0.00     0.001 A 
HETATM   30  C   UNL     1      -2.847   5.023 -33.117  1.00  0.00     0.000 A 
HETATM   31  C   UNL     1      -2.292   4.202 -32.138  1.00  0.00     0.001 A 
HETATM   32  C   UNL     1      -3.005   3.100 -31.663  1.00  0.00     0.007 A 
ENDBRANCH  26  27
ENDBRANCH   1  26
TORSDOF 6
ENDMDL
MODEL 5
REMARK VINA RESULT:      -8.7      2.036      4.793
REMARK  6 active torsions:
REMARK  status: ('A' for Active; 'I' for Inactive)
REMARK    1  A    between atoms: C_9  and  N_10 
REMARK       I    between atoms: N_10  and  C_11 
REMARK    2  A    between atoms: C_11  and  C_12 
REMARK    3  A    between atoms: C_12  and  N_13 
REMARK    4  A    between atoms: C_12  and  C_21 
REMARK       I    between atoms: N_13  and  C_14 
REMARK    5  A    between atoms: C_14  and  C_15 
REMARK    6  A    between atoms: C_21  and  C_22 
ROOT
HETATM    1  C   UNL     1      -7.815   1.844 -33.193  1.00  0.00     0.181 C 
ENDROOT
BRANCH   1   2
HETATM    2  C   UNL     1      -6.729   2.794 -32.601  1.00  0.00     0.245 C 
HETATM    3  N   UNL     1      -5.538   2.831 -33.312  1.00  0.00    -0.325 N 
HETATM    4  H   UNL     1      -5.401   2.145 -34.037  1.00  0.00     0.169 HD
HETATM    5  O   UNL     1      -7.000   3.534 -31.654  1.00  0.00    -0.271 OA
BRANCH   3   6
HETATM    6  C   UNL     1      -4.453   3.723 -33.133  1.00  0.00     0.037 A 
HETATM    7  C   UNL     1      -3.387   3.491 -32.255  1.00  0.00     0.063 A 
HETATM    8  C   UNL     1      -2.386   4.469 -32.120  1.00  0.00     0.087 A 
HETATM    9  N   UNL     1      -1.273   4.482 -31.314  1.00  0.00    -0.234 NA
HETATM   10  C   UNL     1      -2.465   5.636 -32.868  1.00  0.00     0.062 A 
HETATM   11  C   UNL     1      -0.669   5.626 -31.554  1.00  0.00     0.101 A 
HETATM   12  C   UNL     1       0.574   6.125 -30.922  1.00  0.00     0.091 C 
HETATM   13  N   UNL     1      -1.354   6.351 -32.498  1.00  0.00    -0.343 N 
HETATM   14  H   UNL     1      -1.090   7.260 -32.850  1.00  0.00     0.167 HD
HETATM   15  C   UNL     1      -3.498   5.900 -33.763  1.00  0.00     0.034 A 
HETATM   16  C   UNL     1      -4.494   4.919 -33.873  1.00  0.00     0.032 A 
ENDBRANCH   3   6
ENDBRANCH   1   2
BRANCH   1  17
HETATM   17  N   UNL     1      -7.171   0.648 -33.746  1.00  0.00    -0.343 N 
HETATM   18  C   UNL     1      -6.753  -0.413 -32.972  1.00  0.00     0.259 C 
HETATM   19  O   UNL     1      -6.861  -0.401 -31.749  1.00  0.00    -0.267 OA
HETATM   20  H   UNL     1      -7.210   0.500 -34.745  1.00  0.00     0.163 HD
BRANCH  18  21
HETATM   21  C   UNL     1      -6.144  -1.524 -33.693  1.00  0.00     0.072 A 
HETATM   22  S   UNL     1      -4.462  -1.855 -33.625  1.00  0.00    -0.097 SA
HETATM   23  C   UNL     1      -4.622  -3.242 -34.612  1.00  0.00     0.050 A 
HETATM   24  C   UNL     1      -5.925  -3.451 -35.002  1.00  0.00     0.009 A 
HETATM   25  C   UNL     1      -6.800  -2.460 -34.473  1.00  0.00     0.025 A 
ENDBRANCH  18  21
ENDBRANCH   1  17
BRANCH   1  26
HETATM   26  C   UNL     1      -8.838   2.481 -34.157  1.00  0.00     0.073 C 
BRANCH  26  27
HETATM   27  C   UNL     1     -10.183   1.784 -34.103  1.00  0.00    -0.056 A 
HETATM   28  C   UNL     1     -11.284   2.306 -34.799  1.00  0.00     0.007 A 
HETATM   29  C   UNL     1     -12.535   1.695 -34.703  1.00  0.00     0.001 A 
HETATM   30  C   UNL     1     -12.701   0.563 -33.908  1.00  0.00     0.000 A 
HETATM   31  C   UNL     1     -11.614   0.033 -33.216  1.00  0.00     0.001 A 
HETATM   32  C   UNL     1     -10.360   0.637 -33.318  1.00  0.00     0.007 A 
ENDBRANCH  26  27
ENDBRANCH   1  26
TORSDOF 6
ENDMDL
MODEL 6
REMARK VINA RESULT:      -8.3      2.314      5.191
REMARK  6 active torsions:
REMARK  status: ('A' for Active; 'I' for Inactive)
REMARK    1  A    between atoms: C_9  and  N_10 
REMARK       I    between atoms: N_10  and  C_11 
REMARK    2  A    between atoms: C_11  and  C_12 
REMARK    3  A    between atoms: C_12  and  N_13 
REMARK    4  A    between atoms: C_12  and  C_21 
REMARK       I    between atoms: N_13  and  C_14 
REMARK    5  A    between atoms: C_14  and  C_15 
REMARK    6  A    between atoms: C_21  and  C_22 
ROOT
HETATM    1  C   UNL     1      -6.638   0.419 -32.645  1.00  0.00     0.181 C 
ENDROOT
BRANCH   1   2
HETATM    2  C   UNL     1      -5.586   1.305 -31.909  1.00  0.00     0.245 C 
HETATM    3  N   UNL     1      -5.089   2.360 -32.659  1.00  0.00    -0.325 N 
HETATM    4  H   UNL     1      -5.307   2.384 -33.643  1.00  0.00     0.169 HD
HETATM    5  O   UNL     1      -5.348   1.124 -30.715  1.00  0.00    -0.271 OA
BRANCH   3   6
HETATM    6  C   UNL     1      -4.277   3.431 -32.212  1.00  0.00     0.037 A 
HETATM    7  C   UNL     1      -2.887   3.478 -32.372  1.00  0.00     0.063 A 
HETATM    8  C   UNL     1      -2.173   4.568 -31.845  1.00  0.00     0.087 A 
HETATM    9  N   UNL     1      -0.822   4.820 -31.852  1.00  0.00    -0.234 NA
HETATM   10  C   UNL     1      -2.859   5.581 -31.189  1.00  0.00     0.062 A 
HETATM   11  C   UNL     1      -0.667   5.963 -31.219  1.00  0.00     0.101 A 
HETATM   12  C   UNL     1       0.610   6.662 -30.947  1.00  0.00     0.091 C 
HETATM   13  N   UNL     1      -1.879   6.463 -30.810  1.00  0.00    -0.343 N 
HETATM   14  H   UNL     1      -2.021   7.326 -30.306  1.00  0.00     0.167 HD
HETATM   15  C   UNL     1      -4.241   5.582 -31.019  1.00  0.00     0.034 A 
HETATM   16  C   UNL     1      -4.933   4.479 -31.541  1.00  0.00     0.032 A 
ENDBRANCH   3   6
ENDBRANCH   1   2
BRANCH   1  17
HETATM   17  N   UNL     1      -6.090  -0.926 -32.848  1.00  0.00    -0.343 N 
HETATM   18  C   UNL     1      -4.821  -1.163 -33.332  1.00  0.00     0.259 C 
HETATM   19  O   UNL     1      -4.077  -0.244 -33.665  1.00  0.00    -0.267 OA
HETATM   20  H   UNL     1      -6.577  -1.711 -32.436  1.00  0.00     0.163 HD
BRANCH  18  21
HETATM   21  C   UNL     1      -4.439  -2.564 -33.458  1.00  0.00     0.072 A 
HETATM   22  S   UNL     1      -5.096  -3.593 -34.662  1.00  0.00    -0.097 SA
HETATM   23  C   UNL     1      -4.127  -4.911 -34.166  1.00  0.00     0.050 A 
HETATM   24  C   UNL     1      -3.325  -4.589 -33.096  1.00  0.00     0.009 A 
HETATM   25  C   UNL     1      -3.506  -3.236 -32.688  1.00  0.00     0.025 A 
ENDBRANCH  18  21
ENDBRANCH   1  17
BRANCH   1  26
HETATM   26  C   UNL     1      -7.271   1.013 -33.922  1.00  0.00     0.073 C 
BRANCH  26  27
HETATM   27  C   UNL     1      -8.775   1.150 -33.801  1.00  0.00    -0.056 A 
HETATM   28  C   UNL     1      -9.538   0.128 -33.216  1.00  0.00     0.007 A 
HETATM   29  C   UNL     1     -10.929   0.231 -33.156  1.00  0.00     0.001 A 
HETATM   30  C   UNL     1     -11.571   1.349 -33.685  1.00  0.00     0.000 A 
HETATM   31  C   UNL     1     -10.823   2.371 -34.265  1.00  0.00     0.001 A 
HETATM   32  C   UNL     1      -9.432   2.276 -34.317  1.00  0.00     0.007 A 
ENDBRANCH  26  27
ENDBRANCH   1  26
TORSDOF 6
ENDMDL
MODEL 7
REMARK VINA RESULT:      -8.2      1.783      2.262
REMARK  6 active torsions:
REMARK  status: ('A' for Active; 'I' for Inactive)
REMARK    1  A    between atoms: C_9  and  N_10 
REMARK       I    between atoms: N_10  and  C_11 
REMARK    2  A    between atoms: C_11  and  C_12 
REMARK    3  A    between atoms: C_12  and  N_13 
REMARK    4  A    between atoms: C_12  and  C_21 
REMARK       I    between atoms: N_13  and  C_14 
REMARK    5  A    between atoms: C_14  and  C_15 
REMARK    6  A    between atoms: C_21  and  C_22 
ROOT
HETATM    1  C   UNL     1      -6.178   1.100 -32.881  1.00  0.00     0.181 C 
ENDROOT
BRANCH   1   2
HETATM    2  C   UNL     1      -5.155   2.064 -32.205  1.00  0.00     0.245 C 
HETATM    3  N   UNL     1      -4.663   3.063 -33.033  1.00  0.00    -0.325 N 
HETATM    4  H   UNL     1      -4.865   3.000 -34.019  1.00  0.00     0.169 HD
HETATM    5  O   UNL     1      -4.934   1.988 -30.996  1.00  0.00    -0.271 OA
BRANCH   3   6
HETATM    6  C   UNL     1      -3.877   4.182 -32.664  1.00  0.00     0.037 A 
HETATM    7  C   UNL     1      -4.405   5.371 -32.146  1.00  0.00     0.063 A 
HETATM    8  C   UNL     1      -3.537   6.438 -31.859  1.00  0.00     0.087 A 
HETATM    9  N   UNL     1      -3.817   7.694 -31.377  1.00  0.00    -0.234 NA
HETATM   10  C   UNL     1      -2.174   6.289 -32.080  1.00  0.00     0.062 A 
HETATM   11  C   UNL     1      -2.659   8.314 -31.296  1.00  0.00     0.101 A 
HETATM   12  C   UNL     1      -2.426   9.705 -30.845  1.00  0.00     0.091 C 
HETATM   13  N   UNL     1      -1.636   7.493 -31.704  1.00  0.00    -0.343 N 
HETATM   14  H   UNL     1      -0.658   7.740 -31.732  1.00  0.00     0.167 HD
HETATM   15  C   UNL     1      -1.606   5.121 -32.580  1.00  0.00     0.034 A 
HETATM   16  C   UNL     1      -2.491   4.073 -32.873  1.00  0.00     0.032 A 
ENDBRANCH   3   6
ENDBRANCH   1   2
BRANCH   1  17
HETATM   17  N   UNL     1      -7.471   1.779 -33.022  1.00  0.00    -0.343 N 
HETATM   18  C   UNL     1      -8.273   1.657 -34.136  1.00  0.00     0.259 C 
HETATM   19  O   UNL     1      -7.926   0.994 -35.110  1.00  0.00    -0.267 OA
HETATM   20  H   UNL     1      -7.888   2.193 -32.199  1.00  0.00     0.163 HD
BRANCH  18  21
HETATM   21  C   UNL     1      -9.530   2.394 -34.099  1.00  0.00     0.072 A 
HETATM   22  S   UNL     1     -11.044   1.622 -33.869  1.00  0.00    -0.097 SA
HETATM   23  C   UNL     1     -11.887   3.109 -33.886  1.00  0.00     0.050 A 
HETATM   24  C   UNL     1     -11.042   4.179 -34.075  1.00  0.00     0.009 A 
HETATM   25  C   UNL     1      -9.685   3.766 -34.198  1.00  0.00     0.025 A 
ENDBRANCH  18  21
ENDBRANCH   1  17
BRANCH   1  26
HETATM   26  C   UNL     1      -6.301  -0.314 -32.274  1.00  0.00     0.073 C 
BRANCH  26  27
HETATM   27  C   UNL     1      -5.990  -1.398 -33.287  1.00  0.00    -0.056 A 
HETATM   28  C   UNL     1      -7.028  -2.068 -33.952  1.00  0.00     0.007 A 
HETATM   29  C   UNL     1      -6.744  -3.104 -34.843  1.00  0.00     0.001 A 
HETATM   30  C   UNL     1      -5.423  -3.485 -35.073  1.00  0.00     0.000 A 
HETATM   31  C   UNL     1      -4.385  -2.823 -34.421  1.00  0.00     0.001 A 
HETATM   32  C   UNL     1      -4.666  -1.781 -33.537  1.00  0.00     0.007 A 
ENDBRANCH  26  27
ENDBRANCH   1  26
TORSDOF 6
ENDMDL
MODEL 8
REMARK VINA RESULT:      -8.1      4.100      6.649
REMARK  6 active torsions:
REMARK  status: ('A' for Active; 'I' for Inactive)
REMARK    1  A    between atoms: C_9  and  N_10 
REMARK       I    between atoms: N_10  and  C_11 
REMARK    2  A    between atoms: C_11  and  C_12 
REMARK    3  A    between atoms: C_12  and  N_13 
REMARK    4  A    between atoms: C_12  and  C_21 
REMARK       I    between atoms: N_13  and  C_14 
REMARK    5  A    between atoms: C_14  and  C_15 
REMARK    6  A    between atoms: C_21  and  C_22 
ROOT
HETATM    1  C   UNL     1      -5.700   2.217 -32.472  1.00  0.00     0.181 C 
ENDROOT
BRANCH   1   2
HETATM    2  C   UNL     1      -6.705   2.830 -31.449  1.00  0.00     0.245 C 
HETATM    3  N   UNL     1      -6.732   4.216 -31.419  1.00  0.00    -0.325 N 
HETATM    4  H   UNL     1      -6.012   4.713 -31.920  1.00  0.00     0.169 HD
HETATM    5  O   UNL     1      -7.488   2.103 -30.836  1.00  0.00    -0.271 OA
BRANCH   3   6
HETATM    6  C   UNL     1      -7.658   5.048 -30.742  1.00  0.00     0.037 A 
HETATM    7  C   UNL     1      -7.407   5.651 -29.503  1.00  0.00     0.063 A 
HETATM    8  C   UNL     1      -8.417   6.418 -28.898  1.00  0.00     0.087 A 
HETATM    9  N   UNL     1      -8.418   7.075 -27.691  1.00  0.00    -0.234 NA
HETATM   10  C   UNL     1      -9.636   6.575 -29.545  1.00  0.00     0.062 A 
HETATM   11  C   UNL     1      -9.606   7.631 -27.586  1.00  0.00     0.101 A 
HETATM   12  C   UNL     1     -10.111   8.441 -26.454  1.00  0.00     0.091 C 
HETATM   13  N   UNL     1     -10.371   7.362 -28.694  1.00  0.00    -0.343 N 
HETATM   14  H   UNL     1     -11.317   7.678 -28.849  1.00  0.00     0.167 HD
HETATM   15  C   UNL     1      -9.922   6.007 -30.783  1.00  0.00     0.034 A 
HETATM   16  C   UNL     1      -8.906   5.233 -31.363  1.00  0.00     0.032 A 
ENDBRANCH   3   6
ENDBRANCH   1   2
BRANCH   1  17
HETATM   17  N   UNL     1      -4.663   3.204 -32.790  1.00  0.00    -0.343 N 
HETATM   18  C   UNL     1      -3.382   3.148 -32.282  1.00  0.00     0.259 C 
HETATM   19  O   UNL     1      -3.042   2.275 -31.488  1.00  0.00    -0.267 OA
HETATM   20  H   UNL     1      -4.823   3.838 -33.562  1.00  0.00     0.163 HD
BRANCH  18  21
HETATM   21  C   UNL     1      -2.479   4.207 -32.716  1.00  0.00     0.072 A 
HETATM   22  S   UNL     1      -1.527   5.114 -31.616  1.00  0.00    -0.097 SA
HETATM   23  C   UNL     1      -0.787   6.001 -32.876  1.00  0.00     0.050 A 
HETATM   24  C   UNL     1      -1.257   5.630 -34.114  1.00  0.00     0.009 A 
HETATM   25  C   UNL     1      -2.233   4.597 -34.021  1.00  0.00     0.025 A 
ENDBRANCH  18  21
ENDBRANCH   1  17
BRANCH   1  26
HETATM   26  C   UNL     1      -6.308   1.553 -33.726  1.00  0.00     0.073 C 
BRANCH  26  27
HETATM   27  C   UNL     1      -5.841   0.121 -33.896  1.00  0.00    -0.056 A 
HETATM   28  C   UNL     1      -6.583  -0.781 -34.673  1.00  0.00     0.007 A 
HETATM   29  C   UNL     1      -6.183  -2.114 -34.783  1.00  0.00     0.001 A 
HETATM   30  C   UNL     1      -5.044  -2.560 -34.115  1.00  0.00     0.000 A 
HETATM   31  C   UNL     1      -4.298  -1.671 -33.344  1.00  0.00     0.001 A 
HETATM   32  C   UNL     1      -4.691  -0.335 -33.240  1.00  0.00     0.007 A 
ENDBRANCH  26  27
ENDBRANCH   1  26
TORSDOF 6
ENDMDL
MODEL 9
REMARK VINA RESULT:      -8.0      3.234      8.673
REMARK  6 active torsions:
REMARK  status: ('A' for Active; 'I' for Inactive)
REMARK    1  A    between atoms: C_9  and  N_10 
REMARK       I    between atoms: N_10  and  C_11 
REMARK    2  A    between atoms: C_11  and  C_12 
REMARK    3  A    between atoms: C_12  and  N_13 
REMARK    4  A    between atoms: C_12  and  C_21 
REMARK       I    between atoms: N_13  and  C_14 
REMARK    5  A    between atoms: C_14  and  C_15 
REMARK    6  A    between atoms: C_21  and  C_22 
ROOT
HETATM    1  C   UNL     1      -4.969   4.191 -30.905  1.00  0.00     0.181 C 
ENDROOT
BRANCH   1   2
HETATM    2  C   UNL     1      -4.692   3.105 -31.990  1.00  0.00     0.245 C 
HETATM    3  N   UNL     1      -4.789   1.797 -31.540  1.00  0.00    -0.325 N 
HETATM    4  H   UNL     1      -4.864   1.643 -30.547  1.00  0.00     0.169 HD
HETATM    5  O   UNL     1      -4.538   3.429 -33.168  1.00  0.00    -0.271 OA
BRANCH   3   6
HETATM    6  C   UNL     1      -4.779   0.613 -32.319  1.00  0.00     0.037 A 
HETATM    7  C   UNL     1      -5.934  -0.035 -32.772  1.00  0.00     0.063 A 
HETATM    8  C   UNL     1      -5.809  -1.233 -33.496  1.00  0.00     0.087 A 
HETATM    9  N   UNL     1      -6.782  -2.053 -34.014  1.00  0.00    -0.234 NA
HETATM   10  C   UNL     1      -4.544  -1.742 -33.761  1.00  0.00     0.062 A 
HETATM   11  C   UNL     1      -6.143  -3.049 -34.590  1.00  0.00     0.101 A 
HETATM   12  C   UNL     1      -6.748  -4.209 -35.284  1.00  0.00     0.091 C 
HETATM   13  N   UNL     1      -4.784  -2.892 -34.469  1.00  0.00    -0.343 N 
HETATM   14  H   UNL     1      -4.084  -3.524 -34.828  1.00  0.00     0.167 HD
HETATM   15  C   UNL     1      -3.370  -1.123 -33.342  1.00  0.00     0.034 A 
HETATM   16  C   UNL     1      -3.517   0.063 -32.609  1.00  0.00     0.032 A 
ENDBRANCH   3   6
ENDBRANCH   1   2
BRANCH   1  17
HETATM   17  N   UNL     1      -3.702   4.801 -30.488  1.00  0.00    -0.343 N 
HETATM   18  C   UNL     1      -3.310   6.067 -30.865  1.00  0.00     0.259 C 
HETATM   19  O   UNL     1      -3.994   6.755 -31.619  1.00  0.00    -0.267 OA
HETATM   20  H   UNL     1      -3.182   4.364 -29.738  1.00  0.00     0.163 HD
BRANCH  18  21
HETATM   21  C   UNL     1      -2.024   6.516 -30.346  1.00  0.00     0.072 A 
HETATM   22  S   UNL     1      -0.561   5.677 -30.658  1.00  0.00    -0.097 SA
HETATM   23  C   UNL     1       0.368   6.834 -29.809  1.00  0.00     0.050 A 
HETATM   24  C   UNL     1      -0.412   7.838 -29.283  1.00  0.00     0.009 A 
HETATM   25  C   UNL     1      -1.790   7.653 -29.592  1.00  0.00     0.025 A 
ENDBRANCH  18  21
ENDBRANCH   1  17
BRANCH   1  26
HETATM   26  C   UNL     1      -5.857   3.769 -29.715  1.00  0.00     0.073 C 
BRANCH  26  27
HETATM   27  C   UNL     1      -7.332   3.950 -30.013  1.00  0.00    -0.056 A 
HETATM   28  C   UNL     1      -7.952   5.192 -29.807  1.00  0.00     0.007 A 
HETATM   29  C   UNL     1      -9.322   5.343 -30.028  1.00  0.00     0.001 A 
HETATM   30  C   UNL     1     -10.086   4.257 -30.450  1.00  0.00     0.000 A 
HETATM   31  C   UNL     1      -9.480   3.020 -30.662  1.00  0.00     0.001 A 
HETATM   32  C   UNL     1      -8.109   2.869 -30.451  1.00  0.00     0.007 A 
ENDBRANCH  26  27
ENDBRANCH   1  26
TORSDOF 6
ENDMDL
MODEL 10
REMARK VINA RESULT:      -7.9     16.335     18.304
REMARK  6 active torsions:
REMARK  status: ('A' for Active; 'I' for Inactive)
REMARK    1  A    between atoms: C_9  and  N_10 
REMARK       I    between atoms: N_10  and  C_11 
REMARK    2  A    between atoms: C_11  and  C_12 
REMARK    3  A    between atoms: C_12  and  N_13 
REMARK    4  A    between atoms: C_12  and  C_21 
REMARK       I    between atoms: N_13  and  C_14 
REMARK    5  A    between atoms: C_14  and  C_15 
REMARK    6  A    between atoms: C_21  and  C_22 
ROOT
HETATM    1  C   UNL     1      -6.698 -13.579 -37.618  1.00  0.00     0.181 C 
ENDROOT
BRANCH   1   2
HETATM    2  C   UNL     1      -6.964 -13.854 -36.106  1.00  0.00     0.245 C 
HETATM    3  N   UNL     1      -6.141 -14.813 -35.536  1.00  0.00    -0.325 N 
HETATM    4  H   UNL     1      -5.562 -15.364 -36.150  1.00  0.00     0.169 HD
HETATM    5  O   UNL     1      -7.760 -13.155 -35.479  1.00  0.00    -0.271 OA
BRANCH   3   6
HETATM    6  C   UNL     1      -6.016 -15.139 -34.163  1.00  0.00     0.037 A 
HETATM    7  C   UNL     1      -6.508 -16.319 -33.592  1.00  0.00     0.063 A 
HETATM    8  C   UNL     1      -6.373 -16.518 -32.207  1.00  0.00     0.087 A 
HETATM    9  N   UNL     1      -6.793 -17.566 -31.424  1.00  0.00    -0.234 NA
HETATM   10  C   UNL     1      -5.743 -15.550 -31.436  1.00  0.00     0.062 A 
HETATM   11  C   UNL     1      -6.434 -17.264 -30.195  1.00  0.00     0.101 A 
HETATM   12  C   UNL     1      -6.672 -18.069 -28.976  1.00  0.00     0.091 C 
HETATM   13  N   UNL     1      -5.784 -16.054 -30.160  1.00  0.00    -0.343 N 
HETATM   14  H   UNL     1      -5.413 -15.608 -29.335  1.00  0.00     0.167 HD
HETATM   15  C   UNL     1      -5.227 -14.370 -31.964  1.00  0.00     0.034 A 
HETATM   16  C   UNL     1      -5.385 -14.184 -33.345  1.00  0.00     0.032 A 
ENDBRANCH   3   6
ENDBRANCH   1   2
BRANCH   1  17
HETATM   17  N   UNL     1      -5.254 -13.478 -37.851  1.00  0.00    -0.343 N 
HETATM   18  C   UNL     1      -4.606 -14.123 -38.883  1.00  0.00     0.259 C 
HETATM   19  O   UNL     1      -5.205 -14.865 -39.656  1.00  0.00    -0.267 OA
HETATM   20  H   UNL     1      -4.738 -12.756 -37.365  1.00  0.00     0.163 HD
BRANCH  18  21
HETATM   21  C   UNL     1      -3.168 -13.898 -38.970  1.00  0.00     0.072 A 
HETATM   22  S   UNL     1      -2.238 -14.391 -40.324  1.00  0.00    -0.097 SA
HETATM   23  C   UNL     1      -0.804 -13.727 -39.672  1.00  0.00     0.050 A 
HETATM   24  C   UNL     1      -1.015 -13.150 -38.441  1.00  0.00     0.009 A 
HETATM   25  C   UNL     1      -2.377 -13.250 -38.037  1.00  0.00     0.025 A 
ENDBRANCH  18  21
ENDBRANCH   1  17
BRANCH   1  26
HETATM   26  C   UNL     1      -7.498 -12.427 -38.263  1.00  0.00     0.073 C 
BRANCH  26  27
HETATM   27  C   UNL     1      -8.669 -12.933 -39.081  1.00  0.00    -0.056 A 
HETATM   28  C   UNL     1      -9.540 -12.030 -39.710  1.00  0.00     0.007 A 
HETATM   29  C   UNL     1     -10.650 -12.496 -40.416  1.00  0.00     0.001 A 
HETATM   30  C   UNL     1     -10.905 -13.863 -40.496  1.00  0.00     0.000 A 
HETATM   31  C   UNL     1     -10.044 -14.769 -39.879  1.00  0.00     0.001 A 
HETATM   32  C   UNL     1      -8.928 -14.306 -39.180  1.00  0.00     0.007 A 
ENDBRANCH  26  27
ENDBRANCH   1  26
TORSDOF 6
ENDMDL
