MODEL 1
REMARK VINA RESULT:      -9.0      0.000      0.000
REMARK  5 active torsions:
REMARK  status: ('A' for Active; 'I' for Inactive)
REMARK    1  A    between atoms: C_3  and  N_4 
REMARK       I    between atoms: N_4  and  C_5 
REMARK       I    between atoms: C_5  and  N_6 
REMARK    2  A    between atoms: N_6  and  C_7 
REMARK    3  A    between atoms: C_7  and  C_8 
REMARK    4  A    between atoms: C_10  and  N_11 
REMARK       I    between atoms: N_11  and  C_12 
REMARK    5  A    between atoms: C_12  and  C_13 
ROOT
HETATM    1  C   UNL     1      -5.347   1.918 -31.954  1.00  0.00    -0.038 A 
HETATM    2  C   UNL     1      -6.513   1.852 -32.738  1.00  0.00     0.038 A 
HETATM    3  C   UNL     1      -7.770   2.104 -32.182  1.00  0.00     0.035 A 
HETATM    4  C   UNL     1      -7.857   2.416 -30.821  1.00  0.00     0.029 A 
HETATM    5  C   UNL     1      -6.709   2.474 -30.029  1.00  0.00     0.003 A 
HETATM    6  C   UNL     1      -5.459   2.222 -30.592  1.00  0.00     0.009 A 
ENDROOT
BRANCH   1   7
HETATM    7  C   UNL     1      -4.003   1.625 -32.572  1.00  0.00     0.163 C 
BRANCH   7   8
HETATM    8  N   UNL     1      -3.441   0.393 -32.055  1.00  0.00    -0.339 N 
HETATM    9  C   UNL     1      -3.691  -0.906 -32.374  1.00  0.00     0.321 C 
HETATM   10  N   UNL     1      -4.422  -1.120 -33.506  1.00  0.00    -0.307 N 
HETATM   11  O   UNL     1      -3.246  -1.771 -31.626  1.00  0.00    -0.247 OA
HETATM   12  H   UNL     1      -4.504  -0.338 -34.130  1.00  0.00     0.170 HD
HETATM   13  H   UNL     1      -2.902   0.473 -31.201  1.00  0.00     0.164 HD
BRANCH  10  14
HETATM   14  C   UNL     1      -4.913  -2.357 -33.990  1.00  0.00     0.059 A 
HETATM   15  C   UNL     1      -6.233  -2.430 -34.476  1.00  0.00    -0.032 A 
HETATM   16  C   UNL     1      -7.151  -1.239 -34.510  1.00  0.00     0.050 C 
HETATM   17  C   UNL     1      -6.712  -3.658 -34.953  1.00  0.00     0.028 A 
HETATM   18  C   UNL     1      -5.880  -4.765 -34.922  1.00  0.00     0.117 A 
HETATM   19  N   UNL     1      -4.620  -4.734 -34.452  1.00  0.00    -0.271 NA
HETATM   20  C   UNL     1      -4.166  -3.536 -34.000  1.00  0.00     0.146 A 
ENDBRANCH  10  14
ENDBRANCH   7   8
ENDBRANCH   1   7
BRANCH   3  21
HETATM   21  N   UNL     1      -8.978   2.052 -32.910  1.00  0.00    -0.323 N 
HETATM   22  C   UNL     1      -9.893   1.015 -32.947  1.00  0.00     0.256 C 
HETATM   23  O   UNL     1      -9.785  -0.079 -32.404  1.00  0.00    -0.267 OA
HETATM   24  H   UNL     1      -9.153   2.845 -33.514  1.00  0.00     0.169 HD
BRANCH  22  25
HETATM   25  C   UNL     1     -11.109   1.269 -33.767  1.00  0.00     0.035 A 
HETATM   26  C   UNL     1     -11.188   2.336 -34.663  1.00  0.00     0.036 A 
HETATM   27  C   UNL     1     -12.366   2.497 -35.372  1.00  0.00     0.117 A 
HETATM   28  N   UNL     1     -13.436   1.685 -35.243  1.00  0.00    -0.273 NA
HETATM   29  C   UNL     1     -13.339   0.675 -34.352  1.00  0.00     0.117 A 
HETATM   30  C   UNL     1     -12.210   0.429 -33.594  1.00  0.00     0.036 A 
ENDBRANCH  22  25
ENDBRANCH   3  21
TORSDOF 5
ENDMDL
MODEL 2
REMARK VINA RESULT:      -8.7      3.629      7.608
REMARK  5 active torsions:
REMARK  status: ('A' for Active; 'I' for Inactive)
REMARK    1  A    between atoms: C_3  and  N_4 
REMARK       I    between atoms: N_4  and  C_5 
REMARK       I    between atoms: C_5  and  N_6 
REMARK    2  A    between atoms: N_6  and  C_7 
REMARK    3  A    between atoms: C_7  and  C_8 
REMARK    4  A    between atoms: C_10  and  N_11 
REMARK       I    between atoms: N_11  and  C_12 
REMARK    5  A    between atoms: C_12  and  C_13 
ROOT
HETATM    1  C   UNL     1      -6.604   2.877 -32.212  1.00  0.00    -0.038 A 
HETATM    2  C   UNL     1      -6.545   1.651 -32.900  1.00  0.00     0.038 A 
HETATM    3  C   UNL     1      -6.234   0.464 -32.232  1.00  0.00     0.035 A 
HETATM    4  C   UNL     1      -5.969   0.510 -30.859  1.00  0.00     0.029 A 
HETATM    5  C   UNL     1      -6.012   1.721 -30.166  1.00  0.00     0.003 A 
HETATM    6  C   UNL     1      -6.324   2.900 -30.840  1.00  0.00     0.009 A 
ENDROOT
BRANCH   1   7
HETATM    7  C   UNL     1      -6.924   4.148 -32.957  1.00  0.00     0.163 C 
BRANCH   7   8
HETATM    8  N   UNL     1      -6.087   4.296 -34.132  1.00  0.00    -0.339 N 
HETATM    9  C   UNL     1      -4.853   4.847 -34.285  1.00  0.00     0.321 C 
HETATM   10  N   UNL     1      -4.167   5.123 -33.138  1.00  0.00    -0.307 N 
HETATM   11  O   UNL     1      -4.460   5.053 -35.429  1.00  0.00    -0.247 OA
HETATM   12  H   UNL     1      -4.512   4.682 -32.304  1.00  0.00     0.170 HD
HETATM   13  H   UNL     1      -6.537   4.128 -35.024  1.00  0.00     0.164 HD
BRANCH  10  14
HETATM   14  C   UNL     1      -2.928   5.797 -33.019  1.00  0.00     0.059 A 
HETATM   15  C   UNL     1      -1.954   5.294 -32.134  1.00  0.00    -0.032 A 
HETATM   16  C   UNL     1      -2.173   4.058 -31.305  1.00  0.00     0.050 C 
HETATM   17  C   UNL     1      -0.729   5.968 -32.021  1.00  0.00     0.028 A 
HETATM   18  C   UNL     1      -0.516   7.111 -32.773  1.00  0.00     0.117 A 
HETATM   19  N   UNL     1      -1.429   7.625 -33.617  1.00  0.00    -0.271 NA
HETATM   20  C   UNL     1      -2.607   6.959 -33.722  1.00  0.00     0.146 A 
ENDBRANCH  10  14
ENDBRANCH   7   8
ENDBRANCH   1   7
BRANCH   3  21
HETATM   21  N   UNL     1      -6.156  -0.797 -32.862  1.00  0.00    -0.323 N 
HETATM   22  C   UNL     1      -5.063  -1.348 -33.507  1.00  0.00     0.256 C 
HETATM   23  O   UNL     1      -3.980  -0.809 -33.707  1.00  0.00    -0.267 OA
HETATM   24  H   UNL     1      -7.021  -1.321 -32.887  1.00  0.00     0.169 HD
BRANCH  22  25
HETATM   25  C   UNL     1      -5.263  -2.726 -34.032  1.00  0.00     0.035 A 
HETATM   26  C   UNL     1      -4.284  -3.714 -33.910  1.00  0.00     0.036 A 
HETATM   27  C   UNL     1      -4.558  -4.962 -34.440  1.00  0.00     0.117 A 
HETATM   28  N   UNL     1      -5.712  -5.274 -35.068  1.00  0.00    -0.273 NA
HETATM   29  C   UNL     1      -6.631  -4.293 -35.192  1.00  0.00     0.117 A 
HETATM   30  C   UNL     1      -6.454  -3.014 -34.699  1.00  0.00     0.036 A 
ENDBRANCH  22  25
ENDBRANCH   3  21
TORSDOF 5
ENDMDL
MODEL 3
REMARK VINA RESULT:      -8.6      3.037      5.791
REMARK  5 active torsions:
REMARK  status: ('A' for Active; 'I' for Inactive)
REMARK    1  A    between atoms: C_3  and  N_4 
REMARK       I    between atoms: N_4  and  C_5 
REMARK       I    between atoms: C_5  and  N_6 
REMARK    2  A    between atoms: N_6  and  C_7 
REMARK    3  A    between atoms: C_7  and  C_8 
REMARK    4  A    between atoms: C_10  and  N_11 
REMARK       I    between atoms: N_11  and  C_12 
REMARK    5  A    between atoms: C_12  and  C_13 
ROOT
HETATM    1  C   UNL     1      -5.141  -0.094 -33.196  1.00  0.00    -0.038 A 
HETATM    2  C   UNL     1      -6.414   0.469 -33.403  1.00  0.00     0.038 A 
HETATM    3  C   UNL     1      -7.413  -0.236 -34.078  1.00  0.00     0.035 A 
HETATM    4  C   UNL     1      -7.128  -1.518 -34.560  1.00  0.00     0.029 A 
HETATM    5  C   UNL     1      -5.866  -2.085 -34.373  1.00  0.00     0.003 A 
HETATM    6  C   UNL     1      -4.876  -1.375 -33.698  1.00  0.00     0.009 A 
ENDROOT
BRANCH   1   7
HETATM    7  C   UNL     1      -4.073   0.692 -32.481  1.00  0.00     0.163 C 
BRANCH   7   8
HETATM    8  N   UNL     1      -4.608   1.913 -31.911  1.00  0.00    -0.339 N 
HETATM    9  C   UNL     1      -4.137   3.189 -31.930  1.00  0.00     0.321 C 
HETATM   10  N   UNL     1      -3.111   3.442 -32.794  1.00  0.00    -0.307 N 
HETATM   11  O   UNL     1      -4.664   4.002 -31.177  1.00  0.00    -0.247 OA
HETATM   12  H   UNL     1      -2.956   2.750 -33.505  1.00  0.00     0.170 HD
HETATM   13  H   UNL     1      -5.361   1.801 -31.243  1.00  0.00     0.164 HD
BRANCH  10  14
HETATM   14  C   UNL     1      -2.372   4.643 -32.922  1.00  0.00     0.059 A 
HETATM   15  C   UNL     1      -2.643   5.504 -34.003  1.00  0.00    -0.032 A 
HETATM   16  C   UNL     1      -3.697   5.206 -35.034  1.00  0.00     0.050 C 
HETATM   17  C   UNL     1      -1.907   6.692 -34.124  1.00  0.00     0.028 A 
HETATM   18  C   UNL     1      -0.929   6.977 -33.186  1.00  0.00     0.117 A 
HETATM   19  N   UNL     1      -0.635   6.171 -32.150  1.00  0.00    -0.271 NA
HETATM   20  C   UNL     1      -1.361   5.028 -32.042  1.00  0.00     0.146 A 
ENDBRANCH  10  14
ENDBRANCH   7   8
ENDBRANCH   1   7
BRANCH   3  21
HETATM   21  N   UNL     1      -8.708   0.271 -34.321  1.00  0.00    -0.323 N 
HETATM   22  C   UNL     1      -9.703   0.515 -33.390  1.00  0.00     0.256 C 
HETATM   23  O   UNL     1      -9.661   0.272 -32.190  1.00  0.00    -0.267 OA
HETATM   24  H   UNL     1      -8.941   0.411 -35.295  1.00  0.00     0.169 HD
BRANCH  22  25
HETATM   25  C   UNL     1     -10.955   1.104 -33.938  1.00  0.00     0.035 A 
HETATM   26  C   UNL     1     -10.963   2.324 -34.618  1.00  0.00     0.036 A 
HETATM   27  C   UNL     1     -12.180   2.796 -35.079  1.00  0.00     0.117 A 
HETATM   28  N   UNL     1     -13.351   2.147 -34.908  1.00  0.00    -0.273 NA
HETATM   29  C   UNL     1     -13.315   0.981 -34.227  1.00  0.00     0.117 A 
HETATM   30  C   UNL     1     -12.154   0.425 -33.724  1.00  0.00     0.036 A 
ENDBRANCH  22  25
ENDBRANCH   3  21
TORSDOF 5
ENDMDL
MODEL 4
REMARK VINA RESULT:      -8.6      5.186      8.857
REMARK  5 active torsions:
REMARK  status: ('A' for Active; 'I' for Inactive)
REMARK    1  A    between atoms: C_3  and  N_4 
REMARK       I    between atoms: N_4  and  C_5 
REMARK       I    between atoms: C_5  and  N_6 
REMARK    2  A    between atoms: N_6  and  C_7 
REMARK    3  A    between atoms: C_7  and  C_8 
REMARK    4  A    between atoms: C_10  and  N_11 
REMARK       I    between atoms: N_11  and  C_12 
REMARK    5  A    between atoms: C_12  and  C_13 
ROOT
HETATM    1  C   UNL     1      -3.057   3.656 -32.466  1.00  0.00    -0.038 A 
HETATM    2  C   UNL     1      -2.594   4.300 -31.304  1.00  0.00     0.038 A 
HETATM    3  C   UNL     1      -1.636   5.314 -31.375  1.00  0.00     0.035 A 
HETATM    4  C   UNL     1      -1.129   5.679 -32.627  1.00  0.00     0.029 A 
HETATM    5  C   UNL     1      -1.571   5.041 -33.787  1.00  0.00     0.003 A 
HETATM    6  C   UNL     1      -2.527   4.031 -33.707  1.00  0.00     0.009 A 
ENDROOT
BRANCH   1   7
HETATM    7  C   UNL     1      -4.078   2.552 -32.363  1.00  0.00     0.163 C 
BRANCH   7   8
HETATM    8  N   UNL     1      -3.477   1.318 -31.897  1.00  0.00    -0.339 N 
HETATM    9  C   UNL     1      -3.729   0.022 -32.225  1.00  0.00     0.321 C 
HETATM   10  N   UNL     1      -4.518  -0.182 -33.321  1.00  0.00    -0.307 N 
HETATM   11  O   UNL     1      -3.236  -0.850 -31.518  1.00  0.00    -0.247 OA
HETATM   12  H   UNL     1      -4.641   0.610 -33.926  1.00  0.00     0.170 HD
HETATM   13  H   UNL     1      -2.894   1.390 -31.072  1.00  0.00     0.164 HD
BRANCH  10  14
HETATM   14  C   UNL     1      -5.020  -1.416 -33.800  1.00  0.00     0.059 A 
HETATM   15  C   UNL     1      -6.393  -1.531 -34.092  1.00  0.00    -0.032 A 
HETATM   16  C   UNL     1      -7.357  -0.389 -33.923  1.00  0.00     0.050 C 
HETATM   17  C   UNL     1      -6.883  -2.757 -34.566  1.00  0.00     0.028 A 
HETATM   18  C   UNL     1      -6.009  -3.819 -34.720  1.00  0.00     0.117 A 
HETATM   19  N   UNL     1      -4.695  -3.747 -34.437  1.00  0.00    -0.271 NA
HETATM   20  C   UNL     1      -4.233  -2.552 -33.987  1.00  0.00     0.146 A 
ENDBRANCH  10  14
ENDBRANCH   7   8
ENDBRANCH   1   7
BRANCH   3  21
HETATM   21  N   UNL     1      -1.127   5.998 -30.249  1.00  0.00    -0.323 N 
HETATM   22  C   UNL     1       0.035   5.720 -29.552  1.00  0.00     0.256 C 
HETATM   23  O   UNL     1       0.803   4.784 -29.747  1.00  0.00    -0.267 OA
HETATM   24  H   UNL     1      -1.720   6.734 -29.887  1.00  0.00     0.169 HD
BRANCH  22  25
HETATM   25  C   UNL     1       0.343   6.652 -28.433  1.00  0.00     0.035 A 
HETATM   26  C   UNL     1       1.027   7.852 -28.637  1.00  0.00     0.036 A 
HETATM   27  C   UNL     1       1.278   8.647 -27.532  1.00  0.00     0.117 A 
HETATM   28  N   UNL     1       0.902   8.325 -26.275  1.00  0.00    -0.273 NA
HETATM   29  C   UNL     1       0.263   7.148 -26.106  1.00  0.00     0.117 A 
HETATM   30  C   UNL     1      -0.034   6.283 -27.142  1.00  0.00     0.036 A 
ENDBRANCH  22  25
ENDBRANCH   3  21
TORSDOF 5
ENDMDL
MODEL 5
REMARK VINA RESULT:      -8.5      4.803      8.713
REMARK  5 active torsions:
REMARK  status: ('A' for Active; 'I' for Inactive)
REMARK    1  A    between atoms: C_3  and  N_4 
REMARK       I    between atoms: N_4  and  C_5 
REMARK       I    between atoms: C_5  and  N_6 
REMARK    2  A    between atoms: N_6  and  C_7 
REMARK    3  A    between atoms: C_7  and  C_8 
REMARK    4  A    between atoms: C_10  and  N_11 
REMARK       I    between atoms: N_11  and  C_12 
REMARK    5  A    between atoms: C_12  and  C_13 
ROOT
HETATM    1  C   UNL     1      -4.327   2.640 -31.426  1.00  0.00    -0.038 A 
HETATM    2  C   UNL     1      -4.297   1.391 -32.072  1.00  0.00     0.038 A 
HETATM    3  C   UNL     1      -5.302   0.444 -31.857  1.00  0.00     0.035 A 
HETATM    4  C   UNL     1      -6.344   0.752 -30.975  1.00  0.00     0.029 A 
HETATM    5  C   UNL     1      -6.380   1.983 -30.318  1.00  0.00     0.003 A 
HETATM    6  C   UNL     1      -5.374   2.921 -30.538  1.00  0.00     0.009 A 
ENDROOT
BRANCH   1   7
HETATM    7  C   UNL     1      -3.222   3.639 -31.659  1.00  0.00     0.163 C 
BRANCH   7   8
HETATM    8  N   UNL     1      -3.684   4.996 -31.446  1.00  0.00    -0.339 N 
HETATM    9  C   UNL     1      -3.167   6.009 -30.700  1.00  0.00     0.321 C 
HETATM   10  N   UNL     1      -1.898   5.828 -30.232  1.00  0.00    -0.307 N 
HETATM   11  O   UNL     1      -3.875   6.992 -30.507  1.00  0.00    -0.247 OA
HETATM   12  H   UNL     1      -1.369   5.095 -30.670  1.00  0.00     0.170 HD
HETATM   13  H   UNL     1      -4.629   5.198 -31.750  1.00  0.00     0.164 HD
BRANCH  10  14
HETATM   14  C   UNL     1      -1.181   6.668 -29.346  1.00  0.00     0.059 A 
HETATM   15  C   UNL     1       0.102   7.119 -29.713  1.00  0.00    -0.032 A 
HETATM   16  C   UNL     1       0.749   6.749 -31.020  1.00  0.00     0.050 C 
HETATM   17  C   UNL     1       0.806   7.950 -28.830  1.00  0.00     0.028 A 
HETATM   18  C   UNL     1       0.227   8.294 -27.621  1.00  0.00     0.117 A 
HETATM   19  N   UNL     1      -0.990   7.871 -27.233  1.00  0.00    -0.271 NA
HETATM   20  C   UNL     1      -1.664   7.073 -28.101  1.00  0.00     0.146 A 
ENDBRANCH  10  14
ENDBRANCH   7   8
ENDBRANCH   1   7
BRANCH   3  21
HETATM   21  N   UNL     1      -5.331  -0.827 -32.471  1.00  0.00    -0.323 N 
HETATM   22  C   UNL     1      -5.758  -1.132 -33.752  1.00  0.00     0.256 C 
HETATM   23  O   UNL     1      -6.252  -0.359 -34.565  1.00  0.00    -0.267 OA
HETATM   24  H   UNL     1      -5.063  -1.600 -31.876  1.00  0.00     0.169 HD
BRANCH  22  25
HETATM   25  C   UNL     1      -5.622  -2.561 -34.144  1.00  0.00     0.035 A 
HETATM   26  C   UNL     1      -4.441  -3.277 -33.934  1.00  0.00     0.036 A 
HETATM   27  C   UNL     1      -4.407  -4.598 -34.344  1.00  0.00     0.117 A 
HETATM   28  N   UNL     1      -5.446  -5.228 -34.934  1.00  0.00    -0.273 NA
HETATM   29  C   UNL     1      -6.566  -4.504 -35.145  1.00  0.00     0.117 A 
HETATM   30  C   UNL     1      -6.701  -3.179 -34.775  1.00  0.00     0.036 A 
ENDBRANCH  22  25
ENDBRANCH   3  21
TORSDOF 5
ENDMDL
MODEL 6
REMARK VINA RESULT:      -8.5      1.795      6.889
REMARK  5 active torsions:
REMARK  status: ('A' for Active; 'I' for Inactive)
REMARK    1  A    between atoms: C_3  and  N_4 
REMARK       I    between atoms: N_4  and  C_5 
REMARK       I    between atoms: C_5  and  N_6 
REMARK    2  A    between atoms: N_6  and  C_7 
REMARK    3  A    between atoms: C_7  and  C_8 
REMARK    4  A    between atoms: C_10  and  N_11 
REMARK       I    between atoms: N_11  and  C_12 
REMARK    5  A    between atoms: C_12  and  C_13 
ROOT
HETATM    1  C   UNL     1      -5.740   2.871 -31.639  1.00  0.00    -0.038 A 
HETATM    2  C   UNL     1      -5.929   1.552 -32.090  1.00  0.00     0.038 A 
HETATM    3  C   UNL     1      -4.842   0.741 -32.426  1.00  0.00     0.035 A 
HETATM    4  C   UNL     1      -3.549   1.266 -32.316  1.00  0.00     0.029 A 
HETATM    5  C   UNL     1      -3.347   2.577 -31.881  1.00  0.00     0.003 A 
HETATM    6  C   UNL     1      -4.437   3.377 -31.548  1.00  0.00     0.009 A 
ENDROOT
BRANCH   1   7
HETATM    7  C   UNL     1      -6.929   3.732 -31.300  1.00  0.00     0.163 C 
BRANCH   7   8
HETATM    8  N   UNL     1      -7.565   4.250 -32.496  1.00  0.00    -0.339 N 
HETATM    9  C   UNL     1      -8.732   3.909 -33.107  1.00  0.00     0.321 C 
HETATM   10  N   UNL     1      -9.574   3.106 -32.394  1.00  0.00    -0.307 N 
HETATM   11  O   UNL     1      -8.931   4.344 -34.236  1.00  0.00    -0.247 OA
HETATM   12  H   UNL     1      -9.386   3.035 -31.411  1.00  0.00     0.170 HD
HETATM   13  H   UNL     1      -6.990   4.839 -33.087  1.00  0.00     0.164 HD
BRANCH  10  14
HETATM   14  C   UNL     1     -10.783   2.519 -32.841  1.00  0.00     0.059 A 
HETATM   15  C   UNL     1     -10.776   1.181 -33.281  1.00  0.00    -0.032 A 
HETATM   16  C   UNL     1      -9.530   0.338 -33.292  1.00  0.00     0.050 C 
HETATM   17  C   UNL     1     -11.977   0.608 -33.722  1.00  0.00     0.028 A 
HETATM   18  C   UNL     1     -13.130   1.373 -33.723  1.00  0.00     0.117 A 
HETATM   19  N   UNL     1     -13.170   2.657 -33.323  1.00  0.00    -0.271 NA
HETATM   20  C   UNL     1     -12.001   3.198 -32.891  1.00  0.00     0.146 A 
ENDBRANCH  10  14
ENDBRANCH   7   8
ENDBRANCH   1   7
BRANCH   3  21
HETATM   21  N   UNL     1      -4.962  -0.588 -32.886  1.00  0.00    -0.323 N 
HETATM   22  C   UNL     1      -5.660  -1.033 -33.994  1.00  0.00     0.256 C 
HETATM   23  O   UNL     1      -6.358  -0.358 -34.743  1.00  0.00    -0.267 OA
HETATM   24  H   UNL     1      -4.533  -1.289 -32.296  1.00  0.00     0.169 HD
BRANCH  22  25
HETATM   25  C   UNL     1      -5.561  -2.494 -34.263  1.00  0.00     0.035 A 
HETATM   26  C   UNL     1      -4.389  -3.213 -34.025  1.00  0.00     0.036 A 
HETATM   27  C   UNL     1      -4.391  -4.565 -34.318  1.00  0.00     0.117 A 
HETATM   28  N   UNL     1      -5.458  -5.222 -34.821  1.00  0.00    -0.273 NA
HETATM   29  C   UNL     1      -6.570  -4.496 -35.063  1.00  0.00     0.117 A 
HETATM   30  C   UNL     1      -6.671  -3.142 -34.807  1.00  0.00     0.036 A 
ENDBRANCH  22  25
ENDBRANCH   3  21
TORSDOF 5
ENDMDL
MODEL 7
REMARK VINA RESULT:      -8.4      3.295      7.239
REMARK  5 active torsions:
REMARK  status: ('A' for Active; 'I' for Inactive)
REMARK    1  A    between atoms: C_3  and  N_4 
REMARK       I    between atoms: N_4  and  C_5 
REMARK       I    between atoms: C_5  and  N_6 
REMARK    2  A    between atoms: N_6  and  C_7 
REMARK    3  A    between atoms: C_7  and  C_8 
REMARK    4  A    between atoms: C_10  and  N_11 
REMARK       I    between atoms: N_11  and  C_12 
REMARK    5  A    between atoms: C_12  and  C_13 
ROOT
HETATM    1  C   UNL     1      -7.040   2.364 -31.091  1.00  0.00    -0.038 A 
HETATM    2  C   UNL     1      -6.520   1.164 -31.609  1.00  0.00     0.038 A 
HETATM    3  C   UNL     1      -7.340   0.254 -32.281  1.00  0.00     0.035 A 
HETATM    4  C   UNL     1      -8.700   0.548 -32.425  1.00  0.00     0.029 A 
HETATM    5  C   UNL     1      -9.232   1.730 -31.906  1.00  0.00     0.003 A 
HETATM    6  C   UNL     1      -8.407   2.632 -31.238  1.00  0.00     0.009 A 
ENDROOT
BRANCH   1   7
HETATM    7  C   UNL     1      -6.139   3.323 -30.355  1.00  0.00     0.163 C 
BRANCH   7   8
HETATM    8  N   UNL     1      -4.750   2.920 -30.448  1.00  0.00    -0.339 N 
HETATM    9  C   UNL     1      -3.685   3.514 -31.051  1.00  0.00     0.321 C 
HETATM   10  N   UNL     1      -3.866   4.803 -31.462  1.00  0.00    -0.307 N 
HETATM   11  O   UNL     1      -2.661   2.852 -31.179  1.00  0.00    -0.247 OA
HETATM   12  H   UNL     1      -4.661   5.279 -31.076  1.00  0.00     0.170 HD
HETATM   13  H   UNL     1      -4.544   1.965 -30.179  1.00  0.00     0.164 HD
BRANCH  10  14
HETATM   14  C   UNL     1      -2.967   5.600 -32.211  1.00  0.00     0.059 A 
HETATM   15  C   UNL     1      -3.183   5.766 -33.593  1.00  0.00    -0.032 A 
HETATM   16  C   UNL     1      -4.342   5.133 -34.314  1.00  0.00     0.050 C 
HETATM   17  C   UNL     1      -2.288   6.556 -34.329  1.00  0.00     0.028 A 
HETATM   18  C   UNL     1      -1.213   7.139 -33.680  1.00  0.00     0.117 A 
HETATM   19  N   UNL     1      -0.969   6.990 -32.365  1.00  0.00    -0.271 NA
HETATM   20  C   UNL     1      -1.848   6.229 -31.664  1.00  0.00     0.146 A 
ENDBRANCH  10  14
ENDBRANCH   7   8
ENDBRANCH   1   7
BRANCH   3  21
HETATM   21  N   UNL     1      -6.883  -0.968 -32.822  1.00  0.00    -0.323 N 
HETATM   22  C   UNL     1      -6.507  -1.219 -34.129  1.00  0.00     0.256 C 
HETATM   23  O   UNL     1      -6.563  -0.438 -35.072  1.00  0.00    -0.267 OA
HETATM   24  H   UNL     1      -6.896  -1.753 -32.184  1.00  0.00     0.169 HD
BRANCH  22  25
HETATM   25  C   UNL     1      -6.015  -2.598 -34.395  1.00  0.00     0.035 A 
HETATM   26  C   UNL     1      -6.821  -3.569 -34.993  1.00  0.00     0.036 A 
HETATM   27  C   UNL     1      -6.278  -4.827 -35.188  1.00  0.00     0.117 A 
HETATM   28  N   UNL     1      -5.021  -5.165 -34.832  1.00  0.00    -0.273 NA
HETATM   29  C   UNL     1      -4.272  -4.213 -34.235  1.00  0.00     0.117 A 
HETATM   30  C   UNL     1      -4.720  -2.928 -33.994  1.00  0.00     0.036 A 
ENDBRANCH  22  25
ENDBRANCH   3  21
TORSDOF 5
ENDMDL
MODEL 8
REMARK VINA RESULT:      -8.1      3.839      7.562
REMARK  5 active torsions:
REMARK  status: ('A' for Active; 'I' for Inactive)
REMARK    1  A    between atoms: C_3  and  N_4 
REMARK       I    between atoms: N_4  and  C_5 
REMARK       I    between atoms: C_5  and  N_6 
REMARK    2  A    between atoms: N_6  and  C_7 
REMARK    3  A    between atoms: C_7  and  C_8 
REMARK    4  A    between atoms: C_10  and  N_11 
REMARK       I    between atoms: N_11  and  C_12 
REMARK    5  A    between atoms: C_12  and  C_13 
ROOT
HETATM    1  C   UNL     1      -6.672   3.967 -33.301  1.00  0.00    -0.038 A 
HETATM    2  C   UNL     1      -6.180   2.674 -33.559  1.00  0.00     0.038 A 
HETATM    3  C   UNL     1      -6.921   1.540 -33.219  1.00  0.00     0.035 A 
HETATM    4  C   UNL     1      -8.167   1.706 -32.604  1.00  0.00     0.029 A 
HETATM    5  C   UNL     1      -8.662   2.982 -32.332  1.00  0.00     0.003 A 
HETATM    6  C   UNL     1      -7.916   4.108 -32.674  1.00  0.00     0.009 A 
ENDROOT
BRANCH   1   7
HETATM    7  C   UNL     1      -5.846   5.176 -33.661  1.00  0.00     0.163 C 
BRANCH   7   8
HETATM    8  N   UNL     1      -4.603   4.794 -34.303  1.00  0.00    -0.339 N 
HETATM    9  C   UNL     1      -3.313   4.899 -33.885  1.00  0.00     0.321 C 
HETATM   10  N   UNL     1      -3.127   5.208 -32.568  1.00  0.00    -0.307 N 
HETATM   11  O   UNL     1      -2.429   4.710 -34.714  1.00  0.00    -0.247 OA
HETATM   12  H   UNL     1      -3.928   5.093 -31.973  1.00  0.00     0.170 HD
HETATM   13  H   UNL     1      -4.661   4.571 -35.289  1.00  0.00     0.164 HD
BRANCH  10  14
HETATM   14  C   UNL     1      -1.902   5.486 -31.916  1.00  0.00     0.059 A 
HETATM   15  C   UNL     1      -1.315   6.758 -32.068  1.00  0.00    -0.032 A 
HETATM   16  C   UNL     1      -1.942   7.846 -32.896  1.00  0.00     0.050 C 
HETATM   17  C   UNL     1      -0.101   7.025 -31.419  1.00  0.00     0.028 A 
HETATM   18  C   UNL     1       0.491   6.031 -30.659  1.00  0.00     0.117 A 
HETATM   19  N   UNL     1      -0.035   4.802 -30.504  1.00  0.00    -0.271 NA
HETATM   20  C   UNL     1      -1.214   4.559 -31.131  1.00  0.00     0.146 A 
ENDBRANCH  10  14
ENDBRANCH   7   8
ENDBRANCH   1   7
BRANCH   3  21
HETATM   21  N   UNL     1      -6.486   0.216 -33.448  1.00  0.00    -0.323 N 
HETATM   22  C   UNL     1      -6.882  -0.634 -34.465  1.00  0.00     0.256 C 
HETATM   23  O   UNL     1      -7.734  -0.413 -35.317  1.00  0.00    -0.267 OA
HETATM   24  H   UNL     1      -5.861  -0.159 -32.747  1.00  0.00     0.169 HD
BRANCH  22  25
HETATM   25  C   UNL     1      -6.208  -1.961 -34.482  1.00  0.00     0.035 A 
HETATM   26  C   UNL     1      -6.877  -3.126 -34.860  1.00  0.00     0.036 A 
HETATM   27  C   UNL     1      -6.169  -4.315 -34.832  1.00  0.00     0.117 A 
HETATM   28  N   UNL     1      -4.875  -4.408 -34.459  1.00  0.00    -0.273 NA
HETATM   29  C   UNL     1      -4.260  -3.269 -34.076  1.00  0.00     0.117 A 
HETATM   30  C   UNL     1      -4.878  -2.033 -34.067  1.00  0.00     0.036 A 
ENDBRANCH  22  25
ENDBRANCH   3  21
TORSDOF 5
ENDMDL
MODEL 9
REMARK VINA RESULT:      -8.1      2.515      8.348
REMARK  5 active torsions:
REMARK  status: ('A' for Active; 'I' for Inactive)
REMARK    1  A    between atoms: C_3  and  N_4 
REMARK       I    between atoms: N_4  and  C_5 
REMARK       I    between atoms: C_5  and  N_6 
REMARK    2  A    between atoms: N_6  and  C_7 
REMARK    3  A    between atoms: C_7  and  C_8 
REMARK    4  A    between atoms: C_10  and  N_11 
REMARK       I    between atoms: N_11  and  C_12 
REMARK    5  A    between atoms: C_12  and  C_13 
ROOT
HETATM    1  C   UNL     1      -8.937   2.625 -33.440  1.00  0.00    -0.038 A 
HETATM    2  C   UNL     1      -8.461   1.396 -33.932  1.00  0.00     0.038 A 
HETATM    3  C   UNL     1      -7.840   0.473 -33.087  1.00  0.00     0.035 A 
HETATM    4  C   UNL     1      -7.685   0.793 -31.734  1.00  0.00     0.029 A 
HETATM    5  C   UNL     1      -8.141   2.014 -31.234  1.00  0.00     0.003 A 
HETATM    6  C   UNL     1      -8.760   2.928 -32.084  1.00  0.00     0.009 A 
ENDROOT
BRANCH   1   7
HETATM    7  C   UNL     1      -9.588   3.613 -34.374  1.00  0.00     0.163 C 
BRANCH   7   8
HETATM    8  N   UNL     1     -10.608   2.979 -35.186  1.00  0.00    -0.339 N 
HETATM    9  C   UNL     1     -11.907   2.679 -34.914  1.00  0.00     0.321 C 
HETATM   10  N   UNL     1     -12.434   3.241 -33.787  1.00  0.00    -0.307 N 
HETATM   11  O   UNL     1     -12.494   1.934 -35.692  1.00  0.00    -0.247 OA
HETATM   12  H   UNL     1     -11.915   4.006 -33.395  1.00  0.00     0.170 HD
HETATM   13  H   UNL     1     -10.286   2.521 -36.030  1.00  0.00     0.164 HD
BRANCH  10  14
HETATM   14  C   UNL     1     -13.710   2.999 -33.223  1.00  0.00     0.059 A 
HETATM   15  C   UNL     1     -14.365   4.039 -32.534  1.00  0.00    -0.032 A 
HETATM   16  C   UNL     1     -13.765   5.409 -32.374  1.00  0.00     0.050 C 
HETATM   17  C   UNL     1     -15.628   3.791 -31.978  1.00  0.00     0.028 A 
HETATM   18  C   UNL     1     -16.190   2.533 -32.111  1.00  0.00     0.117 A 
HETATM   19  N   UNL     1     -15.587   1.515 -32.751  1.00  0.00    -0.271 NA
HETATM   20  C   UNL     1     -14.367   1.770 -33.291  1.00  0.00     0.146 A 
ENDBRANCH  10  14
ENDBRANCH   7   8
ENDBRANCH   1   7
BRANCH   3  21
HETATM   21  N   UNL     1      -7.339  -0.776 -33.516  1.00  0.00    -0.323 N 
HETATM   22  C   UNL     1      -6.033  -1.086 -33.850  1.00  0.00     0.256 C 
HETATM   23  O   UNL     1      -5.083  -0.313 -33.898  1.00  0.00    -0.267 OA
HETATM   24  H   UNL     1      -8.035  -1.498 -33.645  1.00  0.00     0.169 HD
BRANCH  22  25
HETATM   25  C   UNL     1      -5.793  -2.509 -34.218  1.00  0.00     0.035 A 
HETATM   26  C   UNL     1      -6.799  -3.315 -34.752  1.00  0.00     0.036 A 
HETATM   27  C   UNL     1      -6.482  -4.629 -35.051  1.00  0.00     0.117 A 
HETATM   28  N   UNL     1      -5.261  -5.170 -34.852  1.00  0.00    -0.273 NA
HETATM   29  C   UNL     1      -4.314  -4.372 -34.313  1.00  0.00     0.117 A 
HETATM   30  C   UNL     1      -4.529  -3.049 -33.978  1.00  0.00     0.036 A 
ENDBRANCH  22  25
ENDBRANCH   3  21
TORSDOF 5
ENDMDL
MODEL 10
REMARK VINA RESULT:      -7.8      2.593      5.512
REMARK  5 active torsions:
REMARK  status: ('A' for Active; 'I' for Inactive)
REMARK    1  A    between atoms: C_3  and  N_4 
REMARK       I    between atoms: N_4  and  C_5 
REMARK       I    between atoms: C_5  and  N_6 
REMARK    2  A    between atoms: N_6  and  C_7 
REMARK    3  A    between atoms: C_7  and  C_8 
REMARK    4  A    between atoms: C_10  and  N_11 
REMARK       I    between atoms: N_11  and  C_12 
REMARK    5  A    between atoms: C_12  and  C_13 
ROOT
HETATM    1  C   UNL     1      -5.611  -0.176 -32.069  1.00  0.00    -0.038 A 
HETATM    2  C   UNL     1      -6.844   0.420 -32.391  1.00  0.00     0.038 A 
HETATM    3  C   UNL     1      -7.521   0.087 -33.566  1.00  0.00     0.035 A 
HETATM    4  C   UNL     1      -6.948  -0.849 -34.434  1.00  0.00     0.029 A 
HETATM    5  C   UNL     1      -5.720  -1.440 -34.133  1.00  0.00     0.003 A 
HETATM    6  C   UNL     1      -5.052  -1.103 -32.959  1.00  0.00     0.009 A 
ENDROOT
BRANCH   1   7
HETATM    7  C   UNL     1      -4.890   0.212 -30.803  1.00  0.00     0.163 C 
BRANCH   7   8
HETATM    8  N   UNL     1      -3.776   1.098 -31.081  1.00  0.00    -0.339 N 
HETATM    9  C   UNL     1      -3.737   2.437 -31.314  1.00  0.00     0.321 C 
HETATM   10  N   UNL     1      -4.879   3.132 -31.042  1.00  0.00    -0.307 N 
HETATM   11  O   UNL     1      -2.691   2.909 -31.749  1.00  0.00    -0.247 OA
HETATM   12  H   UNL     1      -5.557   2.657 -30.472  1.00  0.00     0.170 HD
HETATM   13  H   UNL     1      -2.898   0.650 -31.314  1.00  0.00     0.164 HD
BRANCH  10  14
HETATM   14  C   UNL     1      -5.136   4.500 -31.304  1.00  0.00     0.059 A 
HETATM   15  C   UNL     1      -5.738   4.864 -32.524  1.00  0.00    -0.032 A 
HETATM   16  C   UNL     1      -6.130   3.855 -33.569  1.00  0.00     0.050 C 
HETATM   17  C   UNL     1      -5.988   6.221 -32.777  1.00  0.00     0.028 A 
HETATM   18  C   UNL     1      -5.628   7.162 -31.828  1.00  0.00     0.117 A 
HETATM   19  N   UNL     1      -5.039   6.850 -30.658  1.00  0.00    -0.271 NA
HETATM   20  C   UNL     1      -4.809   5.532 -30.424  1.00  0.00     0.146 A 
ENDBRANCH  10  14
ENDBRANCH   7   8
ENDBRANCH   1   7
BRANCH   3  21
HETATM   21  N   UNL     1      -8.758   0.649 -33.950  1.00  0.00    -0.323 N 
HETATM   22  C   UNL     1     -10.002   0.394 -33.400  1.00  0.00     0.256 C 
HETATM   23  O   UNL     1     -10.265  -0.418 -32.520  1.00  0.00    -0.267 OA
HETATM   24  H   UNL     1      -8.724   1.259 -34.756  1.00  0.00     0.169 HD
BRANCH  22  25
HETATM   25  C   UNL     1     -11.126   1.181 -33.979  1.00  0.00     0.035 A 
HETATM   26  C   UNL     1     -12.442   0.714 -33.961  1.00  0.00     0.036 A 
HETATM   27  C   UNL     1     -13.416   1.512 -34.536  1.00  0.00     0.117 A 
HETATM   28  N   UNL     1     -13.164   2.707 -35.112  1.00  0.00    -0.273 NA
HETATM   29  C   UNL     1     -11.879   3.121 -35.135  1.00  0.00     0.117 A 
HETATM   30  C   UNL     1     -10.833   2.400 -34.591  1.00  0.00     0.036 A 
ENDBRANCH  22  25
ENDBRANCH   3  21
TORSDOF 5
ENDMDL
