MODEL 1
REMARK VINA RESULT:      -7.2      0.000      0.000
REMARK  5 active torsions:
REMARK  status: ('A' for Active; 'I' for Inactive)
REMARK    1  A    between atoms: C_2  and  N_3 
REMARK    2  A    between atoms: N_3  and  C_6 
REMARK    3  A    between atoms: C_6  and  C_7 
REMARK    4  A    between atoms: C_8  and  N_9 
REMARK       I    between atoms: N_9  and  C_10 
REMARK    5  A    between atoms: C_10  and  C_11 
ROOT
HETATM    1  N   UNL     1      -8.985   1.145 -34.431  1.00  0.00    -0.326 N 
HETATM    2  C   UNL     1     -10.282   1.109 -33.962  1.00  0.00     0.231 C 
HETATM    3  O   UNL     1     -10.663   0.388 -33.044  1.00  0.00    -0.272 OA
HETATM    4  H   UNL     1      -8.862   1.725 -35.257  1.00  0.00     0.169 HD
ENDROOT
BRANCH   1   5
HETATM    5  C   UNL     1      -7.830   0.398 -34.074  1.00  0.00     0.042 A 
HETATM    6  C   UNL     1      -7.012   0.503 -32.926  1.00  0.00    -0.006 A 
HETATM    7  C   UNL     1      -5.937  -0.416 -32.779  1.00  0.00     0.011 A 
HETATM    8  C   UNL     1      -5.653  -1.386 -33.737  1.00  0.00     0.001 A 
HETATM    9  C   UNL     1      -6.434  -1.465 -34.873  1.00  0.00     0.002 A 
HETATM   10  C   UNL     1      -7.503  -0.584 -35.037  1.00  0.00     0.030 A 
BRANCH   6  11
HETATM   11  C   UNL     1      -7.120   1.520 -31.819  1.00  0.00     0.273 C 
BRANCH  11  12
HETATM   12  N   UNL     1      -8.376   1.380 -31.034  1.00  0.00    -0.072 N 
HETATM   13  H   UNL     1      -8.218   0.831 -30.183  1.00  0.00     0.277 HD
HETATM   14  H   UNL     1      -8.977   0.800 -31.651  1.00  0.00     0.277 HD
BRANCH  12  15
HETATM   15  C   UNL     1      -9.119   2.635 -30.769  1.00  0.00     0.228 C 
HETATM   16  C   UNL     1      -8.458   3.764 -31.535  1.00  0.00     0.034 C 
ENDBRANCH  12  15
ENDBRANCH  11  12
ENDBRANCH   6  11
ENDBRANCH   1   5
BRANCH   2  17
HETATM   17  C   UNL     1     -11.260   1.971 -34.776  1.00  0.00     0.122 C 
HETATM   18  C   UNL     1     -12.670   1.785 -34.260  1.00  0.00    -0.028 A 
HETATM   19  C   UNL     1     -13.074   2.760 -33.339  1.00  0.00     0.007 A 
HETATM   20  C   UNL     1     -13.521   0.727 -34.572  1.00  0.00     0.009 A 
HETATM   21  C   UNL     1     -14.301   2.684 -32.699  1.00  0.00     0.019 A 
HETATM   22  S   UNL     1     -11.869   4.038 -33.136  1.00  0.00    -0.128 SA
HETATM   23  C   UNL     1     -15.148   1.618 -33.002  1.00  0.00     0.001 A 
HETATM   24  C   UNL     1     -14.763   0.650 -33.939  1.00  0.00     0.001 A 
HETATM   25  C   UNL     1     -10.945   3.469 -34.600  1.00  0.00     0.098 C 
ENDBRANCH   2  17
TORSDOF 5
ENDMDL
MODEL 2
REMARK VINA RESULT:      -7.1      1.528      3.380
REMARK  5 active torsions:
REMARK  status: ('A' for Active; 'I' for Inactive)
REMARK    1  A    between atoms: C_2  and  N_3 
REMARK    2  A    between atoms: N_3  and  C_6 
REMARK    3  A    between atoms: C_6  and  C_7 
REMARK    4  A    between atoms: C_8  and  N_9 
REMARK       I    between atoms: N_9  and  C_10 
REMARK    5  A    between atoms: C_10  and  C_11 
ROOT
HETATM    1  N   UNL     1      -8.709   1.118 -33.140  1.00  0.00    -0.326 N 
HETATM    2  C   UNL     1      -9.989   0.626 -33.289  1.00  0.00     0.231 C 
HETATM    3  O   UNL     1     -10.412  -0.378 -32.723  1.00  0.00    -0.272 OA
HETATM    4  H   UNL     1      -8.495   1.902 -33.753  1.00  0.00     0.169 HD
ENDROOT
BRANCH   1   5
HETATM    5  C   UNL     1      -7.589   0.634 -32.411  1.00  0.00     0.042 A 
HETATM    6  C   UNL     1      -6.705  -0.424 -32.720  1.00  0.00    -0.006 A 
HETATM    7  C   UNL     1      -5.614  -0.669 -31.842  1.00  0.00     0.011 A 
HETATM    8  C   UNL     1      -5.412   0.077 -30.684  1.00  0.00     0.001 A 
HETATM    9  C   UNL     1      -6.296   1.090 -30.368  1.00  0.00     0.002 A 
HETATM   10  C   UNL     1      -7.367   1.360 -31.219  1.00  0.00     0.030 A 
BRANCH   6  11
HETATM   11  C   UNL     1      -6.796  -1.377 -33.885  1.00  0.00     0.273 C 
BRANCH  11  12
HETATM   12  N   UNL     1      -5.519  -2.098 -34.136  1.00  0.00    -0.072 N 
HETATM   13  H   UNL     1      -5.077  -2.380 -33.255  1.00  0.00     0.277 HD
HETATM   14  H   UNL     1      -4.911  -1.364 -34.548  1.00  0.00     0.277 HD
BRANCH  12  15
HETATM   15  C   UNL     1      -5.581  -3.205 -35.120  1.00  0.00     0.228 C 
HETATM   16  C   UNL     1      -6.782  -4.073 -34.801  1.00  0.00     0.034 C 
ENDBRANCH  12  15
ENDBRANCH  11  12
ENDBRANCH   6  11
ENDBRANCH   1   5
BRANCH   2  17
HETATM   17  C   UNL     1     -10.826   1.381 -34.334  1.00  0.00     0.122 C 
HETATM   18  C   UNL     1     -12.285   1.379 -33.932  1.00  0.00    -0.028 A 
HETATM   19  C   UNL     1     -12.688   2.530 -33.243  1.00  0.00     0.007 A 
HETATM   20  C   UNL     1     -13.185   0.335 -34.131  1.00  0.00     0.009 A 
HETATM   21  C   UNL     1     -13.966   2.647 -32.721  1.00  0.00     0.019 A 
HETATM   22  S   UNL     1     -11.410   3.748 -33.155  1.00  0.00    -0.128 SA
HETATM   23  C   UNL     1     -14.865   1.597 -32.910  1.00  0.00     0.001 A 
HETATM   24  C   UNL     1     -14.478   0.451 -33.617  1.00  0.00     0.001 A 
HETATM   25  C   UNL     1     -10.413   2.864 -34.399  1.00  0.00     0.098 C 
ENDBRANCH   2  17
TORSDOF 5
ENDMDL
MODEL 3
REMARK VINA RESULT:      -6.9      6.058      8.138
REMARK  5 active torsions:
REMARK  status: ('A' for Active; 'I' for Inactive)
REMARK    1  A    between atoms: C_2  and  N_3 
REMARK    2  A    between atoms: N_3  and  C_6 
REMARK    3  A    between atoms: C_6  and  C_7 
REMARK    4  A    between atoms: C_8  and  N_9 
REMARK       I    between atoms: N_9  and  C_10 
REMARK    5  A    between atoms: C_10  and  C_11 
ROOT
HETATM    1  N   UNL     1      -2.916   3.190 -32.182  1.00  0.00    -0.326 N 
HETATM    2  C   UNL     1      -4.241   2.806 -32.200  1.00  0.00     0.231 C 
HETATM    3  O   UNL     1      -5.139   3.450 -32.736  1.00  0.00    -0.272 OA
HETATM    4  H   UNL     1      -2.322   2.592 -31.614  1.00  0.00     0.169 HD
ENDROOT
BRANCH   1   5
HETATM    5  C   UNL     1      -2.262   4.352 -32.674  1.00  0.00     0.042 A 
HETATM    6  C   UNL     1      -1.602   5.381 -31.965  1.00  0.00    -0.006 A 
HETATM    7  C   UNL     1      -0.970   6.413 -32.709  1.00  0.00     0.011 A 
HETATM    8  C   UNL     1      -1.007   6.456 -34.100  1.00  0.00     0.001 A 
HETATM    9  C   UNL     1      -1.681   5.467 -34.790  1.00  0.00     0.002 A 
HETATM   10  C   UNL     1      -2.299   4.434 -34.085  1.00  0.00     0.030 A 
BRANCH   6  11
HETATM   11  C   UNL     1      -1.510   5.542 -30.468  1.00  0.00     0.273 C 
BRANCH  11  12
HETATM   12  N   UNL     1      -0.292   4.906 -29.898  1.00  0.00    -0.072 N 
HETATM   13  H   UNL     1       0.304   4.524 -30.639  1.00  0.00     0.277 HD
HETATM   14  H   UNL     1      -0.672   4.092 -29.378  1.00  0.00     0.277 HD
BRANCH  12  15
HETATM   15  C   UNL     1       0.469   5.722 -28.922  1.00  0.00     0.228 C 
HETATM   16  C   UNL     1       0.367   7.181 -29.321  1.00  0.00     0.034 C 
ENDBRANCH  12  15
ENDBRANCH  11  12
ENDBRANCH   6  11
ENDBRANCH   1   5
BRANCH   2  17
HETATM   17  C   UNL     1      -4.532   1.543 -31.374  1.00  0.00     0.122 C 
HETATM   18  C   UNL     1      -5.559   0.685 -32.081  1.00  0.00    -0.028 A 
HETATM   19  C   UNL     1      -5.008  -0.338 -32.864  1.00  0.00     0.007 A 
HETATM   20  C   UNL     1      -6.938   0.879 -32.059  1.00  0.00     0.009 A 
HETATM   21  C   UNL     1      -5.806  -1.153 -33.650  1.00  0.00     0.019 A 
HETATM   22  S   UNL     1      -3.252  -0.442 -32.699  1.00  0.00    -0.128 SA
HETATM   23  C   UNL     1      -7.187  -0.952 -33.637  1.00  0.00     0.001 A 
HETATM   24  C   UNL     1      -7.749   0.054 -32.840  1.00  0.00     0.001 A 
HETATM   25  C   UNL     1      -3.270   0.667 -31.253  1.00  0.00     0.098 C 
ENDBRANCH   2  17
TORSDOF 5
ENDMDL
MODEL 4
REMARK VINA RESULT:      -6.9      3.507      6.904
REMARK  5 active torsions:
REMARK  status: ('A' for Active; 'I' for Inactive)
REMARK    1  A    between atoms: C_2  and  N_3 
REMARK    2  A    between atoms: N_3  and  C_6 
REMARK    3  A    between atoms: C_6  and  C_7 
REMARK    4  A    between atoms: C_8  and  N_9 
REMARK       I    between atoms: N_9  and  C_10 
REMARK    5  A    between atoms: C_10  and  C_11 
ROOT
HETATM    1  N   UNL     1      -5.090   0.340 -32.441  1.00  0.00    -0.326 N 
HETATM    2  C   UNL     1      -5.228   1.699 -32.636  1.00  0.00     0.231 C 
HETATM    3  O   UNL     1      -5.794   2.203 -33.602  1.00  0.00    -0.272 OA
HETATM    4  H   UNL     1      -4.514   0.095 -31.640  1.00  0.00     0.169 HD
ENDROOT
BRANCH   1   5
HETATM    5  C   UNL     1      -5.467  -0.773 -33.241  1.00  0.00     0.042 A 
HETATM    6  C   UNL     1      -6.740  -1.129 -33.742  1.00  0.00    -0.006 A 
HETATM    7  C   UNL     1      -6.837  -2.274 -34.579  1.00  0.00     0.011 A 
HETATM    8  C   UNL     1      -5.733  -3.062 -34.892  1.00  0.00     0.001 A 
HETATM    9  C   UNL     1      -4.496  -2.729 -34.375  1.00  0.00     0.002 A 
HETATM   10  C   UNL     1      -4.369  -1.604 -33.561  1.00  0.00     0.030 A 
BRANCH   6  11
HETATM   11  C   UNL     1      -8.053  -0.444 -33.464  1.00  0.00     0.273 C 
BRANCH  11  12
HETATM   12  N   UNL     1      -8.369   0.615 -34.460  1.00  0.00    -0.072 N 
HETATM   13  H   UNL     1      -8.459   0.220 -35.401  1.00  0.00     0.277 HD
HETATM   14  H   UNL     1      -7.507   1.196 -34.467  1.00  0.00     0.277 HD
BRANCH  12  15
HETATM   15  C   UNL     1      -9.492   1.518 -34.113  1.00  0.00     0.228 C 
HETATM   16  C   UNL     1     -10.542   0.724 -33.362  1.00  0.00     0.034 C 
ENDBRANCH  12  15
ENDBRANCH  11  12
ENDBRANCH   6  11
ENDBRANCH   1   5
BRANCH   2  17
HETATM   17  C   UNL     1      -4.498   2.553 -31.587  1.00  0.00     0.122 C 
HETATM   18  C   UNL     1      -3.881   3.769 -32.244  1.00  0.00    -0.028 A 
HETATM   19  C   UNL     1      -4.673   4.922 -32.169  1.00  0.00     0.007 A 
HETATM   20  C   UNL     1      -2.675   3.796 -32.941  1.00  0.00     0.009 A 
HETATM   21  C   UNL     1      -4.298   6.096 -32.801  1.00  0.00     0.019 A 
HETATM   22  S   UNL     1      -6.126   4.681 -31.193  1.00  0.00    -0.128 SA
HETATM   23  C   UNL     1      -3.096   6.121 -33.509  1.00  0.00     0.001 A 
HETATM   24  C   UNL     1      -2.286   4.979 -33.571  1.00  0.00     0.001 A 
HETATM   25  C   UNL     1      -5.489   3.101 -30.543  1.00  0.00     0.098 C 
ENDBRANCH   2  17
TORSDOF 5
ENDMDL
MODEL 5
REMARK VINA RESULT:      -6.7      4.441      7.163
REMARK  5 active torsions:
REMARK  status: ('A' for Active; 'I' for Inactive)
REMARK    1  A    between atoms: C_2  and  N_3 
REMARK    2  A    between atoms: N_3  and  C_6 
REMARK    3  A    between atoms: C_6  and  C_7 
REMARK    4  A    between atoms: C_8  and  N_9 
REMARK       I    between atoms: N_9  and  C_10 
REMARK    5  A    between atoms: C_10  and  C_11 
ROOT
HETATM    1  N   UNL     1      -4.425   2.360 -32.333  1.00  0.00    -0.326 N 
HETATM    2  C   UNL     1      -5.372   1.526 -32.892  1.00  0.00     0.231 C 
HETATM    3  O   UNL     1      -6.033   1.803 -33.888  1.00  0.00    -0.272 OA
HETATM    4  H   UNL     1      -4.039   2.016 -31.458  1.00  0.00     0.169 HD
ENDROOT
BRANCH   1   5
HETATM    5  C   UNL     1      -4.011   3.678 -32.669  1.00  0.00     0.042 A 
HETATM    6  C   UNL     1      -4.773   4.864 -32.759  1.00  0.00    -0.006 A 
HETATM    7  C   UNL     1      -4.097   6.078 -33.058  1.00  0.00     0.011 A 
HETATM    8  C   UNL     1      -2.725   6.126 -33.291  1.00  0.00     0.001 A 
HETATM    9  C   UNL     1      -1.987   4.960 -33.234  1.00  0.00     0.002 A 
HETATM   10  C   UNL     1      -2.623   3.756 -32.930  1.00  0.00     0.030 A 
BRANCH   6  11
HETATM   11  C   UNL     1      -6.267   5.002 -32.604  1.00  0.00     0.273 C 
BRANCH  11  12
HETATM   12  N   UNL     1      -7.003   4.697 -33.861  1.00  0.00    -0.072 N 
HETATM   13  H   UNL     1      -6.719   3.789 -34.242  1.00  0.00     0.277 HD
HETATM   14  H   UNL     1      -6.649   5.417 -34.521  1.00  0.00     0.277 HD
BRANCH  12  15
HETATM   15  C   UNL     1      -8.476   4.854 -33.804  1.00  0.00     0.228 C 
HETATM   16  C   UNL     1      -8.963   4.389 -32.446  1.00  0.00     0.034 C 
ENDBRANCH  12  15
ENDBRANCH  11  12
ENDBRANCH   6  11
ENDBRANCH   1   5
BRANCH   2  17
HETATM   17  C   UNL     1      -5.625   0.245 -32.081  1.00  0.00     0.122 C 
HETATM   18  C   UNL     1      -5.726  -0.946 -33.009  1.00  0.00    -0.028 A 
HETATM   19  C   UNL     1      -4.528  -1.657 -33.158  1.00  0.00     0.007 A 
HETATM   20  C   UNL     1      -6.852  -1.320 -33.738  1.00  0.00     0.009 A 
HETATM   21  C   UNL     1      -4.424  -2.717 -34.044  1.00  0.00     0.019 A 
HETATM   22  S   UNL     1      -3.247  -1.051 -32.101  1.00  0.00    -0.128 SA
HETATM   23  C   UNL     1      -5.549  -3.084 -34.783  1.00  0.00     0.001 A 
HETATM   24  C   UNL     1      -6.758  -2.394 -34.624  1.00  0.00     0.001 A 
HETATM   25  C   UNL     1      -4.438  -0.054 -31.146  1.00  0.00     0.098 C 
ENDBRANCH   2  17
TORSDOF 5
ENDMDL
MODEL 6
REMARK VINA RESULT:      -6.6      2.313      6.793
REMARK  5 active torsions:
REMARK  status: ('A' for Active; 'I' for Inactive)
REMARK    1  A    between atoms: C_2  and  N_3 
REMARK    2  A    between atoms: N_3  and  C_6 
REMARK    3  A    between atoms: C_6  and  C_7 
REMARK    4  A    between atoms: C_8  and  N_9 
REMARK       I    between atoms: N_9  and  C_10 
REMARK    5  A    between atoms: C_10  and  C_11 
ROOT
HETATM    1  N   UNL     1      -9.285   1.957 -33.555  1.00  0.00    -0.326 N 
HETATM    2  C   UNL     1      -8.451   0.968 -34.034  1.00  0.00     0.231 C 
HETATM    3  O   UNL     1      -7.978   0.955 -35.167  1.00  0.00    -0.272 OA
HETATM    4  H   UNL     1      -9.662   1.766 -32.630  1.00  0.00     0.169 HD
ENDROOT
BRANCH   1   5
HETATM    5  C   UNL     1      -9.840   3.109 -34.176  1.00  0.00     0.042 A 
HETATM    6  C   UNL     1     -11.061   3.253 -34.874  1.00  0.00    -0.006 A 
HETATM    7  C   UNL     1     -11.414   4.543 -35.353  1.00  0.00     0.011 A 
HETATM    8  C   UNL     1     -10.588   5.651 -35.182  1.00  0.00     0.001 A 
HETATM    9  C   UNL     1      -9.381   5.501 -34.527  1.00  0.00     0.002 A 
HETATM   10  C   UNL     1      -9.015   4.248 -34.036  1.00  0.00     0.030 A 
BRANCH   6  11
HETATM   11  C   UNL     1     -12.051   2.167 -35.213  1.00  0.00     0.273 C 
BRANCH  11  12
HETATM   12  N   UNL     1     -13.442   2.517 -34.819  1.00  0.00    -0.072 N 
HETATM   13  H   UNL     1     -14.076   2.463 -35.622  1.00  0.00     0.277 HD
HETATM   14  H   UNL     1     -13.370   3.522 -34.569  1.00  0.00     0.277 HD
BRANCH  12  15
HETATM   15  C   UNL     1     -13.974   1.815 -33.627  1.00  0.00     0.228 C 
HETATM   16  C   UNL     1     -14.515   0.466 -34.056  1.00  0.00     0.034 C 
ENDBRANCH  12  15
ENDBRANCH  11  12
ENDBRANCH   6  11
ENDBRANCH   1   5
BRANCH   2  17
HETATM   17  C   UNL     1      -8.253  -0.202 -33.058  1.00  0.00     0.122 C 
HETATM   18  C   UNL     1      -7.027  -1.001 -33.446  1.00  0.00    -0.028 A 
HETATM   19  C   UNL     1      -5.866  -0.639 -32.751  1.00  0.00     0.007 A 
HETATM   20  C   UNL     1      -6.968  -1.971 -34.444  1.00  0.00     0.009 A 
HETATM   21  C   UNL     1      -4.639  -1.207 -33.053  1.00  0.00     0.019 A 
HETATM   22  S   UNL     1      -6.178   0.563 -31.494  1.00  0.00    -0.128 SA
HETATM   23  C   UNL     1      -4.577  -2.170 -34.060  1.00  0.00     0.001 A 
HETATM   24  C   UNL     1      -5.737  -2.555 -34.746  1.00  0.00     0.001 A 
HETATM   25  C   UNL     1      -7.979   0.315 -31.632  1.00  0.00     0.098 C 
ENDBRANCH   2  17
TORSDOF 5
ENDMDL
MODEL 7
REMARK VINA RESULT:      -6.6      3.185      6.661
REMARK  5 active torsions:
REMARK  status: ('A' for Active; 'I' for Inactive)
REMARK    1  A    between atoms: C_2  and  N_3 
REMARK    2  A    between atoms: N_3  and  C_6 
REMARK    3  A    between atoms: C_6  and  C_7 
REMARK    4  A    between atoms: C_8  and  N_9 
REMARK       I    between atoms: N_9  and  C_10 
REMARK    5  A    between atoms: C_10  and  C_11 
ROOT
HETATM    1  N   UNL     1      -8.604   2.010 -33.210  1.00  0.00    -0.326 N 
HETATM    2  C   UNL     1      -7.638   1.119 -33.628  1.00  0.00     0.231 C 
HETATM    3  O   UNL     1      -6.978   1.249 -34.655  1.00  0.00    -0.272 OA
HETATM    4  H   UNL     1      -9.120   1.704 -32.390  1.00  0.00     0.169 HD
ENDROOT
BRANCH   1   5
HETATM    5  C   UNL     1      -9.119   3.194 -33.806  1.00  0.00     0.042 A 
HETATM    6  C   UNL     1      -8.638   4.521 -33.728  1.00  0.00    -0.006 A 
HETATM    7  C   UNL     1      -9.310   5.525 -34.476  1.00  0.00     0.011 A 
HETATM    8  C   UNL     1     -10.433   5.248 -35.252  1.00  0.00     0.001 A 
HETATM    9  C   UNL     1     -10.919   3.956 -35.301  1.00  0.00     0.002 A 
HETATM   10  C   UNL     1     -10.271   2.948 -34.586  1.00  0.00     0.030 A 
BRANCH   6  11
HETATM   11  C   UNL     1      -7.486   5.026 -32.898  1.00  0.00     0.273 C 
BRANCH  11  12
HETATM   12  N   UNL     1      -6.410   5.638 -33.723  1.00  0.00    -0.072 N 
HETATM   13  H   UNL     1      -6.060   6.499 -33.291  1.00  0.00     0.277 HD
HETATM   14  H   UNL     1      -6.911   5.925 -34.587  1.00  0.00     0.277 HD
BRANCH  12  15
HETATM   15  C   UNL     1      -5.318   4.728 -34.143  1.00  0.00     0.228 C 
HETATM   16  C   UNL     1      -5.050   3.740 -33.026  1.00  0.00     0.034 C 
ENDBRANCH  12  15
ENDBRANCH  11  12
ENDBRANCH   6  11
ENDBRANCH   1   5
BRANCH   2  17
HETATM   17  C   UNL     1      -7.533  -0.138 -32.750  1.00  0.00     0.122 C 
HETATM   18  C   UNL     1      -6.570  -1.127 -33.370  1.00  0.00    -0.028 A 
HETATM   19  C   UNL     1      -5.267  -1.050 -32.862  1.00  0.00     0.007 A 
HETATM   20  C   UNL     1      -6.863  -2.012 -34.406  1.00  0.00     0.009 A 
HETATM   21  C   UNL     1      -4.241  -1.820 -33.387  1.00  0.00     0.019 A 
HETATM   22  S   UNL     1      -5.132   0.091 -31.519  1.00  0.00    -0.128 SA
HETATM   23  C   UNL     1      -4.531  -2.698 -34.432  1.00  0.00     0.001 A 
HETATM   24  C   UNL     1      -5.837  -2.798 -34.932  1.00  0.00     0.001 A 
HETATM   25  C   UNL     1      -6.945   0.206 -31.369  1.00  0.00     0.098 C 
ENDBRANCH   2  17
TORSDOF 5
ENDMDL
MODEL 8
REMARK VINA RESULT:      -6.5      5.252      7.577
REMARK  5 active torsions:
REMARK  status: ('A' for Active; 'I' for Inactive)
REMARK    1  A    between atoms: C_2  and  N_3 
REMARK    2  A    between atoms: N_3  and  C_6 
REMARK    3  A    between atoms: C_6  and  C_7 
REMARK    4  A    between atoms: C_8  and  N_9 
REMARK       I    between atoms: N_9  and  C_10 
REMARK    5  A    between atoms: C_10  and  C_11 
ROOT
HETATM    1  N   UNL     1      -5.380   2.519 -31.801  1.00  0.00    -0.326 N 
HETATM    2  C   UNL     1      -5.710   1.473 -32.638  1.00  0.00     0.231 C 
HETATM    3  O   UNL     1      -6.031   1.608 -33.816  1.00  0.00    -0.272 OA
HETATM    4  H   UNL     1      -5.231   2.241 -30.835  1.00  0.00     0.169 HD
ENDROOT
BRANCH   1   5
HETATM    5  C   UNL     1      -5.369   3.926 -32.005  1.00  0.00     0.042 A 
HETATM    6  C   UNL     1      -4.289   4.779 -32.325  1.00  0.00    -0.006 A 
HETATM    7  C   UNL     1      -4.561   6.158 -32.537  1.00  0.00     0.011 A 
HETATM    8  C   UNL     1      -5.840   6.691 -32.411  1.00  0.00     0.001 A 
HETATM    9  C   UNL     1      -6.889   5.860 -32.066  1.00  0.00     0.002 A 
HETATM   10  C   UNL     1      -6.653   4.500 -31.865  1.00  0.00     0.030 A 
BRANCH   6  11
HETATM   11  C   UNL     1      -2.834   4.403 -32.441  1.00  0.00     0.273 C 
BRANCH  11  12
HETATM   12  N   UNL     1      -2.136   4.401 -31.127  1.00  0.00    -0.072 N 
HETATM   13  H   UNL     1      -1.603   3.535 -30.995  1.00  0.00     0.277 HD
HETATM   14  H   UNL     1      -2.919   4.371 -30.445  1.00  0.00     0.277 HD
BRANCH  12  15
HETATM   15  C   UNL     1      -1.339   5.611 -30.814  1.00  0.00     0.228 C 
HETATM   16  C   UNL     1      -0.600   6.045 -32.064  1.00  0.00     0.034 C 
ENDBRANCH  12  15
ENDBRANCH  11  12
ENDBRANCH   6  11
ENDBRANCH   1   5
BRANCH   2  17
HETATM   17  C   UNL     1      -5.761   0.108 -31.935  1.00  0.00     0.122 C 
HETATM   18  C   UNL     1      -5.797  -1.005 -32.960  1.00  0.00    -0.028 A 
HETATM   19  C   UNL     1      -4.543  -1.556 -33.250  1.00  0.00     0.007 A 
HETATM   20  C   UNL     1      -6.927  -1.444 -33.648  1.00  0.00     0.009 A 
HETATM   21  C   UNL     1      -4.388  -2.519 -34.234  1.00  0.00     0.019 A 
HETATM   22  S   UNL     1      -3.263  -0.898 -32.224  1.00  0.00    -0.128 SA
HETATM   23  C   UNL     1      -5.517  -2.951 -34.931  1.00  0.00     0.001 A 
HETATM   24  C   UNL     1      -6.780  -2.421 -34.633  1.00  0.00     0.001 A 
HETATM   25  C   UNL     1      -4.482  -0.130 -31.108  1.00  0.00     0.098 C 
ENDBRANCH   2  17
TORSDOF 5
ENDMDL
MODEL 9
REMARK VINA RESULT:      -6.4      3.003      5.104
REMARK  5 active torsions:
REMARK  status: ('A' for Active; 'I' for Inactive)
REMARK    1  A    between atoms: C_2  and  N_3 
REMARK    2  A    between atoms: N_3  and  C_6 
REMARK    3  A    between atoms: C_6  and  C_7 
REMARK    4  A    between atoms: C_8  and  N_9 
REMARK       I    between atoms: N_9  and  C_10 
REMARK    5  A    between atoms: C_10  and  C_11 
ROOT
HETATM    1  N   UNL     1      -5.190   0.617 -32.913  1.00  0.00    -0.326 N 
HETATM    2  C   UNL     1      -5.944   1.213 -31.924  1.00  0.00     0.231 C 
HETATM    3  O   UNL     1      -6.895   0.675 -31.363  1.00  0.00    -0.272 OA
HETATM    4  H   UNL     1      -4.502   1.235 -33.336  1.00  0.00     0.169 HD
ENDROOT
BRANCH   1   5
HETATM    5  C   UNL     1      -5.304  -0.645 -33.558  1.00  0.00     0.042 A 
HETATM    6  C   UNL     1      -6.237  -1.077 -34.528  1.00  0.00    -0.006 A 
HETATM    7  C   UNL     1      -6.094  -2.386 -35.063  1.00  0.00     0.011 A 
HETATM    8  C   UNL     1      -5.091  -3.254 -34.644  1.00  0.00     0.001 A 
HETATM    9  C   UNL     1      -4.199  -2.840 -33.673  1.00  0.00     0.002 A 
HETATM   10  C   UNL     1      -4.309  -1.557 -33.139  1.00  0.00     0.030 A 
BRANCH   6  11
HETATM   11  C   UNL     1      -7.423  -0.311 -35.057  1.00  0.00     0.273 C 
BRANCH  11  12
HETATM   12  N   UNL     1      -8.441  -0.034 -34.009  1.00  0.00    -0.072 N 
HETATM   13  H   UNL     1      -8.037  -0.126 -33.071  1.00  0.00     0.277 HD
HETATM   14  H   UNL     1      -9.112  -0.820 -34.118  1.00  0.00     0.277 HD
BRANCH  12  15
HETATM   15  C   UNL     1      -9.217   1.219 -34.172  1.00  0.00     0.228 C 
HETATM   16  C   UNL     1      -9.998   1.478 -32.900  1.00  0.00     0.034 C 
ENDBRANCH  12  15
ENDBRANCH  11  12
ENDBRANCH   6  11
ENDBRANCH   1   5
BRANCH   2  17
HETATM   17  C   UNL     1      -5.570   2.680 -31.658  1.00  0.00     0.122 C 
HETATM   18  C   UNL     1      -6.629   3.599 -32.229  1.00  0.00    -0.028 A 
HETATM   19  C   UNL     1      -7.592   4.007 -31.298  1.00  0.00     0.007 A 
HETATM   20  C   UNL     1      -6.740   3.987 -33.562  1.00  0.00     0.009 A 
HETATM   21  C   UNL     1      -8.683   4.773 -31.677  1.00  0.00     0.019 A 
HETATM   22  S   UNL     1      -7.227   3.452 -29.660  1.00  0.00    -0.128 SA
HETATM   23  C   UNL     1      -8.801   5.152 -33.015  1.00  0.00     0.001 A 
HETATM   24  C   UNL     1      -7.830   4.767 -33.949  1.00  0.00     0.001 A 
HETATM   25  C   UNL     1      -5.537   2.971 -30.146  1.00  0.00     0.098 C 
ENDBRANCH   2  17
TORSDOF 5
ENDMDL
MODEL 10
REMARK VINA RESULT:      -6.4      2.347      4.353
REMARK  5 active torsions:
REMARK  status: ('A' for Active; 'I' for Inactive)
REMARK    1  A    between atoms: C_2  and  N_3 
REMARK    2  A    between atoms: N_3  and  C_6 
REMARK    3  A    between atoms: C_6  and  C_7 
REMARK    4  A    between atoms: C_8  and  N_9 
REMARK       I    between atoms: N_9  and  C_10 
REMARK    5  A    between atoms: C_10  and  C_11 
ROOT
HETATM    1  N   UNL     1      -5.994   0.860 -33.451  1.00  0.00    -0.326 N 
HETATM    2  C   UNL     1      -7.373   0.895 -33.472  1.00  0.00     0.231 C 
HETATM    3  O   UNL     1      -8.093   0.001 -33.036  1.00  0.00    -0.272 OA
HETATM    4  H   UNL     1      -5.555   1.637 -33.937  1.00  0.00     0.169 HD
ENDROOT
BRANCH   1   5
HETATM    5  C   UNL     1      -5.081  -0.140 -33.018  1.00  0.00     0.042 A 
HETATM    6  C   UNL     1      -4.835  -1.424 -33.553  1.00  0.00    -0.006 A 
HETATM    7  C   UNL     1      -3.812  -2.215 -32.962  1.00  0.00     0.011 A 
HETATM    8  C   UNL     1      -3.075  -1.777 -31.865  1.00  0.00     0.001 A 
HETATM    9  C   UNL     1      -3.340  -0.534 -31.324  1.00  0.00     0.002 A 
HETATM   10  C   UNL     1      -4.329   0.268 -31.892  1.00  0.00     0.030 A 
BRANCH   6  11
HETATM   11  C   UNL     1      -5.566  -2.095 -34.688  1.00  0.00     0.273 C 
BRANCH  11  12
HETATM   12  N   UNL     1      -6.899  -2.615 -34.282  1.00  0.00    -0.072 N 
HETATM   13  H   UNL     1      -7.653  -2.091 -34.737  1.00  0.00     0.277 HD
HETATM   14  H   UNL     1      -6.947  -2.379 -33.271  1.00  0.00     0.277 HD
BRANCH  12  15
HETATM   15  C   UNL     1      -7.084  -4.082 -34.389  1.00  0.00     0.228 C 
HETATM   16  C   UNL     1      -6.153  -4.613 -35.461  1.00  0.00     0.034 C 
ENDBRANCH  12  15
ENDBRANCH  11  12
ENDBRANCH   6  11
ENDBRANCH   1   5
BRANCH   2  17
HETATM   17  C   UNL     1      -7.951   2.114 -34.210  1.00  0.00     0.122 C 
HETATM   18  C   UNL     1      -9.416   2.280 -33.871  1.00  0.00    -0.028 A 
HETATM   19  C   UNL     1      -9.663   3.188 -32.834  1.00  0.00     0.007 A 
HETATM   20  C   UNL     1     -10.471   1.575 -34.445  1.00  0.00     0.009 A 
HETATM   21  C   UNL     1     -10.942   3.386 -32.338  1.00  0.00     0.019 A 
HETATM   22  S   UNL     1      -8.196   4.012 -32.294  1.00  0.00    -0.128 SA
HETATM   23  C   UNL     1     -11.998   2.671 -32.904  1.00  0.00     0.001 A 
HETATM   24  C   UNL     1     -11.763   1.777 -33.957  1.00  0.00     0.001 A 
HETATM   25  C   UNL     1      -7.265   3.412 -33.741  1.00  0.00     0.098 C 
ENDBRANCH   2  17
TORSDOF 5
ENDMDL
