MODEL 1
REMARK VINA RESULT:      -8.8      0.000      0.000
REMARK  9 active torsions:
REMARK  status: ('A' for Active; 'I' for Inactive)
REMARK    1  A    between atoms: C_3  and  O_4 
REMARK    2  A    between atoms: O_4  and  C_5 
REMARK    3  A    between atoms: C_5  and  C_6 
REMARK    4  A    between atoms: N_7  and  C_8 
REMARK    5  A    between atoms: C_14  and  S_15 
REMARK    6  A    between atoms: S_15  and  C_16 
REMARK    7  A    between atoms: C_16  and  C_17 
REMARK       I    between atoms: C_17  and  N_18 
REMARK    8  A    between atoms: N_18  and  C_19 
REMARK    9  A    between atoms: C_19  and  C_20 
ROOT
HETATM    1  C   UNL     1      -3.980  -0.010 -31.805  1.00  0.00     0.160 A 
HETATM    2  N   UNL     1      -4.876   0.978 -32.216  1.00  0.00    -0.274 N 
HETATM    3  C   UNL     1      -4.209   2.156 -31.913  1.00  0.00     0.196 A 
HETATM    4  N   UNL     1      -3.027   1.904 -31.404  1.00  0.00    -0.122 NA
HETATM    5  N   UNL     1      -2.887   0.554 -31.323  1.00  0.00    -0.131 NA
ENDROOT
BRANCH   3   6
HETATM    6  S   UNL     1      -4.901   3.748 -31.852  1.00  0.00    -0.081 SA
BRANCH   6   7
HETATM    7  C   UNL     1      -4.695   4.250 -33.585  1.00  0.00     0.185 C 
BRANCH   7   8
HETATM    8  C   UNL     1      -3.427   5.042 -33.875  1.00  0.00     0.227 C 
HETATM    9  N   UNL     1      -2.333   4.764 -33.093  1.00  0.00    -0.360 N 
HETATM   10  H   UNL     1      -2.407   4.049 -32.372  1.00  0.00     0.162 HD
HETATM   11  O   UNL     1      -3.432   5.955 -34.701  1.00  0.00    -0.273 OA
BRANCH   9  12
HETATM   12  C   UNL     1      -1.131   5.569 -33.091  1.00  0.00     0.126 C 
BRANCH  12  13
HETATM   13  C   UNL     1      -1.101   6.560 -31.915  1.00  0.00    -0.005 C 
HETATM   14  C   UNL     1       0.298   6.681 -31.305  1.00  0.00     0.011 C 
HETATM   15  C   UNL     1      -1.586   7.934 -32.379  1.00  0.00     0.011 C 
ENDBRANCH  12  13
ENDBRANCH   9  12
ENDBRANCH   7   8
ENDBRANCH   6   7
ENDBRANCH   3   6
BRANCH   2  16
HETATM   16  C   UNL     1      -6.172   0.828 -32.783  1.00  0.00     0.043 A 
HETATM   17  C   UNL     1      -7.250   0.391 -32.003  1.00  0.00     0.030 A 
HETATM   18  C   UNL     1      -8.519   0.254 -32.574  1.00  0.00     0.002 A 
HETATM   19  C   UNL     1      -8.721   0.552 -33.920  1.00  0.00     0.000 A 
HETATM   20  C   UNL     1      -7.653   0.988 -34.700  1.00  0.00     0.002 A 
HETATM   21  C   UNL     1      -6.382   1.126 -34.136  1.00  0.00     0.030 A 
ENDBRANCH   2  16
BRANCH   1  22
HETATM   22  C   UNL     1      -4.140  -1.484 -31.951  1.00  0.00     0.256 C 
BRANCH  22  23
HETATM   23  O   UNL     1      -3.873  -1.817 -33.308  1.00  0.00    -0.343 OA
BRANCH  23  24
HETATM   24  C   UNL     1      -4.770  -2.655 -33.920  1.00  0.00     0.075 A 
HETATM   25  C   UNL     1      -4.398  -4.009 -33.998  1.00  0.00    -0.029 A 
HETATM   26  C   UNL     1      -3.125  -4.514 -33.379  1.00  0.00     0.051 C 
HETATM   27  C   UNL     1      -5.274  -4.928 -34.597  1.00  0.00     0.009 A 
HETATM   28  C   UNL     1      -6.485  -4.505 -35.143  1.00  0.00     0.001 A 
HETATM   29  C   UNL     1      -6.837  -3.161 -35.088  1.00  0.00     0.003 A 
HETATM   30  C   UNL     1      -5.983  -2.238 -34.480  1.00  0.00     0.037 A 
ENDBRANCH  23  24
ENDBRANCH  22  23
ENDBRANCH   1  22
TORSDOF 9
ENDMDL
MODEL 2
REMARK VINA RESULT:      -8.2      1.494      2.350
REMARK  9 active torsions:
REMARK  status: ('A' for Active; 'I' for Inactive)
REMARK    1  A    between atoms: C_3  and  O_4 
REMARK    2  A    between atoms: O_4  and  C_5 
REMARK    3  A    between atoms: C_5  and  C_6 
REMARK    4  A    between atoms: N_7  and  C_8 
REMARK    5  A    between atoms: C_14  and  S_15 
REMARK    6  A    between atoms: S_15  and  C_16 
REMARK    7  A    between atoms: C_16  and  C_17 
REMARK       I    between atoms: C_17  and  N_18 
REMARK    8  A    between atoms: N_18  and  C_19 
REMARK    9  A    between atoms: C_19  and  C_20 
ROOT
HETATM    1  C   UNL     1      -4.147   0.316 -31.712  1.00  0.00     0.160 A 
HETATM    2  N   UNL     1      -5.058   1.366 -31.828  1.00  0.00    -0.274 N 
HETATM    3  C   UNL     1      -4.303   2.479 -31.491  1.00  0.00     0.196 A 
HETATM    4  N   UNL     1      -3.063   2.140 -31.230  1.00  0.00    -0.122 NA
HETATM    5  N   UNL     1      -2.966   0.790 -31.354  1.00  0.00    -0.131 NA
ENDROOT
BRANCH   3   6
HETATM    6  S   UNL     1      -4.910   4.060 -31.102  1.00  0.00    -0.081 SA
BRANCH   6   7
HETATM    7  C   UNL     1      -3.692   5.090 -31.970  1.00  0.00     0.185 C 
BRANCH   7   8
HETATM    8  C   UNL     1      -3.138   6.250 -31.153  1.00  0.00     0.227 C 
HETATM    9  N   UNL     1      -2.025   5.992 -30.391  1.00  0.00    -0.360 N 
HETATM   10  H   UNL     1      -1.617   5.059 -30.407  1.00  0.00     0.162 HD
HETATM   11  O   UNL     1      -3.731   7.328 -31.109  1.00  0.00    -0.273 OA
BRANCH   9  12
HETATM   12  C   UNL     1      -1.508   6.911 -29.401  1.00  0.00     0.126 C 
BRANCH  12  13
HETATM   13  C   UNL     1       0.027   6.993 -29.433  1.00  0.00    -0.005 C 
HETATM   14  C   UNL     1       0.675   5.986 -28.479  1.00  0.00     0.011 C 
HETATM   15  C   UNL     1       0.532   6.759 -30.858  1.00  0.00     0.011 C 
ENDBRANCH  12  13
ENDBRANCH   9  12
ENDBRANCH   7   8
ENDBRANCH   6   7
ENDBRANCH   3   6
BRANCH   2  16
HETATM   16  C   UNL     1      -6.436   1.317 -32.179  1.00  0.00     0.043 A 
HETATM   17  C   UNL     1      -6.903   1.940 -33.343  1.00  0.00     0.030 A 
HETATM   18  C   UNL     1      -8.259   1.878 -33.677  1.00  0.00     0.002 A 
HETATM   19  C   UNL     1      -9.154   1.195 -32.856  1.00  0.00     0.000 A 
HETATM   20  C   UNL     1      -8.696   0.572 -31.698  1.00  0.00     0.002 A 
HETATM   21  C   UNL     1      -7.343   0.632 -31.358  1.00  0.00     0.030 A 
ENDBRANCH   2  16
BRANCH   1  22
HETATM   22  C   UNL     1      -4.389  -1.121 -32.021  1.00  0.00     0.256 C 
BRANCH  22  23
HETATM   23  O   UNL     1      -4.490  -1.249 -33.435  1.00  0.00    -0.343 OA
BRANCH  23  24
HETATM   24  C   UNL     1      -4.839  -2.486 -33.913  1.00  0.00     0.075 A 
HETATM   25  C   UNL     1      -6.095  -2.573 -34.541  1.00  0.00    -0.029 A 
HETATM   26  C   UNL     1      -6.964  -1.363 -34.738  1.00  0.00     0.051 C 
HETATM   27  C   UNL     1      -6.513  -3.805 -35.070  1.00  0.00     0.009 A 
HETATM   28  C   UNL     1      -5.715  -4.941 -34.945  1.00  0.00     0.001 A 
HETATM   29  C   UNL     1      -4.486  -4.856 -34.300  1.00  0.00     0.003 A 
HETATM   30  C   UNL     1      -4.049  -3.634 -33.784  1.00  0.00     0.037 A 
ENDBRANCH  23  24
ENDBRANCH  22  23
ENDBRANCH   1  22
TORSDOF 9
ENDMDL
MODEL 3
REMARK VINA RESULT:      -8.2      2.659      4.166
REMARK  9 active torsions:
REMARK  status: ('A' for Active; 'I' for Inactive)
REMARK    1  A    between atoms: C_3  and  O_4 
REMARK    2  A    between atoms: O_4  and  C_5 
REMARK    3  A    between atoms: C_5  and  C_6 
REMARK    4  A    between atoms: N_7  and  C_8 
REMARK    5  A    between atoms: C_14  and  S_15 
REMARK    6  A    between atoms: S_15  and  C_16 
REMARK    7  A    between atoms: C_16  and  C_17 
REMARK       I    between atoms: C_17  and  N_18 
REMARK    8  A    between atoms: N_18  and  C_19 
REMARK    9  A    between atoms: C_19  and  C_20 
ROOT
HETATM    1  C   UNL     1      -4.066   0.015 -31.911  1.00  0.00     0.160 A 
HETATM    2  N   UNL     1      -4.947   0.982 -32.396  1.00  0.00    -0.274 N 
HETATM    3  C   UNL     1      -4.287   2.173 -32.132  1.00  0.00     0.196 A 
HETATM    4  N   UNL     1      -3.120   1.946 -31.577  1.00  0.00    -0.122 NA
HETATM    5  N   UNL     1      -2.986   0.601 -31.426  1.00  0.00    -0.131 NA
ENDROOT
BRANCH   3   6
HETATM    6  S   UNL     1      -4.977   3.767 -32.171  1.00  0.00    -0.081 SA
BRANCH   6   7
HETATM    7  C   UNL     1      -5.401   3.971 -30.416  1.00  0.00     0.185 C 
BRANCH   7   8
HETATM    8  C   UNL     1      -6.891   3.908 -30.107  1.00  0.00     0.227 C 
HETATM    9  N   UNL     1      -7.719   3.529 -31.135  1.00  0.00    -0.360 N 
HETATM   10  H   UNL     1      -7.314   3.301 -32.041  1.00  0.00     0.162 HD
HETATM   11  O   UNL     1      -7.322   4.282 -29.017  1.00  0.00    -0.273 OA
BRANCH   9  12
HETATM   12  C   UNL     1      -9.161   3.628 -31.073  1.00  0.00     0.126 C 
BRANCH  12  13
HETATM   13  C   UNL     1      -9.769   4.065 -32.416  1.00  0.00    -0.005 C 
HETATM   14  C   UNL     1      -8.716   4.134 -33.525  1.00  0.00     0.011 C 
HETATM   15  C   UNL     1     -10.887   3.102 -32.819  1.00  0.00     0.011 C 
ENDBRANCH  12  13
ENDBRANCH   9  12
ENDBRANCH   7   8
ENDBRANCH   6   7
ENDBRANCH   3   6
BRANCH   2  16
HETATM   16  C   UNL     1      -6.227   0.805 -32.992  1.00  0.00     0.043 A 
HETATM   17  C   UNL     1      -6.440   1.117 -34.341  1.00  0.00     0.030 A 
HETATM   18  C   UNL     1      -7.702   0.932 -34.913  1.00  0.00     0.002 A 
HETATM   19  C   UNL     1      -8.754   0.434 -34.149  1.00  0.00     0.000 A 
HETATM   20  C   UNL     1      -8.549   0.120 -32.808  1.00  0.00     0.002 A 
HETATM   21  C   UNL     1      -7.291   0.305 -32.229  1.00  0.00     0.030 A 
ENDBRANCH   2  16
BRANCH   1  22
HETATM   22  C   UNL     1      -4.226  -1.464 -31.988  1.00  0.00     0.256 C 
BRANCH  22  23
HETATM   23  O   UNL     1      -3.901  -1.867 -33.313  1.00  0.00    -0.343 OA
BRANCH  23  24
HETATM   24  C   UNL     1      -4.782  -2.719 -33.927  1.00  0.00     0.075 A 
HETATM   25  C   UNL     1      -4.401  -4.072 -33.978  1.00  0.00    -0.029 A 
HETATM   26  C   UNL     1      -3.135  -4.560 -33.330  1.00  0.00     0.051 C 
HETATM   27  C   UNL     1      -5.262  -5.006 -34.578  1.00  0.00     0.009 A 
HETATM   28  C   UNL     1      -6.466  -4.598 -35.150  1.00  0.00     0.001 A 
HETATM   29  C   UNL     1      -6.826  -3.256 -35.122  1.00  0.00     0.003 A 
HETATM   30  C   UNL     1      -5.988  -2.319 -34.513  1.00  0.00     0.037 A 
ENDBRANCH  23  24
ENDBRANCH  22  23
ENDBRANCH   1  22
TORSDOF 9
ENDMDL
MODEL 4
REMARK VINA RESULT:      -8.0      2.695      6.213
REMARK  9 active torsions:
REMARK  status: ('A' for Active; 'I' for Inactive)
REMARK    1  A    between atoms: C_3  and  O_4 
REMARK    2  A    between atoms: O_4  and  C_5 
REMARK    3  A    between atoms: C_5  and  C_6 
REMARK    4  A    between atoms: N_7  and  C_8 
REMARK    5  A    between atoms: C_14  and  S_15 
REMARK    6  A    between atoms: S_15  and  C_16 
REMARK    7  A    between atoms: C_16  and  C_17 
REMARK       I    between atoms: C_17  and  N_18 
REMARK    8  A    between atoms: N_18  and  C_19 
REMARK    9  A    between atoms: C_19  and  C_20 
ROOT
HETATM    1  C   UNL     1      -6.756   0.477 -33.047  1.00  0.00     0.160 A 
HETATM    2  N   UNL     1      -6.468   1.711 -32.464  1.00  0.00    -0.274 N 
HETATM    3  C   UNL     1      -7.254   1.713 -31.321  1.00  0.00     0.196 A 
HETATM    4  N   UNL     1      -7.920   0.588 -31.212  1.00  0.00    -0.122 NA
HETATM    5  N   UNL     1      -7.621  -0.179 -32.294  1.00  0.00    -0.131 NA
ENDROOT
BRANCH   3   6
HETATM    6  S   UNL     1      -7.630   3.089 -30.328  1.00  0.00    -0.081 SA
BRANCH   6   7
HETATM    7  C   UNL     1      -9.425   3.185 -30.588  1.00  0.00     0.185 C 
BRANCH   7   8
HETATM    8  C   UNL     1      -9.876   2.959 -32.024  1.00  0.00     0.227 C 
HETATM    9  N   UNL     1     -10.462   1.750 -32.304  1.00  0.00    -0.360 N 
HETATM   10  H   UNL     1     -10.578   1.069 -31.556  1.00  0.00     0.162 HD
HETATM   11  O   UNL     1      -9.626   3.788 -32.900  1.00  0.00    -0.273 OA
BRANCH   9  12
HETATM   12  C   UNL     1     -10.746   1.294 -33.648  1.00  0.00     0.126 C 
BRANCH  12  13
HETATM   13  C   UNL     1     -12.248   1.350 -33.973  1.00  0.00    -0.005 C 
HETATM   14  C   UNL     1     -12.502   1.691 -35.444  1.00  0.00     0.011 C 
HETATM   15  C   UNL     1     -12.907   0.015 -33.627  1.00  0.00     0.011 C 
ENDBRANCH  12  13
ENDBRANCH   9  12
ENDBRANCH   7   8
ENDBRANCH   6   7
ENDBRANCH   3   6
BRANCH   2  16
HETATM   16  C   UNL     1      -5.602   2.738 -32.931  1.00  0.00     0.043 A 
HETATM   17  C   UNL     1      -6.044   3.678 -33.871  1.00  0.00     0.030 A 
HETATM   18  C   UNL     1      -5.182   4.685 -34.316  1.00  0.00     0.002 A 
HETATM   19  C   UNL     1      -3.880   4.762 -33.827  1.00  0.00     0.000 A 
HETATM   20  C   UNL     1      -3.435   3.832 -32.891  1.00  0.00     0.002 A 
HETATM   21  C   UNL     1      -4.290   2.823 -32.444  1.00  0.00     0.030 A 
ENDBRANCH   2  16
BRANCH   1  22
HETATM   22  C   UNL     1      -6.143  -0.102 -34.275  1.00  0.00     0.256 C 
BRANCH  22  23
HETATM   23  O   UNL     1      -4.945  -0.767 -33.890  1.00  0.00    -0.343 OA
BRANCH  23  24
HETATM   24  C   UNL     1      -4.922  -2.128 -34.053  1.00  0.00     0.075 A 
HETATM   25  C   UNL     1      -4.003  -2.831 -33.253  1.00  0.00    -0.029 A 
HETATM   26  C   UNL     1      -3.152  -2.132 -32.230  1.00  0.00     0.051 C 
HETATM   27  C   UNL     1      -3.935  -4.230 -33.354  1.00  0.00     0.009 A 
HETATM   28  C   UNL     1      -4.740  -4.918 -34.260  1.00  0.00     0.001 A 
HETATM   29  C   UNL     1      -5.628  -4.216 -35.068  1.00  0.00     0.003 A 
HETATM   30  C   UNL     1      -5.719  -2.827 -34.966  1.00  0.00     0.037 A 
ENDBRANCH  23  24
ENDBRANCH  22  23
ENDBRANCH   1  22
TORSDOF 9
ENDMDL
MODEL 5
REMARK VINA RESULT:      -8.0      1.940      2.817
REMARK  9 active torsions:
REMARK  status: ('A' for Active; 'I' for Inactive)
REMARK    1  A    between atoms: C_3  and  O_4 
REMARK    2  A    between atoms: O_4  and  C_5 
REMARK    3  A    between atoms: C_5  and  C_6 
REMARK    4  A    between atoms: N_7  and  C_8 
REMARK    5  A    between atoms: C_14  and  S_15 
REMARK    6  A    between atoms: S_15  and  C_16 
REMARK    7  A    between atoms: C_16  and  C_17 
REMARK       I    between atoms: C_17  and  N_18 
REMARK    8  A    between atoms: N_18  and  C_19 
REMARK    9  A    between atoms: C_19  and  C_20 
ROOT
HETATM    1  C   UNL     1      -4.616   2.379 -31.344  1.00  0.00     0.160 A 
HETATM    2  N   UNL     1      -5.224   3.157 -32.330  1.00  0.00    -0.274 N 
HETATM    3  C   UNL     1      -4.157   3.833 -32.904  1.00  0.00     0.196 A 
HETATM    4  N   UNL     1      -3.025   3.476 -32.345  1.00  0.00    -0.122 NA
HETATM    5  N   UNL     1      -3.309   2.580 -31.363  1.00  0.00    -0.131 NA
ENDROOT
BRANCH   3   6
HETATM    6  S   UNL     1      -4.255   5.213 -33.955  1.00  0.00    -0.081 SA
BRANCH   6   7
HETATM    7  C   UNL     1      -2.508   5.379 -34.422  1.00  0.00     0.185 C 
BRANCH   7   8
HETATM    8  C   UNL     1      -1.758   6.494 -33.705  1.00  0.00     0.227 C 
HETATM    9  N   UNL     1      -1.380   6.250 -32.407  1.00  0.00    -0.360 N 
HETATM   10  H   UNL     1      -1.604   5.350 -31.986  1.00  0.00     0.162 HD
HETATM   11  O   UNL     1      -1.598   7.591 -34.241  1.00  0.00    -0.273 OA
BRANCH   9  12
HETATM   12  C   UNL     1      -0.860   7.270 -31.524  1.00  0.00     0.126 C 
BRANCH  12  13
HETATM   13  C   UNL     1       0.449   6.835 -30.844  1.00  0.00    -0.005 C 
HETATM   14  C   UNL     1       0.523   7.307 -29.390  1.00  0.00     0.011 C 
HETATM   15  C   UNL     1       0.587   5.314 -30.905  1.00  0.00     0.011 C 
ENDBRANCH  12  13
ENDBRANCH   9  12
ENDBRANCH   7   8
ENDBRANCH   6   7
ENDBRANCH   3   6
BRANCH   2  16
HETATM   16  C   UNL     1      -6.604   3.262 -32.657  1.00  0.00     0.043 A 
HETATM   17  C   UNL     1      -7.162   2.479 -33.675  1.00  0.00     0.030 A 
HETATM   18  C   UNL     1      -8.522   2.589 -33.981  1.00  0.00     0.002 A 
HETATM   19  C   UNL     1      -9.331   3.477 -33.276  1.00  0.00     0.000 A 
HETATM   20  C   UNL     1      -8.783   4.258 -32.262  1.00  0.00     0.002 A 
HETATM   21  C   UNL     1      -7.425   4.153 -31.952  1.00  0.00     0.030 A 
ENDBRANCH   2  16
BRANCH   1  22
HETATM   22  C   UNL     1      -5.275   1.390 -30.447  1.00  0.00     0.256 C 
BRANCH  22  23
HETATM   23  O   UNL     1      -4.668   0.123 -30.677  1.00  0.00    -0.343 OA
BRANCH  23  24
HETATM   24  C   UNL     1      -5.037  -0.532 -31.824  1.00  0.00     0.075 A 
HETATM   25  C   UNL     1      -3.999  -1.152 -32.542  1.00  0.00    -0.029 A 
HETATM   26  C   UNL     1      -2.583  -1.156 -32.038  1.00  0.00     0.051 C 
HETATM   27  C   UNL     1      -4.304  -1.856 -33.719  1.00  0.00     0.009 A 
HETATM   28  C   UNL     1      -5.613  -1.912 -34.195  1.00  0.00     0.001 A 
HETATM   29  C   UNL     1      -6.632  -1.274 -33.496  1.00  0.00     0.003 A 
HETATM   30  C   UNL     1      -6.346  -0.586 -32.315  1.00  0.00     0.037 A 
ENDBRANCH  23  24
ENDBRANCH  22  23
ENDBRANCH   1  22
TORSDOF 9
ENDMDL
MODEL 6
REMARK VINA RESULT:      -7.9      2.275      4.220
REMARK  9 active torsions:
REMARK  status: ('A' for Active; 'I' for Inactive)
REMARK    1  A    between atoms: C_3  and  O_4 
REMARK    2  A    between atoms: O_4  and  C_5 
REMARK    3  A    between atoms: C_5  and  C_6 
REMARK    4  A    between atoms: N_7  and  C_8 
REMARK    5  A    between atoms: C_14  and  S_15 
REMARK    6  A    between atoms: S_15  and  C_16 
REMARK    7  A    between atoms: C_16  and  C_17 
REMARK       I    between atoms: C_17  and  N_18 
REMARK    8  A    between atoms: N_18  and  C_19 
REMARK    9  A    between atoms: C_19  and  C_20 
ROOT
HETATM    1  C   UNL     1      -5.060   2.363 -31.468  1.00  0.00     0.160 A 
HETATM    2  N   UNL     1      -4.720   3.694 -31.713  1.00  0.00    -0.274 N 
HETATM    3  C   UNL     1      -5.331   4.375 -30.670  1.00  0.00     0.196 A 
HETATM    4  N   UNL     1      -5.944   3.541 -29.865  1.00  0.00    -0.122 NA
HETATM    5  N   UNL     1      -5.789   2.287 -30.368  1.00  0.00    -0.131 NA
ENDROOT
BRANCH   3   6
HETATM    6  S   UNL     1      -5.591   6.090 -30.568  1.00  0.00    -0.081 SA
BRANCH   6   7
HETATM    7  C   UNL     1      -4.321   6.531 -29.347  1.00  0.00     0.185 C 
BRANCH   7   8
HETATM    8  C   UNL     1      -3.043   7.113 -29.936  1.00  0.00     0.227 C 
HETATM    9  N   UNL     1      -1.982   7.266 -29.079  1.00  0.00    -0.360 N 
HETATM   10  H   UNL     1      -2.085   6.983 -28.106  1.00  0.00     0.162 HD
HETATM   11  O   UNL     1      -3.014   7.518 -31.099  1.00  0.00    -0.273 OA
BRANCH   9  12
HETATM   12  C   UNL     1      -0.782   7.998 -29.420  1.00  0.00     0.126 C 
BRANCH  12  13
HETATM   13  C   UNL     1       0.410   7.062 -29.686  1.00  0.00    -0.005 C 
HETATM   14  C   UNL     1       0.345   5.796 -28.829  1.00  0.00     0.011 C 
HETATM   15  C   UNL     1       0.457   6.686 -31.167  1.00  0.00     0.011 C 
ENDBRANCH  12  13
ENDBRANCH   9  12
ENDBRANCH   7   8
ENDBRANCH   6   7
ENDBRANCH   3   6
BRANCH   2  16
HETATM   16  C   UNL     1      -3.958   4.237 -32.784  1.00  0.00     0.043 A 
HETATM   17  C   UNL     1      -4.581   4.668 -33.962  1.00  0.00     0.030 A 
HETATM   18  C   UNL     1      -3.819   5.205 -35.004  1.00  0.00     0.002 A 
HETATM   19  C   UNL     1      -2.436   5.318 -34.878  1.00  0.00     0.000 A 
HETATM   20  C   UNL     1      -1.811   4.893 -33.708  1.00  0.00     0.002 A 
HETATM   21  C   UNL     1      -2.566   4.354 -32.665  1.00  0.00     0.030 A 
ENDBRANCH   2  16
BRANCH   1  22
HETATM   22  C   UNL     1      -4.619   1.167 -32.238  1.00  0.00     0.256 C 
BRANCH  22  23
HETATM   23  O   UNL     1      -5.660   0.200 -32.170  1.00  0.00    -0.343 OA
BRANCH  23  24
HETATM   24  C   UNL     1      -5.588  -0.841 -33.059  1.00  0.00     0.075 A 
HETATM   25  C   UNL     1      -6.788  -1.188 -33.705  1.00  0.00    -0.029 A 
HETATM   26  C   UNL     1      -8.056  -0.412 -33.483  1.00  0.00     0.051 C 
HETATM   27  C   UNL     1      -6.786  -2.234 -34.641  1.00  0.00     0.009 A 
HETATM   28  C   UNL     1      -5.620  -2.949 -34.907  1.00  0.00     0.001 A 
HETATM   29  C   UNL     1      -4.441  -2.620 -34.247  1.00  0.00     0.003 A 
HETATM   30  C   UNL     1      -4.424  -1.571 -33.326  1.00  0.00     0.037 A 
ENDBRANCH  23  24
ENDBRANCH  22  23
ENDBRANCH   1  22
TORSDOF 9
ENDMDL
MODEL 7
REMARK VINA RESULT:      -7.7      3.594      6.801
REMARK  9 active torsions:
REMARK  status: ('A' for Active; 'I' for Inactive)
REMARK    1  A    between atoms: C_3  and  O_4 
REMARK    2  A    between atoms: O_4  and  C_5 
REMARK    3  A    between atoms: C_5  and  C_6 
REMARK    4  A    between atoms: N_7  and  C_8 
REMARK    5  A    between atoms: C_14  and  S_15 
REMARK    6  A    between atoms: S_15  and  C_16 
REMARK    7  A    between atoms: C_16  and  C_17 
REMARK       I    between atoms: C_17  and  N_18 
REMARK    8  A    between atoms: N_18  and  C_19 
REMARK    9  A    between atoms: C_19  and  C_20 
ROOT
HETATM    1  C   UNL     1      -8.889   3.808 -34.297  1.00  0.00     0.160 A 
HETATM    2  N   UNL     1      -7.749   3.074 -33.970  1.00  0.00    -0.274 N 
HETATM    3  C   UNL     1      -6.796   4.054 -33.736  1.00  0.00     0.196 A 
HETATM    4  N   UNL     1      -7.314   5.250 -33.877  1.00  0.00    -0.122 NA
HETATM    5  N   UNL     1      -8.616   5.100 -34.240  1.00  0.00    -0.131 NA
ENDROOT
BRANCH   3   6
HETATM    6  S   UNL     1      -5.078   3.818 -33.623  1.00  0.00    -0.081 SA
BRANCH   6   7
HETATM    7  C   UNL     1      -4.939   3.343 -31.875  1.00  0.00     0.185 C 
BRANCH   7   8
HETATM    8  C   UNL     1      -3.834   2.340 -31.572  1.00  0.00     0.227 C 
HETATM    9  N   UNL     1      -4.189   1.014 -31.566  1.00  0.00    -0.360 N 
HETATM   10  H   UNL     1      -5.154   0.757 -31.768  1.00  0.00     0.162 HD
HETATM   11  O   UNL     1      -2.709   2.722 -31.249  1.00  0.00    -0.273 OA
BRANCH   9  12
HETATM   12  C   UNL     1      -3.322  -0.041 -31.087  1.00  0.00     0.126 C 
BRANCH  12  13
HETATM   13  C   UNL     1      -2.935  -1.024 -32.205  1.00  0.00    -0.005 C 
HETATM   14  C   UNL     1      -3.119  -2.481 -31.773  1.00  0.00     0.011 C 
HETATM   15  C   UNL     1      -3.766  -0.743 -33.457  1.00  0.00     0.011 C 
ENDBRANCH  12  13
ENDBRANCH   9  12
ENDBRANCH   7   8
ENDBRANCH   6   7
ENDBRANCH   3   6
BRANCH   2  16
HETATM   16  C   UNL     1      -7.584   1.662 -33.913  1.00  0.00     0.043 A 
HETATM   17  C   UNL     1      -7.642   0.981 -32.691  1.00  0.00     0.030 A 
HETATM   18  C   UNL     1      -7.483  -0.408 -32.652  1.00  0.00     0.002 A 
HETATM   19  C   UNL     1      -7.269  -1.124 -33.828  1.00  0.00     0.000 A 
HETATM   20  C   UNL     1      -7.211  -0.452 -35.047  1.00  0.00     0.002 A 
HETATM   21  C   UNL     1      -7.367   0.935 -35.092  1.00  0.00     0.030 A 
ENDBRANCH   2  16
BRANCH   1  22
HETATM   22  C   UNL     1     -10.250   3.275 -34.582  1.00  0.00     0.256 C 
BRANCH  22  23
HETATM   23  O   UNL     1     -10.809   2.831 -33.351  1.00  0.00    -0.343 OA
BRANCH  23  24
HETATM   24  C   UNL     1     -11.888   1.990 -33.437  1.00  0.00     0.075 A 
HETATM   25  C   UNL     1     -13.153   2.596 -33.340  1.00  0.00    -0.029 A 
HETATM   26  C   UNL     1     -13.308   4.086 -33.224  1.00  0.00     0.051 C 
HETATM   27  C   UNL     1     -14.306   1.798 -33.435  1.00  0.00     0.009 A 
HETATM   28  C   UNL     1     -14.203   0.416 -33.588  1.00  0.00     0.001 A 
HETATM   29  C   UNL     1     -12.950  -0.182 -33.656  1.00  0.00     0.003 A 
HETATM   30  C   UNL     1     -11.796   0.601 -33.580  1.00  0.00     0.037 A 
ENDBRANCH  23  24
ENDBRANCH  22  23
ENDBRANCH   1  22
TORSDOF 9
ENDMDL
MODEL 8
REMARK VINA RESULT:      -7.7      2.066      3.465
REMARK  9 active torsions:
REMARK  status: ('A' for Active; 'I' for Inactive)
REMARK    1  A    between atoms: C_3  and  O_4 
REMARK    2  A    between atoms: O_4  and  C_5 
REMARK    3  A    between atoms: C_5  and  C_6 
REMARK    4  A    between atoms: N_7  and  C_8 
REMARK    5  A    between atoms: C_14  and  S_15 
REMARK    6  A    between atoms: S_15  and  C_16 
REMARK    7  A    between atoms: C_16  and  C_17 
REMARK       I    between atoms: C_17  and  N_18 
REMARK    8  A    between atoms: N_18  and  C_19 
REMARK    9  A    between atoms: C_19  and  C_20 
ROOT
HETATM    1  C   UNL     1      -8.125   0.696 -33.915  1.00  0.00     0.160 A 
HETATM    2  N   UNL     1      -7.559   1.576 -32.992  1.00  0.00    -0.274 N 
HETATM    3  C   UNL     1      -8.184   2.781 -33.278  1.00  0.00     0.196 A 
HETATM    4  N   UNL     1      -9.057   2.635 -34.246  1.00  0.00    -0.122 NA
HETATM    5  N   UNL     1      -9.012   1.338 -34.654  1.00  0.00    -0.131 NA
ENDROOT
BRANCH   3   6
HETATM    6  S   UNL     1      -7.692   4.355 -32.731  1.00  0.00    -0.081 SA
BRANCH   6   7
HETATM    7  C   UNL     1      -6.319   4.673 -33.876  1.00  0.00     0.185 C 
BRANCH   7   8
HETATM    8  C   UNL     1      -5.143   5.426 -33.270  1.00  0.00     0.227 C 
HETATM    9  N   UNL     1      -3.924   4.795 -33.301  1.00  0.00    -0.360 N 
HETATM   10  H   UNL     1      -3.853   3.872 -33.726  1.00  0.00     0.162 HD
HETATM   11  O   UNL     1      -5.314   6.500 -32.693  1.00  0.00    -0.273 OA
BRANCH   9  12
HETATM   12  C   UNL     1      -2.762   5.271 -32.582  1.00  0.00     0.126 C 
BRANCH  12  13
HETATM   13  C   UNL     1      -1.641   5.726 -33.531  1.00  0.00    -0.005 C 
HETATM   14  C   UNL     1      -1.791   5.117 -34.927  1.00  0.00     0.011 C 
HETATM   15  C   UNL     1      -1.627   7.252 -33.627  1.00  0.00     0.011 C 
ENDBRANCH  12  13
ENDBRANCH   9  12
ENDBRANCH   7   8
ENDBRANCH   6   7
ENDBRANCH   3   6
BRANCH   2  16
HETATM   16  C   UNL     1      -6.561   1.320 -32.012  1.00  0.00     0.043 A 
HETATM   17  C   UNL     1      -5.229   1.694 -32.228  1.00  0.00     0.030 A 
HETATM   18  C   UNL     1      -4.260   1.440 -31.251  1.00  0.00     0.002 A 
HETATM   19  C   UNL     1      -4.614   0.816 -30.057  1.00  0.00     0.000 A 
HETATM   20  C   UNL     1      -5.937   0.443 -29.835  1.00  0.00     0.002 A 
HETATM   21  C   UNL     1      -6.908   0.692 -30.807  1.00  0.00     0.030 A 
ENDBRANCH   2  16
BRANCH   1  22
HETATM   22  C   UNL     1      -7.876  -0.768 -34.030  1.00  0.00     0.256 C 
BRANCH  22  23
HETATM   23  O   UNL     1      -6.505  -0.950 -34.365  1.00  0.00    -0.343 OA
BRANCH  23  24
HETATM   24  C   UNL     1      -6.057  -2.244 -34.426  1.00  0.00     0.075 A 
HETATM   25  C   UNL     1      -4.721  -2.454 -34.041  1.00  0.00    -0.029 A 
HETATM   26  C   UNL     1      -3.863  -1.333 -33.523  1.00  0.00     0.051 C 
HETATM   27  C   UNL     1      -4.197  -3.757 -34.064  1.00  0.00     0.009 A 
HETATM   28  C   UNL     1      -4.975  -4.829 -34.496  1.00  0.00     0.001 A 
HETATM   29  C   UNL     1      -6.287  -4.613 -34.902  1.00  0.00     0.003 A 
HETATM   30  C   UNL     1      -6.827  -3.325 -34.868  1.00  0.00     0.037 A 
ENDBRANCH  23  24
ENDBRANCH  22  23
ENDBRANCH   1  22
TORSDOF 9
ENDMDL
MODEL 9
REMARK VINA RESULT:      -7.7      2.461      5.683
REMARK  9 active torsions:
REMARK  status: ('A' for Active; 'I' for Inactive)
REMARK    1  A    between atoms: C_3  and  O_4 
REMARK    2  A    between atoms: O_4  and  C_5 
REMARK    3  A    between atoms: C_5  and  C_6 
REMARK    4  A    between atoms: N_7  and  C_8 
REMARK    5  A    between atoms: C_14  and  S_15 
REMARK    6  A    between atoms: S_15  and  C_16 
REMARK    7  A    between atoms: C_16  and  C_17 
REMARK       I    between atoms: C_17  and  N_18 
REMARK    8  A    between atoms: N_18  and  C_19 
REMARK    9  A    between atoms: C_19  and  C_20 
ROOT
HETATM    1  C   UNL     1      -5.989   2.104 -32.535  1.00  0.00     0.160 A 
HETATM    2  N   UNL     1      -5.575   3.436 -32.544  1.00  0.00    -0.274 N 
HETATM    3  C   UNL     1      -6.452   4.047 -31.661  1.00  0.00     0.196 A 
HETATM    4  N   UNL     1      -7.285   3.171 -31.151  1.00  0.00    -0.122 NA
HETATM    5  N   UNL     1      -7.007   1.961 -31.704  1.00  0.00    -0.131 NA
ENDROOT
BRANCH   3   6
HETATM    6  S   UNL     1      -6.708   5.756 -31.475  1.00  0.00    -0.081 SA
BRANCH   6   7
HETATM    7  C   UNL     1      -8.439   5.876 -32.010  1.00  0.00     0.185 C 
BRANCH   7   8
HETATM    8  C   UNL     1      -8.773   5.098 -33.275  1.00  0.00     0.227 C 
HETATM    9  N   UNL     1      -9.690   4.083 -33.152  1.00  0.00    -0.360 N 
HETATM   10  H   UNL     1     -10.108   3.899 -32.242  1.00  0.00     0.162 HD
HETATM   11  O   UNL     1      -8.166   5.313 -34.324  1.00  0.00    -0.273 OA
BRANCH   9  12
HETATM   12  C   UNL     1      -9.953   3.116 -34.196  1.00  0.00     0.126 C 
BRANCH  12  13
HETATM   13  C   UNL     1      -9.989   1.677 -33.656  1.00  0.00    -0.005 C 
HETATM   14  C   UNL     1     -11.400   1.084 -33.704  1.00  0.00     0.011 C 
HETATM   15  C   UNL     1      -9.027   0.796 -34.453  1.00  0.00     0.011 C 
ENDBRANCH  12  13
ENDBRANCH   9  12
ENDBRANCH   7   8
ENDBRANCH   6   7
ENDBRANCH   3   6
BRANCH   2  16
HETATM   16  C   UNL     1      -4.527   4.039 -33.293  1.00  0.00     0.043 A 
HETATM   17  C   UNL     1      -4.792   4.688 -34.505  1.00  0.00     0.030 A 
HETATM   18  C   UNL     1      -3.752   5.281 -35.227  1.00  0.00     0.002 A 
HETATM   19  C   UNL     1      -2.446   5.233 -34.746  1.00  0.00     0.000 A 
HETATM   20  C   UNL     1      -2.175   4.591 -33.540  1.00  0.00     0.002 A 
HETATM   21  C   UNL     1      -3.209   3.995 -32.815  1.00  0.00     0.030 A 
ENDBRANCH   2  16
BRANCH   1  22
HETATM   22  C   UNL     1      -5.359   0.962 -33.256  1.00  0.00     0.256 C 
BRANCH  22  23
HETATM   23  O   UNL     1      -5.739  -0.235 -32.587  1.00  0.00    -0.343 OA
BRANCH  23  24
HETATM   24  C   UNL     1      -5.643  -1.396 -33.310  1.00  0.00     0.075 A 
HETATM   25  C   UNL     1      -4.426  -2.092 -33.205  1.00  0.00    -0.029 A 
HETATM   26  C   UNL     1      -3.326  -1.623 -32.293  1.00  0.00     0.051 C 
HETATM   27  C   UNL     1      -4.261  -3.298 -33.905  1.00  0.00     0.009 A 
HETATM   28  C   UNL     1      -5.275  -3.787 -34.727  1.00  0.00     0.001 A 
HETATM   29  C   UNL     1      -6.467  -3.082 -34.849  1.00  0.00     0.003 A 
HETATM   30  C   UNL     1      -6.652  -1.891 -34.145  1.00  0.00     0.037 A 
ENDBRANCH  23  24
ENDBRANCH  22  23
ENDBRANCH   1  22
TORSDOF 9
ENDMDL
MODEL 10
REMARK VINA RESULT:      -7.7      2.897      4.141
REMARK  9 active torsions:
REMARK  status: ('A' for Active; 'I' for Inactive)
REMARK    1  A    between atoms: C_3  and  O_4 
REMARK    2  A    between atoms: O_4  and  C_5 
REMARK    3  A    between atoms: C_5  and  C_6 
REMARK    4  A    between atoms: N_7  and  C_8 
REMARK    5  A    between atoms: C_14  and  S_15 
REMARK    6  A    between atoms: S_15  and  C_16 
REMARK    7  A    between atoms: C_16  and  C_17 
REMARK       I    between atoms: C_17  and  N_18 
REMARK    8  A    between atoms: N_18  and  C_19 
REMARK    9  A    between atoms: C_19  and  C_20 
ROOT
HETATM    1  C   UNL     1      -7.870   0.289 -32.893  1.00  0.00     0.160 A 
HETATM    2  N   UNL     1      -8.905   1.202 -32.689  1.00  0.00    -0.274 N 
HETATM    3  C   UNL     1      -8.447   1.967 -31.627  1.00  0.00     0.196 A 
HETATM    4  N   UNL     1      -7.252   1.578 -31.252  1.00  0.00    -0.122 NA
HETATM    5  N   UNL     1      -6.895   0.522 -32.032  1.00  0.00    -0.131 NA
ENDROOT
BRANCH   3   6
HETATM    6  S   UNL     1      -9.392   3.053 -30.654  1.00  0.00    -0.081 SA
BRANCH   6   7
HETATM    7  C   UNL     1      -9.228   4.576 -31.629  1.00  0.00     0.185 C 
BRANCH   7   8
HETATM    8  C   UNL     1      -7.807   5.113 -31.743  1.00  0.00     0.227 C 
HETATM    9  N   UNL     1      -7.349   5.385 -33.008  1.00  0.00    -0.360 N 
HETATM   10  H   UNL     1      -7.965   5.230 -33.803  1.00  0.00     0.162 HD
HETATM   11  O   UNL     1      -7.084   5.192 -30.749  1.00  0.00    -0.273 OA
BRANCH   9  12
HETATM   12  C   UNL     1      -5.966   5.689 -33.306  1.00  0.00     0.126 C 
BRANCH  12  13
HETATM   13  C   UNL     1      -5.273   4.545 -34.064  1.00  0.00    -0.005 C 
HETATM   14  C   UNL     1      -4.145   5.056 -34.964  1.00  0.00     0.011 C 
HETATM   15  C   UNL     1      -4.722   3.520 -33.072  1.00  0.00     0.011 C 
ENDBRANCH  12  13
ENDBRANCH   9  12
ENDBRANCH   7   8
ENDBRANCH   6   7
ENDBRANCH   3   6
BRANCH   2  16
HETATM   16  C   UNL     1     -10.145   1.313 -33.377  1.00  0.00     0.043 A 
HETATM   17  C   UNL     1     -10.374   2.359 -34.279  1.00  0.00     0.030 A 
HETATM   18  C   UNL     1     -11.596   2.451 -34.952  1.00  0.00     0.002 A 
HETATM   19  C   UNL     1     -12.593   1.503 -34.732  1.00  0.00     0.000 A 
HETATM   20  C   UNL     1     -12.371   0.460 -33.837  1.00  0.00     0.002 A 
HETATM   21  C   UNL     1     -11.153   0.363 -33.160  1.00  0.00     0.030 A 
ENDBRANCH   2  16
BRANCH   1  22
HETATM   22  C   UNL     1      -7.783  -0.747 -33.961  1.00  0.00     0.256 C 
BRANCH  22  23
HETATM   23  O   UNL     1      -6.409  -0.919 -34.287  1.00  0.00    -0.343 OA
BRANCH  23  24
HETATM   24  C   UNL     1      -5.951  -2.209 -34.347  1.00  0.00     0.075 A 
HETATM   25  C   UNL     1      -4.645  -2.425 -33.871  1.00  0.00    -0.029 A 
HETATM   26  C   UNL     1      -3.833  -1.315 -33.265  1.00  0.00     0.051 C 
HETATM   27  C   UNL     1      -4.115  -3.725 -33.886  1.00  0.00     0.009 A 
HETATM   28  C   UNL     1      -4.855  -4.789 -34.400  1.00  0.00     0.001 A 
HETATM   29  C   UNL     1      -6.135  -4.567 -34.894  1.00  0.00     0.003 A 
HETATM   30  C   UNL     1      -6.682  -3.282 -34.869  1.00  0.00     0.037 A 
ENDBRANCH  23  24
ENDBRANCH  22  23
ENDBRANCH   1  22
TORSDOF 9
ENDMDL
