MODEL 1
REMARK VINA RESULT:      -9.4      0.000      0.000
REMARK  7 active torsions:
REMARK  status: ('A' for Active; 'I' for Inactive)
REMARK    1  A    between atoms: O_2  and  C_3 
REMARK    2  A    between atoms: C_6  and  C_7 
REMARK    3  A    between atoms: C_7  and  N_8 
REMARK    4  A    between atoms: C_7  and  C_25 
REMARK    5  A    between atoms: N_8  and  C_11 
REMARK    6  A    between atoms: C_11  and  C_12 
REMARK       I    between atoms: C_12  and  N_13 
REMARK    7  A    between atoms: N_13  and  C_14 
ROOT
HETATM    1  N   UNL     1      -4.879  -0.047 -33.232  1.00  0.00    -0.055 N 
HETATM    2  H   UNL     1      -4.850  -0.661 -32.400  1.00  0.00     0.278 HD
HETATM    3  H   UNL     1      -3.914  -0.065 -33.578  1.00  0.00     0.278 HD
ENDROOT
BRANCH   1   4
HETATM    4  C   UNL     1      -5.815  -0.626 -34.241  1.00  0.00     0.252 C 
BRANCH   4   5
HETATM    5  C   UNL     1      -7.252  -0.187 -34.015  1.00  0.00    -0.023 A 
HETATM    6  C   UNL     1      -7.880  -0.484 -32.791  1.00  0.00     0.012 A 
HETATM    7  C   UNL     1      -9.193  -0.073 -32.530  1.00  0.00     0.037 A 
HETATM    8  C   UNL     1      -9.902   0.652 -33.484  1.00  0.00     0.068 A 
HETATM    9  C   UNL     1      -9.291   0.948 -34.702  1.00  0.00     0.037 A 
HETATM   10  C   UNL     1      -7.980   0.541 -34.969  1.00  0.00     0.012 A 
BRANCH   8  11
HETATM   11  O   UNL     1     -11.178   1.121 -33.355  1.00  0.00    -0.356 OA
HETATM   12  C   UNL     1     -11.346   2.533 -33.282  1.00  0.00     0.210 C 
ENDBRANCH   8  11
ENDBRANCH   4   5
BRANCH   4  13
HETATM   13  C   UNL     1      -5.660  -2.131 -34.377  1.00  0.00    -0.023 A 
HETATM   14  C   UNL     1      -4.430  -2.735 -34.055  1.00  0.00     0.009 A 
HETATM   15  C   UNL     1      -4.268  -4.117 -34.150  1.00  0.00     0.001 A 
HETATM   16  C   UNL     1      -5.327  -4.917 -34.569  1.00  0.00     0.000 A 
HETATM   17  C   UNL     1      -6.548  -4.337 -34.901  1.00  0.00     0.001 A 
HETATM   18  C   UNL     1      -6.715  -2.953 -34.810  1.00  0.00     0.009 A 
ENDBRANCH   4  13
ENDBRANCH   1   4
BRANCH   1  19
HETATM   19  C   UNL     1      -5.198   1.345 -32.749  1.00  0.00     0.336 C 
BRANCH  19  20
HETATM   20  C   UNL     1      -3.916   2.033 -32.278  1.00  0.00     0.248 C 
HETATM   21  N   UNL     1      -3.823   3.364 -32.626  1.00  0.00    -0.326 N 
HETATM   22  H   UNL     1      -4.567   3.776 -33.180  1.00  0.00     0.169 HD
HETATM   23  O   UNL     1      -3.101   1.357 -31.652  1.00  0.00    -0.271 OA
BRANCH  21  24
HETATM   24  C   UNL     1      -2.771   4.254 -32.305  1.00  0.00     0.037 A 
HETATM   25  C   UNL     1      -2.474   4.668 -31.000  1.00  0.00     0.061 A 
HETATM   26  C   UNL     1      -1.422   5.545 -30.844  1.00  0.00     0.065 A 
HETATM   27  C   UNL     1      -0.670   6.013 -31.918  1.00  0.00     0.063 A 
HETATM   28  N   UNL     1      -0.912   6.120 -29.685  1.00  0.00    -0.306 N 
HETATM   29  N   UNL     1       0.301   6.872 -31.422  1.00  0.00    -0.307 N 
HETATM   30  C   UNL     1      -0.930   5.630 -33.209  1.00  0.00     0.034 A 
HETATM   31  C   UNL     1       0.164   6.952 -30.029  1.00  0.00     0.325 A 
HETATM   32  H   UNL     1       1.003   7.377 -31.940  1.00  0.00     0.170 HD
HETATM   33  O   UNL     1       0.844   7.612 -29.265  1.00  0.00    -0.247 OA
HETATM   34  C   UNL     1      -1.997   4.740 -33.396  1.00  0.00     0.032 A 
HETATM   35  H   UNL     1      -1.232   5.992 -28.738  1.00  0.00     0.170 HD
ENDBRANCH  21  24
ENDBRANCH  19  20
ENDBRANCH   1  19
TORSDOF 7
ENDMDL
MODEL 2
REMARK VINA RESULT:      -9.4      2.153      2.844
REMARK  7 active torsions:
REMARK  status: ('A' for Active; 'I' for Inactive)
REMARK    1  A    between atoms: O_2  and  C_3 
REMARK    2  A    between atoms: C_6  and  C_7 
REMARK    3  A    between atoms: C_7  and  N_8 
REMARK    4  A    between atoms: C_7  and  C_25 
REMARK    5  A    between atoms: N_8  and  C_11 
REMARK    6  A    between atoms: C_11  and  C_12 
REMARK       I    between atoms: C_12  and  N_13 
REMARK    7  A    between atoms: N_13  and  C_14 
ROOT
HETATM    1  N   UNL     1      -7.068  -0.190 -30.899  1.00  0.00    -0.055 N 
HETATM    2  H   UNL     1      -8.017   0.037 -30.556  1.00  0.00     0.278 HD
HETATM    3  H   UNL     1      -6.988  -1.199 -30.735  1.00  0.00     0.278 HD
ENDROOT
BRANCH   1   4
HETATM    4  C   UNL     1      -6.982   0.119 -32.357  1.00  0.00     0.252 C 
BRANCH   4   5
HETATM    5  C   UNL     1      -8.306   0.603 -32.926  1.00  0.00    -0.023 A 
HETATM    6  C   UNL     1      -8.314   1.671 -33.842  1.00  0.00     0.012 A 
HETATM    7  C   UNL     1      -9.508   2.129 -34.413  1.00  0.00     0.037 A 
HETATM    8  C   UNL     1     -10.717   1.523 -34.085  1.00  0.00     0.068 A 
HETATM    9  C   UNL     1     -10.722   0.466 -33.174  1.00  0.00     0.037 A 
HETATM   10  C   UNL     1      -9.533   0.004 -32.602  1.00  0.00     0.012 A 
BRANCH   8  11
HETATM   11  O   UNL     1     -11.947   1.861 -34.573  1.00  0.00    -0.356 OA
HETATM   12  C   UNL     1     -13.025   0.978 -34.285  1.00  0.00     0.210 C 
ENDBRANCH   8  11
ENDBRANCH   4   5
BRANCH   4  13
HETATM   13  C   UNL     1      -6.365  -1.019 -33.153  1.00  0.00    -0.023 A 
HETATM   14  C   UNL     1      -4.986  -1.274 -33.046  1.00  0.00     0.009 A 
HETATM   15  C   UNL     1      -4.398  -2.327 -33.749  1.00  0.00     0.001 A 
HETATM   16  C   UNL     1      -5.176  -3.136 -34.571  1.00  0.00     0.000 A 
HETATM   17  C   UNL     1      -6.541  -2.892 -34.698  1.00  0.00     0.001 A 
HETATM   18  C   UNL     1      -7.134  -1.839 -33.998  1.00  0.00     0.009 A 
ENDBRANCH   4  13
ENDBRANCH   1   4
BRANCH   1  19
HETATM   19  C   UNL     1      -6.087   0.528 -30.007  1.00  0.00     0.336 C 
BRANCH  19  20
HETATM   20  C   UNL     1      -5.745   1.890 -30.611  1.00  0.00     0.248 C 
HETATM   21  N   UNL     1      -4.768   1.853 -31.583  1.00  0.00    -0.326 N 
HETATM   22  H   UNL     1      -4.332   0.963 -31.802  1.00  0.00     0.169 HD
HETATM   23  O   UNL     1      -6.351   2.873 -30.187  1.00  0.00    -0.271 OA
BRANCH  21  24
HETATM   24  C   UNL     1      -4.270   2.947 -32.330  1.00  0.00     0.037 A 
HETATM   25  C   UNL     1      -2.985   3.480 -32.164  1.00  0.00     0.061 A 
HETATM   26  C   UNL     1      -2.643   4.552 -32.959  1.00  0.00     0.065 A 
HETATM   27  C   UNL     1      -3.515   5.100 -33.895  1.00  0.00     0.063 A 
HETATM   28  N   UNL     1      -1.456   5.276 -33.008  1.00  0.00    -0.306 N 
HETATM   29  N   UNL     1      -2.868   6.158 -34.520  1.00  0.00    -0.307 N 
HETATM   30  C   UNL     1      -4.780   4.606 -34.086  1.00  0.00     0.034 A 
HETATM   31  C   UNL     1      -1.581   6.283 -33.978  1.00  0.00     0.325 A 
HETATM   32  H   UNL     1      -3.226   6.762 -35.243  1.00  0.00     0.170 HD
HETATM   33  O   UNL     1      -0.736   7.103 -34.286  1.00  0.00    -0.247 OA
HETATM   34  C   UNL     1      -5.154   3.516 -33.288  1.00  0.00     0.032 A 
HETATM   35  H   UNL     1      -0.623   5.138 -32.458  1.00  0.00     0.170 HD
ENDBRANCH  21  24
ENDBRANCH  19  20
ENDBRANCH   1  19
TORSDOF 7
ENDMDL
MODEL 3
REMARK VINA RESULT:      -9.4      3.493      4.382
REMARK  7 active torsions:
REMARK  status: ('A' for Active; 'I' for Inactive)
REMARK    1  A    between atoms: O_2  and  C_3 
REMARK    2  A    between atoms: C_6  and  C_7 
REMARK    3  A    between atoms: C_7  and  N_8 
REMARK    4  A    between atoms: C_7  and  C_25 
REMARK    5  A    between atoms: N_8  and  C_11 
REMARK    6  A    between atoms: C_11  and  C_12 
REMARK       I    between atoms: C_12  and  N_13 
REMARK    7  A    between atoms: N_13  and  C_14 
ROOT
HETATM    1  N   UNL     1      -5.012  -0.308 -32.519  1.00  0.00    -0.055 N 
HETATM    2  H   UNL     1      -5.676  -0.172 -31.739  1.00  0.00     0.278 HD
HETATM    3  H   UNL     1      -4.444  -1.106 -32.218  1.00  0.00     0.278 HD
ENDROOT
BRANCH   1   4
HETATM    4  C   UNL     1      -5.770  -0.636 -33.763  1.00  0.00     0.252 C 
BRANCH   4   5
HETATM    5  C   UNL     1      -7.204  -0.133 -33.716  1.00  0.00    -0.023 A 
HETATM    6  C   UNL     1      -7.986  -0.387 -32.574  1.00  0.00     0.012 A 
HETATM    7  C   UNL     1      -9.302   0.083 -32.476  1.00  0.00     0.037 A 
HETATM    8  C   UNL     1      -9.858   0.824 -33.514  1.00  0.00     0.068 A 
HETATM    9  C   UNL     1      -9.093   1.078 -34.653  1.00  0.00     0.037 A 
HETATM   10  C   UNL     1      -7.780   0.612 -34.756  1.00  0.00     0.012 A 
BRANCH   8  11
HETATM   11  O   UNL     1     -11.119   1.349 -33.544  1.00  0.00    -0.356 OA
HETATM   12  C   UNL     1     -11.246   2.746 -33.302  1.00  0.00     0.210 C 
ENDBRANCH   8  11
ENDBRANCH   4   5
BRANCH   4  13
HETATM   13  C   UNL     1      -5.660  -2.104 -34.136  1.00  0.00    -0.023 A 
HETATM   14  C   UNL     1      -4.450  -2.788 -33.915  1.00  0.00     0.009 A 
HETATM   15  C   UNL     1      -4.329  -4.143 -34.228  1.00  0.00     0.001 A 
HETATM   16  C   UNL     1      -5.409  -4.833 -34.770  1.00  0.00     0.000 A 
HETATM   17  C   UNL     1      -6.610  -4.170 -35.006  1.00  0.00     0.001 A 
HETATM   18  C   UNL     1      -6.737  -2.814 -34.696  1.00  0.00     0.009 A 
ENDBRANCH   4  13
ENDBRANCH   1   4
BRANCH   1  19
HETATM   19  C   UNL     1      -4.136   0.919 -32.578  1.00  0.00     0.336 C 
BRANCH  19  20
HETATM   20  C   UNL     1      -4.975   2.164 -32.289  1.00  0.00     0.248 C 
HETATM   21  N   UNL     1      -5.764   2.070 -31.162  1.00  0.00    -0.326 N 
HETATM   22  H   UNL     1      -5.763   1.201 -30.638  1.00  0.00     0.169 HD
HETATM   23  O   UNL     1      -4.878   3.112 -33.067  1.00  0.00    -0.271 OA
BRANCH  21  24
HETATM   24  C   UNL     1      -6.619   3.068 -30.638  1.00  0.00     0.037 A 
HETATM   25  C   UNL     1      -6.235   3.974 -29.640  1.00  0.00     0.061 A 
HETATM   26  C   UNL     1      -7.179   4.886 -29.223  1.00  0.00     0.065 A 
HETATM   27  C   UNL     1      -8.465   4.931 -29.756  1.00  0.00     0.063 A 
HETATM   28  N   UNL     1      -7.082   5.885 -28.260  1.00  0.00    -0.306 N 
HETATM   29  N   UNL     1      -9.158   5.955 -29.124  1.00  0.00    -0.307 N 
HETATM   30  C   UNL     1      -8.877   4.063 -30.734  1.00  0.00     0.034 A 
HETATM   31  C   UNL     1      -8.310   6.561 -28.186  1.00  0.00     0.325 A 
HETATM   32  H   UNL     1     -10.111   6.245 -29.279  1.00  0.00     0.170 HD
HETATM   33  O   UNL     1      -8.583   7.491 -27.450  1.00  0.00    -0.247 OA
HETATM   34  C   UNL     1      -7.935   3.121 -31.173  1.00  0.00     0.032 A 
HETATM   35  H   UNL     1      -6.287   6.118 -27.688  1.00  0.00     0.170 HD
ENDBRANCH  21  24
ENDBRANCH  19  20
ENDBRANCH   1  19
TORSDOF 7
ENDMDL
MODEL 4
REMARK VINA RESULT:      -9.3      1.588      1.831
REMARK  7 active torsions:
REMARK  status: ('A' for Active; 'I' for Inactive)
REMARK    1  A    between atoms: O_2  and  C_3 
REMARK    2  A    between atoms: C_6  and  C_7 
REMARK    3  A    between atoms: C_7  and  N_8 
REMARK    4  A    between atoms: C_7  and  C_25 
REMARK    5  A    between atoms: N_8  and  C_11 
REMARK    6  A    between atoms: C_11  and  C_12 
REMARK       I    between atoms: C_12  and  N_13 
REMARK    7  A    between atoms: N_13  and  C_14 
ROOT
HETATM    1  N   UNL     1      -4.365  -0.712 -32.476  1.00  0.00    -0.055 N 
HETATM    2  H   UNL     1      -4.388  -1.553 -31.875  1.00  0.00     0.278 HD
HETATM    3  H   UNL     1      -3.365  -0.557 -32.636  1.00  0.00     0.278 HD
ENDROOT
BRANCH   1   4
HETATM    4  C   UNL     1      -5.068  -1.003 -33.762  1.00  0.00     0.252 C 
BRANCH   4   5
HETATM    5  C   UNL     1      -6.448  -0.372 -33.822  1.00  0.00    -0.023 A 
HETATM    6  C   UNL     1      -6.723   0.592 -34.810  1.00  0.00     0.012 A 
HETATM    7  C   UNL     1      -7.991   1.178 -34.920  1.00  0.00     0.037 A 
HETATM    8  C   UNL     1      -9.011   0.805 -34.050  1.00  0.00     0.068 A 
HETATM    9  C   UNL     1      -8.749  -0.146 -33.064  1.00  0.00     0.037 A 
HETATM   10  C   UNL     1      -7.486  -0.735 -32.950  1.00  0.00     0.012 A 
BRANCH   8  11
HETATM   11  O   UNL     1     -10.289   1.287 -34.053  1.00  0.00    -0.356 OA
HETATM   12  C   UNL     1     -10.459   2.674 -34.323  1.00  0.00     0.210 C 
ENDBRANCH   8  11
ENDBRANCH   4   5
BRANCH   4  13
HETATM   13  C   UNL     1      -5.069  -2.485 -34.096  1.00  0.00    -0.023 A 
HETATM   14  C   UNL     1      -4.016  -3.301 -33.641  1.00  0.00     0.009 A 
HETATM   15  C   UNL     1      -4.005  -4.669 -33.916  1.00  0.00     0.001 A 
HETATM   16  C   UNL     1      -5.039  -5.242 -34.650  1.00  0.00     0.000 A 
HETATM   17  C   UNL     1      -6.083  -4.449 -35.117  1.00  0.00     0.001 A 
HETATM   18  C   UNL     1      -6.099  -3.079 -34.847  1.00  0.00     0.009 A 
ENDBRANCH   4  13
ENDBRANCH   1   4
BRANCH   1  19
HETATM   19  C   UNL     1      -4.912   0.434 -31.663  1.00  0.00     0.336 C 
BRANCH  19  20
HETATM   20  C   UNL     1      -3.909   1.587 -31.660  1.00  0.00     0.248 C 
HETATM   21  N   UNL     1      -4.316   2.699 -32.367  1.00  0.00    -0.326 N 
HETATM   22  H   UNL     1      -5.206   2.667 -32.853  1.00  0.00     0.169 HD
HETATM   23  O   UNL     1      -2.854   1.427 -31.047  1.00  0.00    -0.271 OA
BRANCH  21  24
HETATM   24  C   UNL     1      -3.611   3.917 -32.514  1.00  0.00     0.037 A 
HETATM   25  C   UNL     1      -3.935   5.091 -31.822  1.00  0.00     0.061 A 
HETATM   26  C   UNL     1      -3.162   6.203 -32.075  1.00  0.00     0.065 A 
HETATM   27  C   UNL     1      -2.098   6.188 -32.972  1.00  0.00     0.063 A 
HETATM   28  N   UNL     1      -3.254   7.486 -31.545  1.00  0.00    -0.306 N 
HETATM   29  N   UNL     1      -1.535   7.457 -32.995  1.00  0.00    -0.307 N 
HETATM   30  C   UNL     1      -1.750   5.059 -33.668  1.00  0.00     0.034 A 
HETATM   31  C   UNL     1      -2.245   8.281 -32.110  1.00  0.00     0.325 A 
HETATM   32  H   UNL     1      -0.751   7.776 -33.542  1.00  0.00     0.170 HD
HETATM   33  O   UNL     1      -2.031   9.456 -31.876  1.00  0.00    -0.247 OA
HETATM   34  C   UNL     1      -2.524   3.913 -33.431  1.00  0.00     0.032 A 
HETATM   35  H   UNL     1      -3.917   7.831 -30.870  1.00  0.00     0.170 HD
ENDBRANCH  21  24
ENDBRANCH  19  20
ENDBRANCH   1  19
TORSDOF 7
ENDMDL
MODEL 5
REMARK VINA RESULT:      -9.0      2.688      5.176
REMARK  7 active torsions:
REMARK  status: ('A' for Active; 'I' for Inactive)
REMARK    1  A    between atoms: O_2  and  C_3 
REMARK    2  A    between atoms: C_6  and  C_7 
REMARK    3  A    between atoms: C_7  and  N_8 
REMARK    4  A    between atoms: C_7  and  C_25 
REMARK    5  A    between atoms: N_8  and  C_11 
REMARK    6  A    between atoms: C_11  and  C_12 
REMARK       I    between atoms: C_12  and  N_13 
REMARK    7  A    between atoms: N_13  and  C_14 
ROOT
HETATM    1  N   UNL     1      -8.946   3.199 -34.214  1.00  0.00    -0.055 N 
HETATM    2  H   UNL     1      -7.965   3.115 -34.530  1.00  0.00     0.278 HD
HETATM    3  H   UNL     1      -9.471   3.320 -35.085  1.00  0.00     0.278 HD
ENDROOT
BRANCH   1   4
HETATM    4  C   UNL     1      -9.351   1.940 -33.521  1.00  0.00     0.252 C 
BRANCH   4   5
HETATM    5  C   UNL     1      -8.319   0.835 -33.677  1.00  0.00    -0.023 A 
HETATM    6  C   UNL     1      -8.025   0.344 -34.963  1.00  0.00     0.012 A 
HETATM    7  C   UNL     1      -7.059  -0.652 -35.156  1.00  0.00     0.037 A 
HETATM    8  C   UNL     1      -6.362  -1.170 -34.068  1.00  0.00     0.068 A 
HETATM    9  C   UNL     1      -6.649  -0.694 -32.789  1.00  0.00     0.037 A 
HETATM   10  C   UNL     1      -7.611   0.301 -32.590  1.00  0.00     0.012 A 
BRANCH   8  11
HETATM   11  O   UNL     1      -5.394  -2.132 -34.116  1.00  0.00    -0.356 OA
HETATM   12  C   UNL     1      -4.250  -1.942 -33.290  1.00  0.00     0.210 C 
ENDBRANCH   8  11
ENDBRANCH   4   5
BRANCH   4  13
HETATM   13  C   UNL     1     -10.759   1.504 -33.890  1.00  0.00    -0.023 A 
HETATM   14  C   UNL     1     -11.317   0.366 -33.279  1.00  0.00     0.009 A 
HETATM   15  C   UNL     1     -12.616  -0.042 -33.584  1.00  0.00     0.001 A 
HETATM   16  C   UNL     1     -13.375   0.675 -34.503  1.00  0.00     0.000 A 
HETATM   17  C   UNL     1     -12.836   1.798 -35.125  1.00  0.00     0.001 A 
HETATM   18  C   UNL     1     -11.536   2.210 -34.826  1.00  0.00     0.009 A 
ENDBRANCH   4  13
ENDBRANCH   1   4
BRANCH   1  19
HETATM   19  C   UNL     1      -9.048   4.467 -33.404  1.00  0.00     0.336 C 
BRANCH  19  20
HETATM   20  C   UNL     1      -7.653   5.058 -33.197  1.00  0.00     0.248 C 
HETATM   21  N   UNL     1      -6.619   4.180 -33.448  1.00  0.00    -0.326 N 
HETATM   22  H   UNL     1      -6.844   3.226 -33.710  1.00  0.00     0.169 HD
HETATM   23  O   UNL     1      -7.576   6.231 -32.833  1.00  0.00    -0.271 OA
BRANCH  21  24
HETATM   24  C   UNL     1      -5.233   4.455 -33.366  1.00  0.00     0.037 A 
HETATM   25  C   UNL     1      -4.465   4.240 -32.214  1.00  0.00     0.061 A 
HETATM   26  C   UNL     1      -3.127   4.561 -32.283  1.00  0.00     0.065 A 
HETATM   27  C   UNL     1      -2.538   5.076 -33.435  1.00  0.00     0.063 A 
HETATM   28  N   UNL     1      -2.140   4.459 -31.309  1.00  0.00    -0.306 N 
HETATM   29  N   UNL     1      -1.192   5.290 -33.171  1.00  0.00    -0.307 N 
HETATM   30  C   UNL     1      -3.256   5.299 -34.581  1.00  0.00     0.034 A 
HETATM   31  C   UNL     1      -0.926   4.911 -31.847  1.00  0.00     0.325 A 
HETATM   32  H   UNL     1      -0.490   5.657 -33.795  1.00  0.00     0.170 HD
HETATM   33  O   UNL     1       0.147   4.964 -31.275  1.00  0.00    -0.247 OA
HETATM   34  C   UNL     1      -4.622   4.983 -34.537  1.00  0.00     0.032 A 
HETATM   35  H   UNL     1      -2.236   4.127 -30.363  1.00  0.00     0.170 HD
ENDBRANCH  21  24
ENDBRANCH  19  20
ENDBRANCH   1  19
TORSDOF 7
ENDMDL
MODEL 6
REMARK VINA RESULT:      -8.9      2.955      4.249
REMARK  7 active torsions:
REMARK  status: ('A' for Active; 'I' for Inactive)
REMARK    1  A    between atoms: O_2  and  C_3 
REMARK    2  A    between atoms: C_6  and  C_7 
REMARK    3  A    between atoms: C_7  and  N_8 
REMARK    4  A    between atoms: C_7  and  C_25 
REMARK    5  A    between atoms: N_8  and  C_11 
REMARK    6  A    between atoms: C_11  and  C_12 
REMARK       I    between atoms: C_12  and  N_13 
REMARK    7  A    between atoms: N_13  and  C_14 
ROOT
HETATM    1  N   UNL     1      -4.288  -0.771 -32.249  1.00  0.00    -0.055 N 
HETATM    2  H   UNL     1      -5.022  -0.632 -31.535  1.00  0.00     0.278 HD
HETATM    3  H   UNL     1      -3.765  -1.581 -31.904  1.00  0.00     0.278 HD
ENDROOT
BRANCH   1   4
HETATM    4  C   UNL     1      -4.929  -1.075 -33.564  1.00  0.00     0.252 C 
BRANCH   4   5
HETATM    5  C   UNL     1      -6.311  -0.455 -33.690  1.00  0.00    -0.023 A 
HETATM    6  C   UNL     1      -6.732   0.041 -34.938  1.00  0.00     0.012 A 
HETATM    7  C   UNL     1      -8.008   0.593 -35.106  1.00  0.00     0.037 A 
HETATM    8  C   UNL     1      -8.892   0.653 -34.032  1.00  0.00     0.068 A 
HETATM    9  C   UNL     1      -8.483   0.168 -32.789  1.00  0.00     0.037 A 
HETATM   10  C   UNL     1      -7.211  -0.386 -32.616  1.00  0.00     0.012 A 
BRANCH   8  11
HETATM   11  O   UNL     1     -10.162   1.153 -34.060  1.00  0.00    -0.356 OA
HETATM   12  C   UNL     1     -10.312   2.523 -34.415  1.00  0.00     0.210 C 
ENDBRANCH   8  11
ENDBRANCH   4   5
BRANCH   4  13
HETATM   13  C   UNL     1      -4.903  -2.558 -33.890  1.00  0.00    -0.023 A 
HETATM   14  C   UNL     1      -5.942  -3.119 -34.656  1.00  0.00     0.009 A 
HETATM   15  C   UNL     1      -5.930  -4.475 -34.988  1.00  0.00     0.001 A 
HETATM   16  C   UNL     1      -4.887  -5.289 -34.559  1.00  0.00     0.000 A 
HETATM   17  C   UNL     1      -3.856  -4.754 -33.792  1.00  0.00     0.001 A 
HETATM   18  C   UNL     1      -3.863  -3.399 -33.455  1.00  0.00     0.009 A 
ENDBRANCH   4  13
ENDBRANCH   1   4
BRANCH   1  19
HETATM   19  C   UNL     1      -3.392   0.441 -32.210  1.00  0.00     0.336 C 
BRANCH  19  20
HETATM   20  C   UNL     1      -4.210   1.673 -31.820  1.00  0.00     0.248 C 
HETATM   21  N   UNL     1      -4.511   2.513 -32.871  1.00  0.00    -0.326 N 
HETATM   22  H   UNL     1      -4.154   2.285 -33.794  1.00  0.00     0.169 HD
HETATM   23  O   UNL     1      -4.516   1.805 -30.636  1.00  0.00    -0.271 OA
BRANCH  21  24
HETATM   24  C   UNL     1      -5.271   3.705 -32.815  1.00  0.00     0.037 A 
HETATM   25  C   UNL     1      -6.672   3.733 -32.797  1.00  0.00     0.061 A 
HETATM   26  C   UNL     1      -7.274   4.972 -32.748  1.00  0.00     0.065 A 
HETATM   27  C   UNL     1      -6.547   6.158 -32.716  1.00  0.00     0.063 A 
HETATM   28  N   UNL     1      -8.625   5.300 -32.725  1.00  0.00    -0.306 N 
HETATM   29  N   UNL     1      -7.447   7.214 -32.671  1.00  0.00    -0.307 N 
HETATM   30  C   UNL     1      -5.176   6.171 -32.732  1.00  0.00     0.034 A 
HETATM   31  C   UNL     1      -8.750   6.696 -32.677  1.00  0.00     0.325 A 
HETATM   32  H   UNL     1      -7.243   8.201 -32.642  1.00  0.00     0.170 HD
HETATM   33  O   UNL     1      -9.788   7.332 -32.648  1.00  0.00    -0.247 OA
HETATM   34  C   UNL     1      -4.538   4.923 -32.784  1.00  0.00     0.032 A 
HETATM   35  H   UNL     1      -9.415   4.674 -32.741  1.00  0.00     0.170 HD
ENDBRANCH  21  24
ENDBRANCH  19  20
ENDBRANCH   1  19
TORSDOF 7
ENDMDL
MODEL 7
REMARK VINA RESULT:      -8.9      4.513      9.736
REMARK  7 active torsions:
REMARK  status: ('A' for Active; 'I' for Inactive)
REMARK    1  A    between atoms: O_2  and  C_3 
REMARK    2  A    between atoms: C_6  and  C_7 
REMARK    3  A    between atoms: C_7  and  N_8 
REMARK    4  A    between atoms: C_7  and  C_25 
REMARK    5  A    between atoms: N_8  and  C_11 
REMARK    6  A    between atoms: C_11  and  C_12 
REMARK       I    between atoms: C_12  and  N_13 
REMARK    7  A    between atoms: N_13  and  C_14 
ROOT
HETATM    1  N   UNL     1      -7.822   1.006 -34.232  1.00  0.00    -0.055 N 
HETATM    2  H   UNL     1      -7.970   0.766 -35.227  1.00  0.00     0.278 HD
HETATM    3  H   UNL     1      -8.411   0.334 -33.731  1.00  0.00     0.278 HD
ENDROOT
BRANCH   1   4
HETATM    4  C   UNL     1      -6.382   0.811 -33.886  1.00  0.00     0.252 C 
BRANCH   4   5
HETATM    5  C   UNL     1      -5.949  -0.640 -34.012  1.00  0.00    -0.023 A 
HETATM    6  C   UNL     1      -6.838  -1.580 -34.566  1.00  0.00     0.012 A 
HETATM    7  C   UNL     1      -6.468  -2.921 -34.727  1.00  0.00     0.037 A 
HETATM    8  C   UNL     1      -5.199  -3.348 -34.347  1.00  0.00     0.068 A 
HETATM    9  C   UNL     1      -4.311  -2.426 -33.793  1.00  0.00     0.037 A 
HETATM   10  C   UNL     1      -4.674  -1.086 -33.630  1.00  0.00     0.012 A 
BRANCH   8  11
HETATM   11  O   UNL     1      -4.709  -4.618 -34.459  1.00  0.00    -0.356 OA
HETATM   12  C   UNL     1      -3.472  -4.895 -33.810  1.00  0.00     0.210 C 
ENDBRANCH   8  11
ENDBRANCH   4   5
BRANCH   4  13
HETATM   13  C   UNL     1      -6.020   1.433 -32.549  1.00  0.00    -0.023 A 
HETATM   14  C   UNL     1      -6.573   0.908 -31.366  1.00  0.00     0.009 A 
HETATM   15  C   UNL     1      -6.240   1.447 -30.122  1.00  0.00     0.001 A 
HETATM   16  C   UNL     1      -5.355   2.518 -30.041  1.00  0.00     0.000 A 
HETATM   17  C   UNL     1      -4.805   3.056 -31.201  1.00  0.00     0.001 A 
HETATM   18  C   UNL     1      -5.137   2.523 -32.448  1.00  0.00     0.009 A 
ENDBRANCH   4  13
ENDBRANCH   1   4
BRANCH   1  19
HETATM   19  C   UNL     1      -8.375   2.393 -34.021  1.00  0.00     0.336 C 
BRANCH  19  20
HETATM   20  C   UNL     1      -9.716   2.305 -33.292  1.00  0.00     0.248 C 
HETATM   21  N   UNL     1     -10.817   2.296 -34.122  1.00  0.00    -0.326 N 
HETATM   22  H   UNL     1     -10.672   2.378 -35.124  1.00  0.00     0.169 HD
HETATM   23  O   UNL     1      -9.697   2.257 -32.062  1.00  0.00    -0.271 OA
BRANCH  21  24
HETATM   24  C   UNL     1     -12.174   2.196 -33.734  1.00  0.00     0.037 A 
HETATM   25  C   UNL     1     -12.921   3.272 -33.237  1.00  0.00     0.061 A 
HETATM   26  C   UNL     1     -14.231   3.021 -32.893  1.00  0.00     0.065 A 
HETATM   27  C   UNL     1     -14.813   1.764 -33.024  1.00  0.00     0.063 A 
HETATM   28  N   UNL     1     -15.193   3.884 -32.378  1.00  0.00    -0.306 N 
HETATM   29  N   UNL     1     -16.130   1.851 -32.592  1.00  0.00    -0.307 N 
HETATM   30  C   UNL     1     -14.115   0.687 -33.506  1.00  0.00     0.034 A 
HETATM   31  C   UNL     1     -16.384   3.168 -32.184  1.00  0.00     0.325 A 
HETATM   32  H   UNL     1     -16.819   1.116 -32.558  1.00  0.00     0.170 HD
HETATM   33  O   UNL     1     -17.431   3.607 -31.746  1.00  0.00    -0.247 OA
HETATM   34  C   UNL     1     -12.778   0.915 -33.862  1.00  0.00     0.032 A 
HETATM   35  H   UNL     1     -15.095   4.863 -32.162  1.00  0.00     0.170 HD
ENDBRANCH  21  24
ENDBRANCH  19  20
ENDBRANCH   1  19
TORSDOF 7
ENDMDL
MODEL 8
REMARK VINA RESULT:      -8.9      1.995      4.507
REMARK  7 active torsions:
REMARK  status: ('A' for Active; 'I' for Inactive)
REMARK    1  A    between atoms: O_2  and  C_3 
REMARK    2  A    between atoms: C_6  and  C_7 
REMARK    3  A    between atoms: C_7  and  N_8 
REMARK    4  A    between atoms: C_7  and  C_25 
REMARK    5  A    between atoms: N_8  and  C_11 
REMARK    6  A    between atoms: C_11  and  C_12 
REMARK       I    between atoms: C_12  and  N_13 
REMARK    7  A    between atoms: N_13  and  C_14 
ROOT
HETATM    1  N   UNL     1      -7.453   2.698 -32.996  1.00  0.00    -0.055 N 
HETATM    2  H   UNL     1      -8.173   3.429 -33.119  1.00  0.00     0.278 HD
HETATM    3  H   UNL     1      -6.970   2.976 -32.136  1.00  0.00     0.278 HD
ENDROOT
BRANCH   1   4
HETATM    4  C   UNL     1      -8.118   1.372 -32.824  1.00  0.00     0.252 C 
BRANCH   4   5
HETATM    5  C   UNL     1      -7.261   0.224 -33.331  1.00  0.00    -0.023 A 
HETATM    6  C   UNL     1      -6.188  -0.235 -32.544  1.00  0.00     0.012 A 
HETATM    7  C   UNL     1      -5.392  -1.310 -32.960  1.00  0.00     0.037 A 
HETATM    8  C   UNL     1      -5.657  -1.952 -34.166  1.00  0.00     0.068 A 
HETATM    9  C   UNL     1      -6.715  -1.502 -34.956  1.00  0.00     0.037 A 
HETATM   10  C   UNL     1      -7.515  -0.431 -34.546  1.00  0.00     0.012 A 
BRANCH   8  11
HETATM   11  O   UNL     1      -4.969  -3.013 -34.683  1.00  0.00    -0.356 OA
HETATM   12  C   UNL     1      -5.709  -4.201 -34.943  1.00  0.00     0.210 C 
ENDBRANCH   8  11
ENDBRANCH   4   5
BRANCH   4  13
HETATM   13  C   UNL     1      -9.532   1.359 -33.380  1.00  0.00    -0.023 A 
HETATM   14  C   UNL     1     -10.413   0.324 -33.014  1.00  0.00     0.009 A 
HETATM   15  C   UNL     1     -11.723   0.300 -33.493  1.00  0.00     0.001 A 
HETATM   16  C   UNL     1     -12.172   1.305 -34.345  1.00  0.00     0.000 A 
HETATM   17  C   UNL     1     -11.312   2.331 -34.726  1.00  0.00     0.001 A 
HETATM   18  C   UNL     1      -9.999   2.358 -34.251  1.00  0.00     0.009 A 
ENDBRANCH   4  13
ENDBRANCH   1   4
BRANCH   1  19
HETATM   19  C   UNL     1      -6.494   2.816 -34.154  1.00  0.00     0.336 C 
BRANCH  19  20
HETATM   20  C   UNL     1      -5.470   3.913 -33.863  1.00  0.00     0.248 C 
HETATM   21  N   UNL     1      -4.386   3.499 -33.118  1.00  0.00    -0.326 N 
HETATM   22  H   UNL     1      -4.357   2.537 -32.794  1.00  0.00     0.169 HD
HETATM   23  O   UNL     1      -5.698   5.040 -34.304  1.00  0.00    -0.271 OA
BRANCH  21  24
HETATM   24  C   UNL     1      -3.277   4.284 -32.723  1.00  0.00     0.037 A 
HETATM   25  C   UNL     1      -3.059   4.713 -31.407  1.00  0.00     0.061 A 
HETATM   26  C   UNL     1      -1.937   5.478 -31.174  1.00  0.00     0.065 A 
HETATM   27  C   UNL     1      -1.042   5.823 -32.183  1.00  0.00     0.063 A 
HETATM   28  N   UNL     1      -1.476   6.038 -29.987  1.00  0.00    -0.306 N 
HETATM   29  N   UNL     1      -0.032   6.592 -31.620  1.00  0.00    -0.307 N 
HETATM   30  C   UNL     1      -1.221   5.421 -33.482  1.00  0.00     0.034 A 
HETATM   31  C   UNL     1      -0.289   6.737 -30.249  1.00  0.00     0.325 A 
HETATM   32  H   UNL     1       0.766   6.999 -32.082  1.00  0.00     0.170 HD
HETATM   33  O   UNL     1       0.386   7.350 -29.442  1.00  0.00    -0.247 OA
HETATM   34  C   UNL     1      -2.358   4.643 -33.746  1.00  0.00     0.032 A 
HETATM   35  H   UNL     1      -1.894   5.980 -29.072  1.00  0.00     0.170 HD
ENDBRANCH  21  24
ENDBRANCH  19  20
ENDBRANCH   1  19
TORSDOF 7
ENDMDL
MODEL 9
REMARK VINA RESULT:      -8.8      3.532      9.492
REMARK  7 active torsions:
REMARK  status: ('A' for Active; 'I' for Inactive)
REMARK    1  A    between atoms: O_2  and  C_3 
REMARK    2  A    between atoms: C_6  and  C_7 
REMARK    3  A    between atoms: C_7  and  N_8 
REMARK    4  A    between atoms: C_7  and  C_25 
REMARK    5  A    between atoms: N_8  and  C_11 
REMARK    6  A    between atoms: C_11  and  C_12 
REMARK       I    between atoms: C_12  and  N_13 
REMARK    7  A    between atoms: N_13  and  C_14 
ROOT
HETATM    1  N   UNL     1      -7.292   4.133 -32.290  1.00  0.00    -0.055 N 
HETATM    2  H   UNL     1      -6.872   5.049 -32.521  1.00  0.00     0.278 HD
HETATM    3  H   UNL     1      -7.868   3.918 -33.109  1.00  0.00     0.278 HD
ENDROOT
BRANCH   1   4
HETATM    4  C   UNL     1      -6.208   3.119 -32.123  1.00  0.00     0.252 C 
BRANCH   4   5
HETATM    5  C   UNL     1      -4.832   3.688 -32.431  1.00  0.00    -0.023 A 
HETATM    6  C   UNL     1      -3.775   3.461 -31.530  1.00  0.00     0.012 A 
HETATM    7  C   UNL     1      -2.486   3.941 -31.789  1.00  0.00     0.037 A 
HETATM    8  C   UNL     1      -2.225   4.649 -32.959  1.00  0.00     0.068 A 
HETATM    9  C   UNL     1      -3.266   4.883 -33.857  1.00  0.00     0.037 A 
HETATM   10  C   UNL     1      -4.555   4.406 -33.604  1.00  0.00     0.012 A 
BRANCH   8  11
HETATM   11  O   UNL     1      -1.017   5.162 -33.338  1.00  0.00    -0.356 OA
HETATM   12  C   UNL     1      -1.020   6.117 -34.394  1.00  0.00     0.210 C 
ENDBRANCH   8  11
ENDBRANCH   4   5
BRANCH   4  13
HETATM   13  C   UNL     1      -6.506   1.828 -32.866  1.00  0.00    -0.023 A 
HETATM   14  C   UNL     1      -6.961   1.881 -34.196  1.00  0.00     0.009 A 
HETATM   15  C   UNL     1      -7.220   0.709 -34.908  1.00  0.00     0.001 A 
HETATM   16  C   UNL     1      -7.033  -0.530 -34.303  1.00  0.00     0.000 A 
HETATM   17  C   UNL     1      -6.594  -0.602 -32.985  1.00  0.00     0.001 A 
HETATM   18  C   UNL     1      -6.335   0.567 -32.267  1.00  0.00     0.009 A 
ENDBRANCH   4  13
ENDBRANCH   1   4
BRANCH   1  19
HETATM   19  C   UNL     1      -8.195   4.344 -31.100  1.00  0.00     0.336 C 
BRANCH  19  20
HETATM   20  C   UNL     1      -9.426   3.445 -31.223  1.00  0.00     0.248 C 
HETATM   21  N   UNL     1      -9.745   3.090 -32.517  1.00  0.00    -0.326 N 
HETATM   22  H   UNL     1      -9.183   3.462 -33.276  1.00  0.00     0.169 HD
HETATM   23  O   UNL     1     -10.010   3.130 -30.187  1.00  0.00    -0.271 OA
BRANCH  21  24
HETATM   24  C   UNL     1     -10.807   2.252 -32.931  1.00  0.00     0.037 A 
HETATM   25  C   UNL     1     -12.085   2.723 -33.259  1.00  0.00     0.061 A 
HETATM   26  C   UNL     1     -13.021   1.786 -33.638  1.00  0.00     0.065 A 
HETATM   27  C   UNL     1     -12.736   0.425 -33.703  1.00  0.00     0.063 A 
HETATM   28  N   UNL     1     -14.351   1.960 -34.008  1.00  0.00    -0.306 N 
HETATM   29  N   UNL     1     -13.885  -0.237 -34.114  1.00  0.00    -0.307 N 
HETATM   30  C   UNL     1     -11.497  -0.074 -33.391  1.00  0.00     0.034 A 
HETATM   31  C   UNL     1     -14.904   0.706 -34.308  1.00  0.00     0.325 A 
HETATM   32  H   UNL     1     -14.011  -1.227 -34.257  1.00  0.00     0.170 HD
HETATM   33  O   UNL     1     -16.046   0.484 -34.666  1.00  0.00    -0.247 OA
HETATM   34  C   UNL     1     -10.527   0.860 -32.999  1.00  0.00     0.032 A 
HETATM   35  H   UNL     1     -14.870   2.822 -34.064  1.00  0.00     0.170 HD
ENDBRANCH  21  24
ENDBRANCH  19  20
ENDBRANCH   1  19
TORSDOF 7
ENDMDL
MODEL 10
REMARK VINA RESULT:      -8.8      1.758      2.294
REMARK  7 active torsions:
REMARK  status: ('A' for Active; 'I' for Inactive)
REMARK    1  A    between atoms: O_2  and  C_3 
REMARK    2  A    between atoms: C_6  and  C_7 
REMARK    3  A    between atoms: C_7  and  N_8 
REMARK    4  A    between atoms: C_7  and  C_25 
REMARK    5  A    between atoms: N_8  and  C_11 
REMARK    6  A    between atoms: C_11  and  C_12 
REMARK       I    between atoms: C_12  and  N_13 
REMARK    7  A    between atoms: N_13  and  C_14 
ROOT
HETATM    1  N   UNL     1      -6.489   2.382 -33.453  1.00  0.00    -0.055 N 
HETATM    2  H   UNL     1      -6.819   2.308 -32.476  1.00  0.00     0.278 HD
HETATM    3  H   UNL     1      -5.476   2.248 -33.376  1.00  0.00     0.278 HD
ENDROOT
BRANCH   1   4
HETATM    4  C   UNL     1      -7.107   1.293 -34.267  1.00  0.00     0.252 C 
BRANCH   4   5
HETATM    5  C   UNL     1      -8.591   1.129 -33.982  1.00  0.00    -0.023 A 
HETATM    6  C   UNL     1      -9.512   1.996 -34.601  1.00  0.00     0.012 A 
HETATM    7  C   UNL     1     -10.890   1.861 -34.390  1.00  0.00     0.037 A 
HETATM    8  C   UNL     1     -11.375   0.852 -33.563  1.00  0.00     0.068 A 
HETATM    9  C   UNL     1     -10.472  -0.010 -32.942  1.00  0.00     0.037 A 
HETATM   10  C   UNL     1      -9.095   0.119 -33.149  1.00  0.00     0.012 A 
BRANCH   8  11
HETATM   11  O   UNL     1     -12.688   0.603 -33.281  1.00  0.00    -0.356 OA
HETATM   12  C   UNL     1     -13.593   0.567 -34.380  1.00  0.00     0.210 C 
ENDBRANCH   8  11
ENDBRANCH   4   5
BRANCH   4  13
HETATM   13  C   UNL     1      -6.330  -0.009 -34.175  1.00  0.00    -0.023 A 
HETATM   14  C   UNL     1      -5.251  -0.112 -33.278  1.00  0.00     0.009 A 
HETATM   15  C   UNL     1      -4.535  -1.304 -33.158  1.00  0.00     0.001 A 
HETATM   16  C   UNL     1      -4.880  -2.406 -33.933  1.00  0.00     0.000 A 
HETATM   17  C   UNL     1      -5.938  -2.320 -34.834  1.00  0.00     0.001 A 
HETATM   18  C   UNL     1      -6.657  -1.129 -34.960  1.00  0.00     0.009 A 
ENDBRANCH   4  13
ENDBRANCH   1   4
BRANCH   1  19
HETATM   19  C   UNL     1      -6.762   3.792 -33.911  1.00  0.00     0.336 C 
BRANCH  19  20
HETATM   20  C   UNL     1      -5.652   4.718 -33.415  1.00  0.00     0.248 C 
HETATM   21  N   UNL     1      -4.478   4.074 -33.083  1.00  0.00    -0.326 N 
HETATM   22  H   UNL     1      -4.441   3.062 -33.156  1.00  0.00     0.169 HD
HETATM   23  O   UNL     1      -5.896   5.923 -33.352  1.00  0.00    -0.271 OA
BRANCH  21  24
HETATM   24  C   UNL     1      -3.281   4.672 -32.624  1.00  0.00     0.037 A 
HETATM   25  C   UNL     1      -3.058   5.039 -31.290  1.00  0.00     0.061 A 
HETATM   26  C   UNL     1      -1.844   5.619 -30.993  1.00  0.00     0.065 A 
HETATM   27  C   UNL     1      -0.864   5.841 -31.956  1.00  0.00     0.063 A 
HETATM   28  N   UNL     1      -1.357   6.081 -29.775  1.00  0.00    -0.306 N 
HETATM   29  N   UNL     1       0.225   6.436 -31.333  1.00  0.00    -0.307 N 
HETATM   30  C   UNL     1      -1.045   5.495 -33.270  1.00  0.00     0.034 A 
HETATM   31  C   UNL     1      -0.066   6.594 -29.971  1.00  0.00     0.325 A 
HETATM   32  H   UNL     1       1.095   6.725 -31.752  1.00  0.00     0.170 HD
HETATM   33  O   UNL     1       0.658   7.082 -29.122  1.00  0.00    -0.247 OA
HETATM   34  C   UNL     1      -2.273   4.905 -33.600  1.00  0.00     0.032 A 
HETATM   35  H   UNL     1      -1.818   6.071 -28.879  1.00  0.00     0.170 HD
ENDBRANCH  21  24
ENDBRANCH  19  20
ENDBRANCH   1  19
TORSDOF 7
ENDMDL
