MODEL 1
REMARK VINA RESULT:      -9.6      0.000      0.000
REMARK  6 active torsions:
REMARK  status: ('A' for Active; 'I' for Inactive)
REMARK    1  A    between atoms: C_4  and  C_5 
REMARK    2  A    between atoms: C_5  and  N_6 
REMARK    3  A    between atoms: C_10  and  C_11 
REMARK    4  A    between atoms: C_11  and  C_12 
REMARK    5  A    between atoms: N_21  and  C_22 
REMARK    6  A    between atoms: C_22  and  C_23 
ROOT
HETATM    1  C   UNL     1      -5.773   0.397 -32.480  1.00  0.00     0.164 A 
HETATM    2  N   UNL     1      -5.680   1.528 -33.393  1.00  0.00    -0.319 N 
HETATM    3  C   UNL     1      -6.864   2.220 -33.487  1.00  0.00     0.326 A 
HETATM    4  O   UNL     1      -7.010   3.167 -34.240  1.00  0.00    -0.247 OA
HETATM    5  N   UNL     1      -7.751   1.697 -32.606  1.00  0.00    -0.265 N 
HETATM    6  C   UNL     1      -7.231   0.586 -32.002  1.00  0.00     0.263 A 
HETATM    7  O   UNL     1      -7.795  -0.097 -31.158  1.00  0.00    -0.270 OA
HETATM    8  H   UNL     1      -5.182   1.409 -34.272  1.00  0.00     0.166 HD
ENDROOT
BRANCH   1   9
HETATM    9  C   UNL     1      -4.783   0.524 -31.264  1.00  0.00     0.033 C 
HETATM   10  C   UNL     1      -5.308   1.333 -30.062  1.00  0.00     0.036 C 
HETATM   11  C   UNL     1      -5.408   2.830 -30.313  1.00  0.00     0.235 C 
HETATM   12  N   UNL     1      -4.104   3.398 -30.826  1.00  0.00    -0.067 N 
HETATM   13  H   UNL     1      -3.478   3.437 -30.013  1.00  0.00     0.280 HD
HETATM   14  C   UNL     1      -3.409   2.595 -31.903  1.00  0.00     0.235 C 
HETATM   15  C   UNL     1      -3.395   1.106 -31.593  1.00  0.00     0.036 C 
BRANCH  12  16
HETATM   16  C   UNL     1      -4.268   4.839 -31.312  1.00  0.00     0.274 C 
BRANCH  16  17
HETATM   17  C   UNL     1      -3.086   5.409 -32.053  1.00  0.00    -0.026 A 
HETATM   18  C   UNL     1      -1.953   5.792 -31.301  1.00  0.00     0.016 A 
HETATM   19  C   UNL     1      -0.806   6.302 -31.915  1.00  0.00    -0.061 A 
HETATM   20  C   UNL     1       0.380   6.733 -31.100  1.00  0.00     0.048 C 
HETATM   21  C   UNL     1      -0.797   6.454 -33.300  1.00  0.00     0.007 A 
HETATM   22  C   UNL     1      -1.911   6.091 -34.059  1.00  0.00     0.008 A 
HETATM   23  C   UNL     1      -3.061   5.557 -33.454  1.00  0.00    -0.054 A 
HETATM   24  C   UNL     1      -4.249   5.251 -34.325  1.00  0.00     0.049 C 
ENDBRANCH  16  17
ENDBRANCH  12  16
ENDBRANCH   1   9
BRANCH   1  25
HETATM   25  C   UNL     1      -5.550  -0.885 -33.275  1.00  0.00     0.072 A 
HETATM   26  N   UNL     1      -4.390  -1.550 -32.981  1.00  0.00    -0.262 NA
HETATM   27  C   UNL     1      -4.131  -2.691 -33.660  1.00  0.00     0.117 A 
HETATM   28  C   UNL     1      -4.973  -3.219 -34.621  1.00  0.00     0.019 A 
HETATM   29  C   UNL     1      -6.153  -2.544 -34.900  1.00  0.00     0.003 A 
HETATM   30  C   UNL     1      -6.455  -1.368 -34.216  1.00  0.00     0.030 A 
ENDBRANCH   1  25
BRANCH   5  31
HETATM   31  C   UNL     1      -9.019   2.315 -32.256  1.00  0.00     0.168 C 
BRANCH  31  32
HETATM   32  C   UNL     1     -10.096   1.996 -33.303  1.00  0.00     0.140 C 
HETATM   33  O   UNL     1     -10.501   0.607 -33.237  1.00  0.00    -0.384 OA
HETATM   34  C   UNL     1     -11.911   0.542 -33.521  1.00  0.00     0.168 C 
HETATM   35  C   UNL     1     -12.365   1.945 -33.871  1.00  0.00     0.029 C 
HETATM   36  C   UNL     1     -11.371   2.800 -33.125  1.00  0.00     0.036 C 
ENDBRANCH  31  32
ENDBRANCH   5  31
TORSDOF 6
ENDMDL
MODEL 2
REMARK VINA RESULT:      -9.4      1.756      2.346
REMARK  6 active torsions:
REMARK  status: ('A' for Active; 'I' for Inactive)
REMARK    1  A    between atoms: C_4  and  C_5 
REMARK    2  A    between atoms: C_5  and  N_6 
REMARK    3  A    between atoms: C_10  and  C_11 
REMARK    4  A    between atoms: C_11  and  C_12 
REMARK    5  A    between atoms: N_21  and  C_22 
REMARK    6  A    between atoms: C_22  and  C_23 
ROOT
HETATM    1  C   UNL     1      -6.981   2.227 -32.432  1.00  0.00     0.164 A 
HETATM    2  N   UNL     1      -6.633   3.348 -33.293  1.00  0.00    -0.319 N 
HETATM    3  C   UNL     1      -7.657   4.260 -33.401  1.00  0.00     0.326 A 
HETATM    4  O   UNL     1      -7.585   5.242 -34.119  1.00  0.00    -0.247 OA
HETATM    5  N   UNL     1      -8.665   3.889 -32.575  1.00  0.00    -0.265 N 
HETATM    6  C   UNL     1      -8.394   2.679 -31.999  1.00  0.00     0.263 A 
HETATM    7  O   UNL     1      -9.115   2.090 -31.205  1.00  0.00    -0.270 OA
HETATM    8  H   UNL     1      -6.129   3.165 -34.157  1.00  0.00     0.166 HD
ENDROOT
BRANCH   1   9
HETATM    9  C   UNL     1      -6.039   2.118 -31.177  1.00  0.00     0.033 C 
HETATM   10  C   UNL     1      -5.652   3.457 -30.518  1.00  0.00     0.036 C 
HETATM   11  C   UNL     1      -4.689   4.301 -31.339  1.00  0.00     0.235 C 
HETATM   12  N   UNL     1      -3.461   3.515 -31.740  1.00  0.00    -0.067 N 
HETATM   13  H   UNL     1      -2.889   3.441 -30.891  1.00  0.00     0.280 HD
HETATM   14  C   UNL     1      -3.709   2.114 -32.252  1.00  0.00     0.235 C 
HETATM   15  C   UNL     1      -4.717   1.359 -31.400  1.00  0.00     0.036 C 
BRANCH  12  16
HETATM   16  C   UNL     1      -2.616   4.274 -32.764  1.00  0.00     0.274 C 
BRANCH  16  17
HETATM   17  C   UNL     1      -1.553   5.173 -32.184  1.00  0.00    -0.026 A 
HETATM   18  C   UNL     1      -0.847   4.719 -31.048  1.00  0.00     0.016 A 
HETATM   19  C   UNL     1       0.171   5.479 -30.468  1.00  0.00    -0.061 A 
HETATM   20  C   UNL     1       0.893   4.998 -29.242  1.00  0.00     0.048 C 
HETATM   21  C   UNL     1       0.476   6.723 -31.016  1.00  0.00     0.007 A 
HETATM   22  C   UNL     1      -0.218   7.193 -32.134  1.00  0.00     0.008 A 
HETATM   23  C   UNL     1      -1.229   6.428 -32.737  1.00  0.00    -0.054 A 
HETATM   24  C   UNL     1      -1.981   7.024 -33.896  1.00  0.00     0.049 C 
ENDBRANCH  16  17
ENDBRANCH  12  16
ENDBRANCH   1   9
BRANCH   1  25
HETATM   25  C   UNL     1      -6.974   0.953 -33.270  1.00  0.00     0.072 A 
HETATM   26  N   UNL     1      -6.962   1.156 -34.624  1.00  0.00    -0.262 NA
HETATM   27  C   UNL     1      -6.965   0.063 -35.423  1.00  0.00     0.117 A 
HETATM   28  C   UNL     1      -6.970  -1.234 -34.946  1.00  0.00     0.019 A 
HETATM   29  C   UNL     1      -6.967  -1.427 -33.571  1.00  0.00     0.003 A 
HETATM   30  C   UNL     1      -6.959  -0.325 -32.719  1.00  0.00     0.030 A 
ENDBRANCH   1  25
BRANCH   5  31
HETATM   31  C   UNL     1      -9.804   4.729 -32.246  1.00  0.00     0.168 C 
BRANCH  31  32
HETATM   32  C   UNL     1     -11.024   4.366 -33.105  1.00  0.00     0.140 C 
HETATM   33  O   UNL     1     -10.664   3.460 -34.177  1.00  0.00    -0.384 OA
HETATM   34  C   UNL     1     -11.760   2.547 -34.372  1.00  0.00     0.168 C 
HETATM   35  C   UNL     1     -12.878   2.979 -33.443  1.00  0.00     0.029 C 
HETATM   36  C   UNL     1     -12.124   3.664 -32.330  1.00  0.00     0.036 C 
ENDBRANCH  31  32
ENDBRANCH   5  31
TORSDOF 6
ENDMDL
MODEL 3
REMARK VINA RESULT:      -9.3      2.893      7.387
REMARK  6 active torsions:
REMARK  status: ('A' for Active; 'I' for Inactive)
REMARK    1  A    between atoms: C_4  and  C_5 
REMARK    2  A    between atoms: C_5  and  N_6 
REMARK    3  A    between atoms: C_10  and  C_11 
REMARK    4  A    between atoms: C_11  and  C_12 
REMARK    5  A    between atoms: N_21  and  C_22 
REMARK    6  A    between atoms: C_22  and  C_23 
ROOT
HETATM    1  C   UNL     1      -9.412   3.074 -32.796  1.00  0.00     0.164 A 
HETATM    2  N   UNL     1      -8.286   3.219 -33.709  1.00  0.00    -0.319 N 
HETATM    3  C   UNL     1      -7.612   4.403 -33.521  1.00  0.00     0.326 A 
HETATM    4  O   UNL     1      -6.673   4.739 -34.221  1.00  0.00    -0.247 OA
HETATM    5  N   UNL     1      -8.143   5.047 -32.454  1.00  0.00    -0.265 N 
HETATM    6  C   UNL     1      -9.241   4.380 -31.987  1.00  0.00     0.263 A 
HETATM    7  O   UNL     1      -9.927   4.716 -31.030  1.00  0.00    -0.270 OA
HETATM    8  H   UNL     1      -8.403   2.941 -34.680  1.00  0.00     0.166 HD
ENDROOT
BRANCH   1   9
HETATM    9  C   UNL     1      -9.261   1.827 -31.851  1.00  0.00     0.033 C 
HETATM   10  C   UNL     1      -7.919   1.718 -31.101  1.00  0.00     0.036 C 
HETATM   11  C   UNL     1      -6.736   1.361 -31.988  1.00  0.00     0.235 C 
HETATM   12  N   UNL     1      -7.006   0.117 -32.804  1.00  0.00    -0.067 N 
HETATM   13  H   UNL     1      -6.928  -0.668 -32.148  1.00  0.00     0.280 HD
HETATM   14  C   UNL     1      -8.367   0.037 -33.459  1.00  0.00     0.235 C 
HETATM   15  C   UNL     1      -9.485   0.455 -32.517  1.00  0.00     0.036 C 
BRANCH  12  16
HETATM   16  C   UNL     1      -5.931  -0.103 -33.869  1.00  0.00     0.274 C 
BRANCH  16  17
HETATM   17  C   UNL     1      -5.380  -1.504 -33.949  1.00  0.00    -0.026 A 
HETATM   18  C   UNL     1      -6.069  -2.444 -34.748  1.00  0.00     0.016 A 
HETATM   19  C   UNL     1      -5.608  -3.754 -34.897  1.00  0.00    -0.061 A 
HETATM   20  C   UNL     1      -6.367  -4.751 -35.724  1.00  0.00     0.048 C 
HETATM   21  C   UNL     1      -4.452  -4.140 -34.221  1.00  0.00     0.007 A 
HETATM   22  C   UNL     1      -3.763  -3.228 -33.419  1.00  0.00     0.008 A 
HETATM   23  C   UNL     1      -4.206  -1.903 -33.279  1.00  0.00    -0.054 A 
HETATM   24  C   UNL     1      -3.454  -0.993 -32.347  1.00  0.00     0.049 C 
ENDBRANCH  16  17
ENDBRANCH  12  16
ENDBRANCH   1   9
BRANCH   1  25
HETATM   25  C   UNL     1     -10.695   3.025 -33.617  1.00  0.00     0.072 A 
HETATM   26  N   UNL     1     -11.818   2.688 -32.910  1.00  0.00    -0.262 NA
HETATM   27  C   UNL     1     -12.989   2.619 -33.586  1.00  0.00     0.117 A 
HETATM   28  C   UNL     1     -13.109   2.875 -34.939  1.00  0.00     0.019 A 
HETATM   29  C   UNL     1     -11.966   3.231 -35.642  1.00  0.00     0.003 A 
HETATM   30  C   UNL     1     -10.745   3.317 -34.978  1.00  0.00     0.030 A 
ENDBRANCH   1  25
BRANCH   5  31
HETATM   31  C   UNL     1      -7.541   6.206 -31.815  1.00  0.00     0.168 C 
BRANCH  31  32
HETATM   32  C   UNL     1      -6.608   5.783 -30.672  1.00  0.00     0.140 C 
HETATM   33  O   UNL     1      -5.216   5.906 -31.054  1.00  0.00    -0.384 OA
HETATM   34  C   UNL     1      -4.475   6.333 -29.896  1.00  0.00     0.168 C 
HETATM   35  C   UNL     1      -5.443   6.376 -28.731  1.00  0.00     0.029 C 
HETATM   36  C   UNL     1      -6.762   6.626 -29.420  1.00  0.00     0.036 C 
ENDBRANCH  31  32
ENDBRANCH   5  31
TORSDOF 6
ENDMDL
MODEL 4
REMARK VINA RESULT:      -9.2      2.169      7.616
REMARK  6 active torsions:
REMARK  status: ('A' for Active; 'I' for Inactive)
REMARK    1  A    between atoms: C_4  and  C_5 
REMARK    2  A    between atoms: C_5  and  N_6 
REMARK    3  A    between atoms: C_10  and  C_11 
REMARK    4  A    between atoms: C_11  and  C_12 
REMARK    5  A    between atoms: N_21  and  C_22 
REMARK    6  A    between atoms: C_22  and  C_23 
ROOT
HETATM    1  C   UNL     1      -6.726   3.468 -31.653  1.00  0.00     0.164 A 
HETATM    2  N   UNL     1      -6.389   3.292 -33.059  1.00  0.00    -0.319 N 
HETATM    3  C   UNL     1      -5.684   4.359 -33.563  1.00  0.00     0.326 A 
HETATM    4  O   UNL     1      -5.354   4.431 -34.734  1.00  0.00    -0.247 OA
HETATM    5  N   UNL     1      -5.417   5.226 -32.556  1.00  0.00    -0.265 N 
HETATM    6  C   UNL     1      -6.032   4.826 -31.402  1.00  0.00     0.263 A 
HETATM    7  O   UNL     1      -5.971   5.403 -30.325  1.00  0.00    -0.270 OA
HETATM    8  H   UNL     1      -7.090   2.906 -33.687  1.00  0.00     0.166 HD
ENDROOT
BRANCH   1   9
HETATM    9  C   UNL     1      -6.091   2.357 -30.739  1.00  0.00     0.033 C 
HETATM   10  C   UNL     1      -4.570   2.157 -30.895  1.00  0.00     0.036 C 
HETATM   11  C   UNL     1      -4.158   1.507 -32.207  1.00  0.00     0.235 C 
HETATM   12  N   UNL     1      -4.905   0.216 -32.449  1.00  0.00    -0.067 N 
HETATM   13  H   UNL     1      -4.483  -0.473 -31.817  1.00  0.00     0.280 HD
HETATM   14  C   UNL     1      -6.392   0.247 -32.170  1.00  0.00     0.235 C 
HETATM   15  C   UNL     1      -6.717   0.954 -30.863  1.00  0.00     0.036 C 
BRANCH  12  16
HETATM   16  C   UNL     1      -4.680  -0.309 -33.868  1.00  0.00     0.274 C 
BRANCH  16  17
HETATM   17  C   UNL     1      -5.156  -1.717 -34.119  1.00  0.00    -0.026 A 
HETATM   18  C   UNL     1      -4.276  -2.779 -33.812  1.00  0.00     0.016 A 
HETATM   19  C   UNL     1      -4.651  -4.113 -33.989  1.00  0.00    -0.061 A 
HETATM   20  C   UNL     1      -3.694  -5.232 -33.687  1.00  0.00     0.048 C 
HETATM   21  C   UNL     1      -5.916  -4.393 -34.501  1.00  0.00     0.007 A 
HETATM   22  C   UNL     1      -6.796  -3.357 -34.819  1.00  0.00     0.008 A 
HETATM   23  C   UNL     1      -6.437  -2.013 -34.626  1.00  0.00    -0.054 A 
HETATM   24  C   UNL     1      -7.407  -0.946 -35.053  1.00  0.00     0.049 C 
ENDBRANCH  16  17
ENDBRANCH  12  16
ENDBRANCH   1   9
BRANCH   1  25
HETATM   25  C   UNL     1      -8.245   3.523 -31.524  1.00  0.00     0.072 A 
HETATM   26  N   UNL     1      -8.931   3.225 -32.670  1.00  0.00    -0.262 NA
HETATM   27  C   UNL     1     -10.283   3.266 -32.622  1.00  0.00     0.117 A 
HETATM   28  C   UNL     1     -10.999   3.581 -31.483  1.00  0.00     0.019 A 
HETATM   29  C   UNL     1     -10.293   3.867 -30.322  1.00  0.00     0.003 A 
HETATM   30  C   UNL     1      -8.900   3.829 -30.335  1.00  0.00     0.030 A 
ENDBRANCH   1  25
BRANCH   5  31
HETATM   31  C   UNL     1      -4.494   6.343 -32.661  1.00  0.00     0.168 C 
BRANCH  31  32
HETATM   32  C   UNL     1      -3.054   5.852 -32.868  1.00  0.00     0.140 C 
HETATM   33  O   UNL     1      -2.173   6.942 -33.234  1.00  0.00    -0.384 OA
HETATM   34  C   UNL     1      -0.892   6.700 -32.621  1.00  0.00     0.168 C 
HETATM   35  C   UNL     1      -0.969   5.353 -31.932  1.00  0.00     0.029 C 
HETATM   36  C   UNL     1      -2.441   5.232 -31.625  1.00  0.00     0.036 C 
ENDBRANCH  31  32
ENDBRANCH   5  31
TORSDOF 6
ENDMDL
MODEL 5
REMARK VINA RESULT:      -9.2      2.154      7.650
REMARK  6 active torsions:
REMARK  status: ('A' for Active; 'I' for Inactive)
REMARK    1  A    between atoms: C_4  and  C_5 
REMARK    2  A    between atoms: C_5  and  N_6 
REMARK    3  A    between atoms: C_10  and  C_11 
REMARK    4  A    between atoms: C_11  and  C_12 
REMARK    5  A    between atoms: N_21  and  C_22 
REMARK    6  A    between atoms: C_22  and  C_23 
ROOT
HETATM    1  C   UNL     1      -5.864   3.025 -32.970  1.00  0.00     0.164 A 
HETATM    2  N   UNL     1      -6.683   2.651 -34.114  1.00  0.00    -0.319 N 
HETATM    3  C   UNL     1      -6.775   1.288 -34.266  1.00  0.00     0.326 A 
HETATM    4  O   UNL     1      -7.369   0.772 -35.196  1.00  0.00    -0.247 OA
HETATM    5  N   UNL     1      -6.150   0.686 -33.225  1.00  0.00    -0.265 N 
HETATM    6  C   UNL     1      -5.533   1.614 -32.433  1.00  0.00     0.263 A 
HETATM    7  O   UNL     1      -4.895   1.373 -31.417  1.00  0.00    -0.270 OA
HETATM    8  H   UNL     1      -6.582   3.174 -34.981  1.00  0.00     0.166 HD
ENDROOT
BRANCH   1   9
HETATM    9  C   UNL     1      -6.672   3.839 -31.893  1.00  0.00     0.033 C 
HETATM   10  C   UNL     1      -7.675   3.020 -31.056  1.00  0.00     0.036 C 
HETATM   11  C   UNL     1      -8.902   2.558 -31.828  1.00  0.00     0.235 C 
HETATM   12  N   UNL     1      -9.587   3.710 -32.526  1.00  0.00    -0.067 N 
HETATM   13  H   UNL     1     -10.077   4.231 -31.790  1.00  0.00     0.280 HD
HETATM   14  C   UNL     1      -8.681   4.680 -33.251  1.00  0.00     0.235 C 
HETATM   15  C   UNL     1      -7.459   5.052 -32.427  1.00  0.00     0.036 C 
BRANCH  12  16
HETATM   16  C   UNL     1     -10.664   3.221 -33.496  1.00  0.00     0.274 C 
BRANCH  16  17
HETATM   17  C   UNL     1     -12.057   3.136 -32.924  1.00  0.00    -0.026 A 
HETATM   18  C   UNL     1     -12.412   4.047 -31.904  1.00  0.00     0.016 A 
HETATM   19  C   UNL     1     -13.691   4.052 -31.343  1.00  0.00    -0.061 A 
HETATM   20  C   UNL     1     -14.046   5.007 -30.238  1.00  0.00     0.048 C 
HETATM   21  C   UNL     1     -14.625   3.120 -31.789  1.00  0.00     0.007 A 
HETATM   22  C   UNL     1     -14.289   2.205 -32.789  1.00  0.00     0.008 A 
HETATM   23  C   UNL     1     -13.013   2.205 -33.375  1.00  0.00    -0.054 A 
HETATM   24  C   UNL     1     -12.698   1.148 -34.399  1.00  0.00     0.049 C 
ENDBRANCH  16  17
ENDBRANCH  12  16
ENDBRANCH   1   9
BRANCH   1  25
HETATM   25  C   UNL     1      -4.646   3.790 -33.476  1.00  0.00     0.072 A 
HETATM   26  N   UNL     1      -4.862   4.534 -34.605  1.00  0.00    -0.262 NA
HETATM   27  C   UNL     1      -3.816   5.229 -35.109  1.00  0.00     0.117 A 
HETATM   28  C   UNL     1      -2.555   5.233 -34.543  1.00  0.00     0.019 A 
HETATM   29  C   UNL     1      -2.352   4.487 -33.389  1.00  0.00     0.003 A 
HETATM   30  C   UNL     1      -3.408   3.763 -32.840  1.00  0.00     0.030 A 
ENDBRANCH   1  25
BRANCH   5  31
HETATM   31  C   UNL     1      -6.245  -0.732 -32.923  1.00  0.00     0.168 C 
BRANCH  31  32
HETATM   32  C   UNL     1      -5.655  -1.580 -34.059  1.00  0.00     0.140 C 
HETATM   33  O   UNL     1      -4.453  -2.267 -33.634  1.00  0.00    -0.384 OA
HETATM   34  C   UNL     1      -4.428  -3.555 -34.277  1.00  0.00     0.168 C 
HETATM   35  C   UNL     1      -5.620  -3.615 -35.211  1.00  0.00     0.029 C 
HETATM   36  C   UNL     1      -6.591  -2.666 -34.554  1.00  0.00     0.036 C 
ENDBRANCH  31  32
ENDBRANCH   5  31
TORSDOF 6
ENDMDL
MODEL 6
REMARK VINA RESULT:      -9.0      2.350      7.876
REMARK  6 active torsions:
REMARK  status: ('A' for Active; 'I' for Inactive)
REMARK    1  A    between atoms: C_4  and  C_5 
REMARK    2  A    between atoms: C_5  and  N_6 
REMARK    3  A    between atoms: C_10  and  C_11 
REMARK    4  A    between atoms: C_11  and  C_12 
REMARK    5  A    between atoms: N_21  and  C_22 
REMARK    6  A    between atoms: C_22  and  C_23 
ROOT
HETATM    1  C   UNL     1      -6.096   3.232 -31.356  1.00  0.00     0.164 A 
HETATM    2  N   UNL     1      -5.465   3.195 -32.668  1.00  0.00    -0.319 N 
HETATM    3  C   UNL     1      -4.697   4.310 -32.908  1.00  0.00     0.326 A 
HETATM    4  O   UNL     1      -4.129   4.496 -33.970  1.00  0.00    -0.247 OA
HETATM    5  N   UNL     1      -4.672   5.076 -31.791  1.00  0.00    -0.265 N 
HETATM    6  C   UNL     1      -5.505   4.563 -30.837  1.00  0.00     0.263 A 
HETATM    7  O   UNL     1      -5.688   5.033 -29.722  1.00  0.00    -0.270 OA
HETATM    8  H   UNL     1      -6.007   2.868 -33.464  1.00  0.00     0.166 HD
ENDROOT
BRANCH   1   9
HETATM    9  C   UNL     1      -5.640   2.041 -30.436  1.00  0.00     0.033 C 
HETATM   10  C   UNL     1      -4.151   1.653 -30.540  1.00  0.00     0.036 C 
HETATM   11  C   UNL     1      -3.774   0.969 -31.846  1.00  0.00     0.235 C 
HETATM   12  N   UNL     1      -4.669  -0.216 -32.133  1.00  0.00    -0.067 N 
HETATM   13  H   UNL     1      -4.360  -0.958 -31.496  1.00  0.00     0.280 HD
HETATM   14  C   UNL     1      -6.149  -0.000 -31.906  1.00  0.00     0.235 C 
HETATM   15  C   UNL     1      -6.431   0.729 -30.603  1.00  0.00     0.036 C 
BRANCH  12  16
HETATM   16  C   UNL     1      -4.458  -0.750 -33.551  1.00  0.00     0.274 C 
BRANCH  16  17
HETATM   17  C   UNL     1      -4.500  -2.251 -33.687  1.00  0.00    -0.026 A 
HETATM   18  C   UNL     1      -5.417  -2.809 -34.606  1.00  0.00     0.016 A 
HETATM   19  C   UNL     1      -5.497  -4.188 -34.811  1.00  0.00    -0.061 A 
HETATM   20  C   UNL     1      -6.498  -4.770 -35.770  1.00  0.00     0.048 C 
HETATM   21  C   UNL     1      -4.666  -5.027 -34.073  1.00  0.00     0.007 A 
HETATM   22  C   UNL     1      -3.760  -4.495 -33.152  1.00  0.00     0.008 A 
HETATM   23  C   UNL     1      -3.656  -3.109 -32.953  1.00  0.00    -0.054 A 
HETATM   24  C   UNL     1      -2.708  -2.608 -31.898  1.00  0.00     0.049 C 
ENDBRANCH  16  17
ENDBRANCH  12  16
ENDBRANCH   1   9
BRANCH   1  25
HETATM   25  C   UNL     1      -7.608   3.266 -31.548  1.00  0.00     0.072 A 
HETATM   26  N   UNL     1      -8.330   3.472 -30.404  1.00  0.00    -0.262 NA
HETATM   27  C   UNL     1      -9.679   3.503 -30.508  1.00  0.00     0.117 A 
HETATM   28  C   UNL     1     -10.358   3.347 -31.701  1.00  0.00     0.019 A 
HETATM   29  C   UNL     1      -9.615   3.154 -32.858  1.00  0.00     0.003 A 
HETATM   30  C   UNL     1      -8.224   3.121 -32.788  1.00  0.00     0.030 A 
ENDBRANCH   1  25
BRANCH   5  31
HETATM   31  C   UNL     1      -3.776   6.204 -31.592  1.00  0.00     0.168 C 
BRANCH  31  32
HETATM   32  C   UNL     1      -2.426   5.743 -31.026  1.00  0.00     0.140 C 
HETATM   33  O   UNL     1      -1.429   5.625 -32.070  1.00  0.00    -0.384 OA
HETATM   34  C   UNL     1      -0.161   6.031 -31.519  1.00  0.00     0.168 C 
HETATM   35  C   UNL     1      -0.380   6.314 -30.046  1.00  0.00     0.029 C 
HETATM   36  C   UNL     1      -1.838   6.700 -30.006  1.00  0.00     0.036 C 
ENDBRANCH  31  32
ENDBRANCH   5  31
TORSDOF 6
ENDMDL
MODEL 7
REMARK VINA RESULT:      -9.0      2.306      3.383
REMARK  6 active torsions:
REMARK  status: ('A' for Active; 'I' for Inactive)
REMARK    1  A    between atoms: C_4  and  C_5 
REMARK    2  A    between atoms: C_5  and  N_6 
REMARK    3  A    between atoms: C_10  and  C_11 
REMARK    4  A    between atoms: C_11  and  C_12 
REMARK    5  A    between atoms: N_21  and  C_22 
REMARK    6  A    between atoms: C_22  and  C_23 
ROOT
HETATM    1  C   UNL     1      -6.217   2.089 -32.448  1.00  0.00     0.164 A 
HETATM    2  N   UNL     1      -5.772   3.165 -33.322  1.00  0.00    -0.319 N 
HETATM    3  C   UNL     1      -6.713   4.160 -33.445  1.00  0.00     0.326 A 
HETATM    4  O   UNL     1      -6.556   5.122 -34.175  1.00  0.00    -0.247 OA
HETATM    5  N   UNL     1      -7.751   3.888 -32.618  1.00  0.00    -0.265 N 
HETATM    6  C   UNL     1      -7.587   2.667 -32.025  1.00  0.00     0.263 A 
HETATM    7  O   UNL     1      -8.357   2.153 -31.226  1.00  0.00    -0.270 OA
HETATM    8  H   UNL     1      -5.284   2.928 -34.182  1.00  0.00     0.166 HD
ENDROOT
BRANCH   1   9
HETATM    9  C   UNL     1      -5.291   1.916 -31.188  1.00  0.00     0.033 C 
HETATM   10  C   UNL     1      -5.557   2.895 -30.028  1.00  0.00     0.036 C 
HETATM   11  C   UNL     1      -5.135   4.329 -30.312  1.00  0.00     0.235 C 
HETATM   12  N   UNL     1      -3.697   4.407 -30.772  1.00  0.00    -0.067 N 
HETATM   13  H   UNL     1      -3.128   4.261 -29.931  1.00  0.00     0.280 HD
HETATM   14  C   UNL     1      -3.274   3.381 -31.800  1.00  0.00     0.235 C 
HETATM   15  C   UNL     1      -3.776   1.986 -31.461  1.00  0.00     0.036 C 
BRANCH  12  16
HETATM   16  C   UNL     1      -3.346   5.802 -31.292  1.00  0.00     0.274 C 
BRANCH  16  17
HETATM   17  C   UNL     1      -1.972   6.301 -30.925  1.00  0.00    -0.026 A 
HETATM   18  C   UNL     1      -1.767   6.771 -29.608  1.00  0.00     0.016 A 
HETATM   19  C   UNL     1      -0.517   7.224 -29.181  1.00  0.00    -0.061 A 
HETATM   20  C   UNL     1      -0.320   7.749 -27.787  1.00  0.00     0.048 C 
HETATM   21  C   UNL     1       0.542   7.229 -30.087  1.00  0.00     0.007 A 
HETATM   22  C   UNL     1       0.356   6.778 -31.395  1.00  0.00     0.008 A 
HETATM   23  C   UNL     1      -0.892   6.301 -31.829  1.00  0.00    -0.054 A 
HETATM   24  C   UNL     1      -1.038   5.894 -33.270  1.00  0.00     0.049 C 
ENDBRANCH  16  17
ENDBRANCH  12  16
ENDBRANCH   1   9
BRANCH   1  25
HETATM   25  C   UNL     1      -6.318   0.809 -33.270  1.00  0.00     0.072 A 
HETATM   26  N   UNL     1      -6.840   0.971 -34.525  1.00  0.00    -0.262 NA
HETATM   27  C   UNL     1      -6.964  -0.132 -35.301  1.00  0.00     0.117 A 
HETATM   28  C   UNL     1      -6.586  -1.398 -34.897  1.00  0.00     0.019 A 
HETATM   29  C   UNL     1      -6.044  -1.547 -33.628  1.00  0.00     0.003 A 
HETATM   30  C   UNL     1      -5.897  -0.434 -32.804  1.00  0.00     0.030 A 
ENDBRANCH   1  25
BRANCH   5  31
HETATM   31  C   UNL     1      -8.815   4.827 -32.303  1.00  0.00     0.168 C 
BRANCH  31  32
HETATM   32  C   UNL     1      -8.522   5.574 -30.994  1.00  0.00     0.140 C 
HETATM   33  O   UNL     1      -7.906   6.861 -31.247  1.00  0.00    -0.384 OA
HETATM   34  C   UNL     1      -8.400   7.789 -30.263  1.00  0.00     0.168 C 
HETATM   35  C   UNL     1      -9.280   7.009 -29.309  1.00  0.00     0.029 C 
HETATM   36  C   UNL     1      -9.764   5.871 -30.174  1.00  0.00     0.036 C 
ENDBRANCH  31  32
ENDBRANCH   5  31
TORSDOF 6
ENDMDL
MODEL 8
REMARK VINA RESULT:      -9.0      3.053      8.010
REMARK  6 active torsions:
REMARK  status: ('A' for Active; 'I' for Inactive)
REMARK    1  A    between atoms: C_4  and  C_5 
REMARK    2  A    between atoms: C_5  and  N_6 
REMARK    3  A    between atoms: C_10  and  C_11 
REMARK    4  A    between atoms: C_11  and  C_12 
REMARK    5  A    between atoms: N_21  and  C_22 
REMARK    6  A    between atoms: C_22  and  C_23 
ROOT
HETATM    1  C   UNL     1      -4.812   5.299 -32.198  1.00  0.00     0.164 A 
HETATM    2  N   UNL     1      -4.487   4.743 -33.503  1.00  0.00    -0.319 N 
HETATM    3  C   UNL     1      -3.536   5.484 -34.164  1.00  0.00     0.326 A 
HETATM    4  O   UNL     1      -3.166   5.217 -35.294  1.00  0.00    -0.247 OA
HETATM    5  N   UNL     1      -3.100   6.472 -33.344  1.00  0.00    -0.265 N 
HETATM    6  C   UNL     1      -3.823   6.488 -32.184  1.00  0.00     0.263 A 
HETATM    7  O   UNL     1      -3.658   7.262 -31.251  1.00  0.00    -0.270 OA
HETATM    8  H   UNL     1      -5.241   4.393 -34.089  1.00  0.00     0.166 HD
ENDROOT
BRANCH   1   9
HETATM    9  C   UNL     1      -4.482   4.307 -31.023  1.00  0.00     0.033 C 
HETATM   10  C   UNL     1      -3.645   3.072 -31.411  1.00  0.00     0.036 C 
HETATM   11  C   UNL     1      -4.396   2.048 -32.248  1.00  0.00     0.235 C 
HETATM   12  N   UNL     1      -5.698   1.641 -31.597  1.00  0.00    -0.067 N 
HETATM   13  H   UNL     1      -5.440   1.021 -30.821  1.00  0.00     0.280 HD
HETATM   14  C   UNL     1      -6.535   2.766 -31.028  1.00  0.00     0.235 C 
HETATM   15  C   UNL     1      -5.698   3.766 -30.246  1.00  0.00     0.036 C 
BRANCH  12  16
HETATM   16  C   UNL     1      -6.566   0.809 -32.543  1.00  0.00     0.274 C 
BRANCH  16  17
HETATM   17  C   UNL     1      -5.904  -0.419 -33.113  1.00  0.00    -0.026 A 
HETATM   18  C   UNL     1      -4.862  -1.017 -32.369  1.00  0.00     0.016 A 
HETATM   19  C   UNL     1      -4.217  -2.173 -32.815  1.00  0.00    -0.061 A 
HETATM   20  C   UNL     1      -3.090  -2.781 -32.029  1.00  0.00     0.048 C 
HETATM   21  C   UNL     1      -4.602  -2.731 -34.032  1.00  0.00     0.007 A 
HETATM   22  C   UNL     1      -5.623  -2.149 -34.786  1.00  0.00     0.008 A 
HETATM   23  C   UNL     1      -6.292  -0.998 -34.338  1.00  0.00    -0.054 A 
HETATM   24  C   UNL     1      -7.336  -0.385 -35.231  1.00  0.00     0.049 C 
ENDBRANCH  16  17
ENDBRANCH  12  16
ENDBRANCH   1   9
BRANCH   1  25
HETATM   25  C   UNL     1      -6.277   5.721 -32.203  1.00  0.00     0.072 A 
HETATM   26  N   UNL     1      -7.010   5.239 -33.254  1.00  0.00    -0.262 NA
HETATM   27  C   UNL     1      -8.317   5.586 -33.320  1.00  0.00     0.117 A 
HETATM   28  C   UNL     1      -8.945   6.387 -32.384  1.00  0.00     0.019 A 
HETATM   29  C   UNL     1      -8.194   6.857 -31.314  1.00  0.00     0.003 A 
HETATM   30  C   UNL     1      -6.848   6.515 -31.213  1.00  0.00     0.030 A 
ENDBRANCH   1  25
BRANCH   5  31
HETATM   31  C   UNL     1      -1.937   7.302 -33.609  1.00  0.00     0.168 C 
BRANCH  31  32
HETATM   32  C   UNL     1      -0.712   6.798 -32.834  1.00  0.00     0.140 C 
HETATM   33  O   UNL     1      -0.514   7.551 -31.612  1.00  0.00    -0.384 OA
HETATM   34  C   UNL     1      -0.026   6.643 -30.606  1.00  0.00     0.168 C 
HETATM   35  C   UNL     1       0.177   5.298 -31.273  1.00  0.00     0.029 C 
HETATM   36  C   UNL     1      -0.821   5.346 -32.404  1.00  0.00     0.036 C 
ENDBRANCH  31  32
ENDBRANCH   5  31
TORSDOF 6
ENDMDL
MODEL 9
REMARK VINA RESULT:      -9.0      2.503      7.967
REMARK  6 active torsions:
REMARK  status: ('A' for Active; 'I' for Inactive)
REMARK    1  A    between atoms: C_4  and  C_5 
REMARK    2  A    between atoms: C_5  and  N_6 
REMARK    3  A    between atoms: C_10  and  C_11 
REMARK    4  A    between atoms: C_11  and  C_12 
REMARK    5  A    between atoms: N_21  and  C_22 
REMARK    6  A    between atoms: C_22  and  C_23 
ROOT
HETATM    1  C   UNL     1      -6.952   3.644 -31.316  1.00  0.00     0.164 A 
HETATM    2  N   UNL     1      -7.019   3.581 -32.769  1.00  0.00    -0.319 N 
HETATM    3  C   UNL     1      -5.818   3.894 -33.361  1.00  0.00     0.326 A 
HETATM    4  O   UNL     1      -5.681   3.953 -34.570  1.00  0.00    -0.247 OA
HETATM    5  N   UNL     1      -4.885   4.070 -32.395  1.00  0.00    -0.265 N 
HETATM    6  C   UNL     1      -5.456   4.000 -31.155  1.00  0.00     0.263 A 
HETATM    7  O   UNL     1      -4.865   4.114 -30.089  1.00  0.00    -0.270 OA
HETATM    8  H   UNL     1      -7.840   3.957 -33.238  1.00  0.00     0.166 HD
ENDROOT
BRANCH   1   9
HETATM    9  C   UNL     1      -7.255   2.257 -30.640  1.00  0.00     0.033 C 
HETATM   10  C   UNL     1      -6.020   1.462 -30.171  1.00  0.00     0.036 C 
HETATM   11  C   UNL     1      -5.184   0.883 -31.303  1.00  0.00     0.235 C 
HETATM   12  N   UNL     1      -6.027   0.069 -32.258  1.00  0.00    -0.067 N 
HETATM   13  H   UNL     1      -6.227  -0.812 -31.771  1.00  0.00     0.280 HD
HETATM   14  C   UNL     1      -7.349   0.681 -32.664  1.00  0.00     0.235 C 
HETATM   15  C   UNL     1      -8.095   1.276 -31.480  1.00  0.00     0.036 C 
BRANCH  12  16
HETATM   16  C   UNL     1      -5.247  -0.305 -33.520  1.00  0.00     0.274 C 
BRANCH  16  17
HETATM   17  C   UNL     1      -4.975  -1.777 -33.698  1.00  0.00    -0.026 A 
HETATM   18  C   UNL     1      -5.838  -2.515 -34.538  1.00  0.00     0.016 A 
HETATM   19  C   UNL     1      -5.637  -3.876 -34.778  1.00  0.00    -0.061 A 
HETATM   20  C   UNL     1      -6.581  -4.654 -35.650  1.00  0.00     0.048 C 
HETATM   21  C   UNL     1      -4.572  -4.518 -34.152  1.00  0.00     0.007 A 
HETATM   22  C   UNL     1      -3.713  -3.808 -33.310  1.00  0.00     0.008 A 
HETATM   23  C   UNL     1      -3.893  -2.435 -33.079  1.00  0.00    -0.054 A 
HETATM   24  C   UNL     1      -2.973  -1.747 -32.107  1.00  0.00     0.049 C 
ENDBRANCH  16  17
ENDBRANCH  12  16
ENDBRANCH   1   9
BRANCH   1  25
HETATM   25  C   UNL     1      -7.897   4.739 -30.835  1.00  0.00     0.072 A 
HETATM   26  N   UNL     1      -7.805   5.036 -29.502  1.00  0.00    -0.262 NA
HETATM   27  C   UNL     1      -8.626   5.994 -29.013  1.00  0.00     0.117 A 
HETATM   28  C   UNL     1      -9.539   6.688 -29.785  1.00  0.00     0.019 A 
HETATM   29  C   UNL     1      -9.613   6.389 -31.139  1.00  0.00     0.003 A 
HETATM   30  C   UNL     1      -8.779   5.412 -31.677  1.00  0.00     0.030 A 
ENDBRANCH   1  25
BRANCH   5  31
HETATM   31  C   UNL     1      -3.457   4.177 -32.646  1.00  0.00     0.168 C 
BRANCH  31  32
HETATM   32  C   UNL     1      -3.069   5.613 -33.025  1.00  0.00     0.140 C 
HETATM   33  O   UNL     1      -2.622   6.361 -31.868  1.00  0.00    -0.384 OA
HETATM   34  C   UNL     1      -1.565   7.242 -32.292  1.00  0.00     0.168 C 
HETATM   35  C   UNL     1      -1.430   7.095 -33.794  1.00  0.00     0.029 C 
HETATM   36  C   UNL     1      -1.930   5.690 -34.025  1.00  0.00     0.036 C 
ENDBRANCH  31  32
ENDBRANCH   5  31
TORSDOF 6
ENDMDL
MODEL 10
REMARK VINA RESULT:      -8.8      2.902      7.567
REMARK  6 active torsions:
REMARK  status: ('A' for Active; 'I' for Inactive)
REMARK    1  A    between atoms: C_4  and  C_5 
REMARK    2  A    between atoms: C_5  and  N_6 
REMARK    3  A    between atoms: C_10  and  C_11 
REMARK    4  A    between atoms: C_11  and  C_12 
REMARK    5  A    between atoms: N_21  and  C_22 
REMARK    6  A    between atoms: C_22  and  C_23 
ROOT
HETATM    1  C   UNL     1      -5.612   4.989 -32.265  1.00  0.00     0.164 A 
HETATM    2  N   UNL     1      -5.555   4.177 -31.058  1.00  0.00    -0.319 N 
HETATM    3  C   UNL     1      -5.895   4.890 -29.933  1.00  0.00     0.326 A 
HETATM    4  O   UNL     1      -5.856   4.407 -28.815  1.00  0.00    -0.247 OA
HETATM    5  N   UNL     1      -6.290   6.133 -30.303  1.00  0.00    -0.265 N 
HETATM    6  C   UNL     1      -6.111   6.315 -31.646  1.00  0.00     0.263 A 
HETATM    7  O   UNL     1      -6.382   7.332 -32.270  1.00  0.00    -0.270 OA
HETATM    8  H   UNL     1      -4.779   3.531 -30.938  1.00  0.00     0.166 HD
ENDROOT
BRANCH   1   9
HETATM    9  C   UNL     1      -6.662   4.448 -33.304  1.00  0.00     0.033 C 
HETATM   10  C   UNL     1      -7.998   3.962 -32.708  1.00  0.00     0.036 C 
HETATM   11  C   UNL     1      -7.896   2.662 -31.926  1.00  0.00     0.235 C 
HETATM   12  N   UNL     1      -7.234   1.573 -32.739  1.00  0.00    -0.067 N 
HETATM   13  H   UNL     1      -7.938   1.268 -33.422  1.00  0.00     0.280 HD
HETATM   14  C   UNL     1      -5.995   1.978 -33.506  1.00  0.00     0.235 C 
HETATM   15  C   UNL     1      -6.169   3.310 -34.218  1.00  0.00     0.036 C 
BRANCH  12  16
HETATM   16  C   UNL     1      -6.907   0.349 -31.883  1.00  0.00     0.274 C 
BRANCH  16  17
HETATM   17  C   UNL     1      -6.020  -0.679 -32.537  1.00  0.00    -0.026 A 
HETATM   18  C   UNL     1      -6.584  -1.504 -33.536  1.00  0.00     0.016 A 
HETATM   19  C   UNL     1      -5.822  -2.461 -34.210  1.00  0.00    -0.061 A 
HETATM   20  C   UNL     1      -6.443  -3.352 -35.248  1.00  0.00     0.048 C 
HETATM   21  C   UNL     1      -4.480  -2.614 -33.867  1.00  0.00     0.007 A 
HETATM   22  C   UNL     1      -3.907  -1.815 -32.876  1.00  0.00     0.008 A 
HETATM   23  C   UNL     1      -4.659  -0.836 -32.207  1.00  0.00    -0.054 A 
HETATM   24  C   UNL     1      -3.996  -0.057 -31.104  1.00  0.00     0.049 C 
ENDBRANCH  16  17
ENDBRANCH  12  16
ENDBRANCH   1   9
BRANCH   1  25
HETATM   25  C   UNL     1      -4.209   5.078 -32.855  1.00  0.00     0.072 A 
HETATM   26  N   UNL     1      -4.093   5.899 -33.943  1.00  0.00    -0.262 NA
HETATM   27  C   UNL     1      -2.873   6.012 -34.518  1.00  0.00     0.117 A 
HETATM   28  C   UNL     1      -1.747   5.353 -34.061  1.00  0.00     0.019 A 
HETATM   29  C   UNL     1      -1.874   4.534 -32.947  1.00  0.00     0.003 A 
HETATM   30  C   UNL     1      -3.114   4.398 -32.328  1.00  0.00     0.030 A 
ENDBRANCH   1  25
BRANCH   5  31
HETATM   31  C   UNL     1      -6.942   7.082 -29.415  1.00  0.00     0.168 C 
BRANCH  31  32
HETATM   32  C   UNL     1      -5.920   7.781 -28.508  1.00  0.00     0.140 C 
HETATM   33  O   UNL     1      -5.873   7.168 -27.196  1.00  0.00    -0.384 OA
HETATM   34  C   UNL     1      -4.508   7.205 -26.739  1.00  0.00     0.168 C 
HETATM   35  C   UNL     1      -3.705   7.962 -27.777  1.00  0.00     0.029 C 
HETATM   36  C   UNL     1      -4.498   7.720 -29.037  1.00  0.00     0.036 C 
ENDBRANCH  31  32
ENDBRANCH   5  31
TORSDOF 6
ENDMDL
