MODEL 1
REMARK VINA RESULT:      -8.8      0.000      0.000
REMARK  7 active torsions:
REMARK  status: ('A' for Active; 'I' for Inactive)
REMARK    1  A    between atoms: O_2  and  C_3 
REMARK    2  A    between atoms: C_7  and  C_8 
REMARK    3  A    between atoms: C_8  and  N_9 
REMARK       I    between atoms: N_9  and  C_10 
REMARK    4  A    between atoms: C_10  and  C_12 
REMARK    5  A    between atoms: C_17  and  C_26 
REMARK    6  A    between atoms: C_21  and  C_22 
REMARK    7  A    between atoms: C_22  and  N_23 
ROOT
HETATM    1  C   UNL     1      -5.626   2.365 -31.996  1.00  0.00     0.110 A 
HETATM    2  N   UNL     1      -5.154   1.083 -31.822  1.00  0.00    -0.351 N 
HETATM    3  H   UNL     1      -4.572   0.809 -31.042  1.00  0.00     0.166 HD
HETATM    4  C   UNL     1      -5.558   0.260 -32.840  1.00  0.00     0.044 A 
HETATM    5  C   UNL     1      -5.283  -1.097 -33.066  1.00  0.00     0.042 A 
HETATM    6  C   UNL     1      -5.842  -1.712 -34.199  1.00  0.00    -0.021 A 
HETATM    7  C   UNL     1      -6.650  -0.962 -35.060  1.00  0.00     0.013 A 
HETATM    8  C   UNL     1      -6.916   0.394 -34.816  1.00  0.00     0.015 A 
HETATM    9  C   UNL     1      -6.356   1.024 -33.687  1.00  0.00     0.001 A 
HETATM   10  C   UNL     1      -6.415   2.355 -33.147  1.00  0.00     0.015 A 
ENDROOT
BRANCH   1  11
HETATM   11  C   UNL     1      -5.295   3.400 -31.038  1.00  0.00     0.269 C 
HETATM   12  N   UNL     1      -4.591   4.460 -31.544  1.00  0.00    -0.351 N 
HETATM   13  H   UNL     1      -4.238   4.377 -32.496  1.00  0.00     0.163 HD
HETATM   14  O   UNL     1      -5.594   3.300 -29.850  1.00  0.00    -0.266 OA
BRANCH  12  15
HETATM   15  C   UNL     1      -4.109   5.537 -30.722  1.00  0.00     0.161 C 
BRANCH  15  16
HETATM   16  C   UNL     1      -2.776   6.060 -31.190  1.00  0.00    -0.038 A 
HETATM   17  C   UNL     1      -1.846   6.556 -30.267  1.00  0.00     0.009 A 
HETATM   18  C   UNL     1      -0.614   7.044 -30.697  1.00  0.00     0.003 A 
HETATM   19  C   UNL     1      -0.291   7.039 -32.055  1.00  0.00     0.037 A 
HETATM   20  C   UNL     1      -1.197   6.535 -32.989  1.00  0.00     0.068 A 
HETATM   21  C   UNL     1      -2.432   6.043 -32.549  1.00  0.00     0.045 A 
BRANCH  20  22
HETATM   22  O   UNL     1      -1.002   6.468 -34.342  1.00  0.00    -0.356 OA
HETATM   23  C   UNL     1      -1.468   5.296 -34.998  1.00  0.00     0.210 C 
ENDBRANCH  20  22
ENDBRANCH  15  16
ENDBRANCH  12  15
ENDBRANCH   1  11
BRANCH  10  24
HETATM   24  C   UNL     1      -7.234   3.482 -33.711  1.00  0.00     0.313 C 
BRANCH  24  25
HETATM   25  N   UNL     1      -8.578   3.514 -33.099  1.00  0.00     0.084 N 
HETATM   26  C   UNL     1      -8.712   4.647 -32.173  1.00  0.00     0.309 C 
HETATM   27  C   UNL     1      -9.588   3.636 -34.158  1.00  0.00     0.309 C 
ENDBRANCH  24  25
ENDBRANCH  10  24
BRANCH   6  28
HETATM   28  C   UNL     1      -5.583  -3.113 -34.487  1.00  0.00     0.010 A 
HETATM   29  C   UNL     1      -6.392  -4.095 -35.106  1.00  0.00     0.152 A 
HETATM   30  N   UNL     1      -5.799  -5.289 -35.175  1.00  0.00    -0.187 NA
HETATM   31  N   UNL     1      -4.605  -5.078 -34.599  1.00  0.00    -0.289 N 
HETATM   32  H   UNL     1      -3.961  -5.859 -34.528  1.00  0.00     0.188 HD
HETATM   33  C   UNL     1      -4.427  -3.795 -34.169  1.00  0.00     0.123 A 
ENDBRANCH   6  28
TORSDOF 7
ENDMDL
MODEL 2
REMARK VINA RESULT:      -8.8      3.485      7.757
REMARK  7 active torsions:
REMARK  status: ('A' for Active; 'I' for Inactive)
REMARK    1  A    between atoms: O_2  and  C_3 
REMARK    2  A    between atoms: C_7  and  C_8 
REMARK    3  A    between atoms: C_8  and  N_9 
REMARK       I    between atoms: N_9  and  C_10 
REMARK    4  A    between atoms: C_10  and  C_12 
REMARK    5  A    between atoms: C_17  and  C_26 
REMARK    6  A    between atoms: C_21  and  C_22 
REMARK    7  A    between atoms: C_22  and  N_23 
ROOT
HETATM    1  C   UNL     1      -8.486   1.828 -34.253  1.00  0.00     0.110 A 
HETATM    2  N   UNL     1      -8.524   0.520 -34.683  1.00  0.00    -0.351 N 
HETATM    3  H   UNL     1      -9.321   0.117 -35.157  1.00  0.00     0.166 HD
HETATM    4  C   UNL     1      -7.368  -0.144 -34.367  1.00  0.00     0.044 A 
HETATM    5  C   UNL     1      -7.004  -1.479 -34.593  1.00  0.00     0.042 A 
HETATM    6  C   UNL     1      -5.734  -1.905 -34.172  1.00  0.00    -0.021 A 
HETATM    7  C   UNL     1      -4.874  -0.994 -33.547  1.00  0.00     0.013 A 
HETATM    8  C   UNL     1      -5.255   0.340 -33.332  1.00  0.00     0.015 A 
HETATM    9  C   UNL     1      -6.530   0.777 -33.744  1.00  0.00     0.001 A 
HETATM   10  C   UNL     1      -7.229   2.033 -33.684  1.00  0.00     0.015 A 
ENDROOT
BRANCH   1  11
HETATM   11  C   UNL     1      -9.622   2.700 -34.471  1.00  0.00     0.269 C 
HETATM   12  N   UNL     1     -10.762   2.077 -34.903  1.00  0.00    -0.351 N 
HETATM   13  H   UNL     1     -10.688   1.096 -35.170  1.00  0.00     0.163 HD
HETATM   14  O   UNL     1      -9.542   3.916 -34.315  1.00  0.00    -0.266 OA
BRANCH  12  15
HETATM   15  C   UNL     1     -11.960   2.796 -35.246  1.00  0.00     0.161 C 
BRANCH  15  16
HETATM   16  C   UNL     1     -13.109   2.461 -34.331  1.00  0.00    -0.038 A 
HETATM   17  C   UNL     1     -13.924   1.353 -34.596  1.00  0.00     0.009 A 
HETATM   18  C   UNL     1     -14.991   1.042 -33.754  1.00  0.00     0.003 A 
HETATM   19  C   UNL     1     -15.254   1.831 -32.633  1.00  0.00     0.037 A 
HETATM   20  C   UNL     1     -14.444   2.930 -32.344  1.00  0.00     0.068 A 
HETATM   21  C   UNL     1     -13.373   3.234 -33.192  1.00  0.00     0.045 A 
BRANCH  20  22
HETATM   22  O   UNL     1     -14.590   3.776 -31.278  1.00  0.00    -0.356 OA
HETATM   23  C   UNL     1     -13.403   4.158 -30.597  1.00  0.00     0.210 C 
ENDBRANCH  20  22
ENDBRANCH  15  16
ENDBRANCH  12  15
ENDBRANCH   1  11
BRANCH  10  24
HETATM   24  C   UNL     1      -6.655   3.317 -33.156  1.00  0.00     0.313 C 
BRANCH  24  25
HETATM   25  N   UNL     1      -6.922   3.457 -31.709  1.00  0.00     0.084 N 
HETATM   26  C   UNL     1      -5.676   3.393 -30.932  1.00  0.00     0.309 C 
HETATM   27  C   UNL     1      -7.577   4.749 -31.462  1.00  0.00     0.309 C 
ENDBRANCH  24  25
ENDBRANCH  10  24
BRANCH   6  28
HETATM   28  C   UNL     1      -5.307  -3.281 -34.372  1.00  0.00     0.010 A 
HETATM   29  C   UNL     1      -5.955  -4.367 -35.005  1.00  0.00     0.152 A 
HETATM   30  N   UNL     1      -5.237  -5.492 -34.970  1.00  0.00    -0.187 NA
HETATM   31  N   UNL     1      -4.124  -5.132 -34.313  1.00  0.00    -0.289 N 
HETATM   32  H   UNL     1      -3.410  -5.835 -34.154  1.00  0.00     0.188 HD
HETATM   33  C   UNL     1      -4.116  -3.821 -33.932  1.00  0.00     0.123 A 
ENDBRANCH   6  28
TORSDOF 7
ENDMDL
MODEL 3
REMARK VINA RESULT:      -8.7      1.194      1.558
REMARK  7 active torsions:
REMARK  status: ('A' for Active; 'I' for Inactive)
REMARK    1  A    between atoms: O_2  and  C_3 
REMARK    2  A    between atoms: C_7  and  C_8 
REMARK    3  A    between atoms: C_8  and  N_9 
REMARK       I    between atoms: N_9  and  C_10 
REMARK    4  A    between atoms: C_10  and  C_12 
REMARK    5  A    between atoms: C_17  and  C_26 
REMARK    6  A    between atoms: C_21  and  C_22 
REMARK    7  A    between atoms: C_22  and  N_23 
ROOT
HETATM    1  C   UNL     1      -5.927   2.507 -32.403  1.00  0.00     0.110 A 
HETATM    2  N   UNL     1      -5.284   1.309 -32.187  1.00  0.00    -0.351 N 
HETATM    3  H   UNL     1      -4.590   1.177 -31.464  1.00  0.00     0.166 HD
HETATM    4  C   UNL     1      -5.692   0.353 -33.081  1.00  0.00     0.044 A 
HETATM    5  C   UNL     1      -5.278  -0.978 -33.230  1.00  0.00     0.042 A 
HETATM    6  C   UNL     1      -5.877  -1.755 -34.235  1.00  0.00    -0.021 A 
HETATM    7  C   UNL     1      -6.862  -1.186 -35.050  1.00  0.00     0.013 A 
HETATM    8  C   UNL     1      -7.265   0.148 -34.883  1.00  0.00     0.015 A 
HETATM    9  C   UNL     1      -6.666   0.939 -33.883  1.00  0.00     0.001 A 
HETATM   10  C   UNL     1      -6.831   2.300 -33.447  1.00  0.00     0.015 A 
ENDROOT
BRANCH   1  11
HETATM   11  C   UNL     1      -5.623   3.657 -31.577  1.00  0.00     0.269 C 
HETATM   12  N   UNL     1      -5.065   4.718 -32.237  1.00  0.00    -0.351 N 
HETATM   13  H   UNL     1      -4.780   4.572 -33.205  1.00  0.00     0.163 HD
HETATM   14  O   UNL     1      -5.819   3.651 -30.364  1.00  0.00    -0.266 OA
BRANCH  12  15
HETATM   15  C   UNL     1      -4.626   5.911 -31.563  1.00  0.00     0.161 C 
BRANCH  15  16
HETATM   16  C   UNL     1      -3.154   6.168 -31.758  1.00  0.00    -0.038 A 
HETATM   17  C   UNL     1      -2.719   7.328 -32.412  1.00  0.00     0.009 A 
HETATM   18  C   UNL     1      -1.359   7.567 -32.598  1.00  0.00     0.003 A 
HETATM   19  C   UNL     1      -0.414   6.654 -32.127  1.00  0.00     0.037 A 
HETATM   20  C   UNL     1      -0.827   5.500 -31.459  1.00  0.00     0.068 A 
HETATM   21  C   UNL     1      -2.195   5.268 -31.273  1.00  0.00     0.045 A 
BRANCH  20  22
HETATM   22  O   UNL     1      -0.006   4.533 -30.946  1.00  0.00    -0.356 OA
HETATM   23  C   UNL     1       0.748   4.880 -29.792  1.00  0.00     0.210 C 
ENDBRANCH  20  22
ENDBRANCH  15  16
ENDBRANCH  12  15
ENDBRANCH   1  11
BRANCH  10  24
HETATM   24  C   UNL     1      -7.840   3.269 -33.995  1.00  0.00     0.313 C 
BRANCH  24  25
HETATM   25  N   UNL     1      -9.174   3.030 -33.405  1.00  0.00     0.084 N 
HETATM   26  C   UNL     1      -9.503   4.058 -32.407  1.00  0.00     0.309 C 
HETATM   27  C   UNL     1     -10.184   3.054 -34.471  1.00  0.00     0.309 C 
ENDBRANCH  24  25
ENDBRANCH  10  24
BRANCH   6  28
HETATM   28  C   UNL     1      -5.479  -3.139 -34.441  1.00  0.00     0.010 A 
HETATM   29  C   UNL     1      -6.168  -4.219 -35.040  1.00  0.00     0.152 A 
HETATM   30  N   UNL     1      -5.466  -5.356 -35.025  1.00  0.00    -0.187 NA
HETATM   31  N   UNL     1      -4.324  -5.008 -34.413  1.00  0.00    -0.289 N 
HETATM   32  H   UNL     1      -3.615  -5.721 -34.276  1.00  0.00     0.188 HD
HETATM   33  C   UNL     1      -4.281  -3.694 -34.043  1.00  0.00     0.123 A 
ENDBRANCH   6  28
TORSDOF 7
ENDMDL
MODEL 4
REMARK VINA RESULT:      -8.2      3.234      7.276
REMARK  7 active torsions:
REMARK  status: ('A' for Active; 'I' for Inactive)
REMARK    1  A    between atoms: O_2  and  C_3 
REMARK    2  A    between atoms: C_7  and  C_8 
REMARK    3  A    between atoms: C_8  and  N_9 
REMARK       I    between atoms: N_9  and  C_10 
REMARK    4  A    between atoms: C_10  and  C_12 
REMARK    5  A    between atoms: C_17  and  C_26 
REMARK    6  A    between atoms: C_21  and  C_22 
REMARK    7  A    between atoms: C_22  and  N_23 
ROOT
HETATM    1  C   UNL     1      -7.823   2.401 -33.681  1.00  0.00     0.110 A 
HETATM    2  N   UNL     1      -8.104   1.173 -34.238  1.00  0.00    -0.351 N 
HETATM    3  H   UNL     1      -8.974   0.967 -34.710  1.00  0.00     0.166 HD
HETATM    4  C   UNL     1      -7.073   0.290 -34.048  1.00  0.00     0.044 A 
HETATM    5  C   UNL     1      -6.957  -1.056 -34.425  1.00  0.00     0.042 A 
HETATM    6  C   UNL     1      -5.769  -1.736 -34.113  1.00  0.00    -0.021 A 
HETATM    7  C   UNL     1      -4.743  -1.059 -33.443  1.00  0.00     0.013 A 
HETATM    8  C   UNL     1      -4.877   0.289 -33.076  1.00  0.00     0.015 A 
HETATM    9  C   UNL     1      -6.067   0.980 -33.378  1.00  0.00     0.001 A 
HETATM   10  C   UNL     1      -6.531   2.324 -33.157  1.00  0.00     0.015 A 
ENDROOT
BRANCH   1  11
HETATM   11  C   UNL     1      -8.793   3.473 -33.752  1.00  0.00     0.269 C 
HETATM   12  N   UNL     1      -9.858   3.355 -32.900  1.00  0.00    -0.351 N 
HETATM   13  H   UNL     1      -9.961   2.475 -32.396  1.00  0.00     0.163 HD
HETATM   14  O   UNL     1      -8.678   4.396 -34.555  1.00  0.00    -0.266 OA
BRANCH  12  15
HETATM   15  C   UNL     1     -10.957   4.284 -32.892  1.00  0.00     0.161 C 
BRANCH  15  16
HETATM   16  C   UNL     1     -12.284   3.597 -32.701  1.00  0.00    -0.038 A 
HETATM   17  C   UNL     1     -13.204   4.084 -31.763  1.00  0.00     0.009 A 
HETATM   18  C   UNL     1     -14.431   3.449 -31.580  1.00  0.00     0.003 A 
HETATM   19  C   UNL     1     -14.759   2.323 -32.336  1.00  0.00     0.037 A 
HETATM   20  C   UNL     1     -13.862   1.831 -33.286  1.00  0.00     0.068 A 
HETATM   21  C   UNL     1     -12.633   2.476 -33.467  1.00  0.00     0.045 A 
BRANCH  20  22
HETATM   22  O   UNL     1     -14.064   0.744 -34.092  1.00  0.00    -0.356 OA
HETATM   23  C   UNL     1     -13.547  -0.498 -33.632  1.00  0.00     0.210 C 
ENDBRANCH  20  22
ENDBRANCH  15  16
ENDBRANCH  12  15
ENDBRANCH   1  11
BRANCH  10  24
HETATM   24  C   UNL     1      -5.725   3.426 -32.531  1.00  0.00     0.313 C 
BRANCH  24  25
HETATM   25  N   UNL     1      -6.261   3.780 -31.200  1.00  0.00     0.084 N 
HETATM   26  C   UNL     1      -5.272   3.519 -30.145  1.00  0.00     0.309 C 
HETATM   27  C   UNL     1      -6.614   5.206 -31.186  1.00  0.00     0.309 C 
ENDBRANCH  24  25
ENDBRANCH  10  24
BRANCH   6  28
HETATM   28  C   UNL     1      -5.597  -3.135 -34.472  1.00  0.00     0.010 A 
HETATM   29  C   UNL     1      -6.470  -4.034 -35.128  1.00  0.00     0.152 A 
HETATM   30  N   UNL     1      -5.950  -5.258 -35.262  1.00  0.00    -0.187 NA
HETATM   31  N   UNL     1      -4.741  -5.147 -34.690  1.00  0.00    -0.289 N 
HETATM   32  H   UNL     1      -4.144  -5.967 -34.665  1.00  0.00     0.188 HD
HETATM   33  C   UNL     1      -4.481  -3.899 -34.202  1.00  0.00     0.123 A 
ENDBRANCH   6  28
TORSDOF 7
ENDMDL
MODEL 5
REMARK VINA RESULT:      -8.2      2.593      6.753
REMARK  7 active torsions:
REMARK  status: ('A' for Active; 'I' for Inactive)
REMARK    1  A    between atoms: O_2  and  C_3 
REMARK    2  A    between atoms: C_7  and  C_8 
REMARK    3  A    between atoms: C_8  and  N_9 
REMARK       I    between atoms: N_9  and  C_10 
REMARK    4  A    between atoms: C_10  and  C_12 
REMARK    5  A    between atoms: C_17  and  C_26 
REMARK    6  A    between atoms: C_21  and  C_22 
REMARK    7  A    between atoms: C_22  and  N_23 
ROOT
HETATM    1  C   UNL     1      -6.375   2.409 -33.415  1.00  0.00     0.110 A 
HETATM    2  N   UNL     1      -6.741   1.235 -34.034  1.00  0.00    -0.351 N 
HETATM    3  H   UNL     1      -7.569   1.147 -34.607  1.00  0.00     0.166 HD
HETATM    4  C   UNL     1      -5.857   0.226 -33.754  1.00  0.00     0.044 A 
HETATM    5  C   UNL     1      -5.867  -1.119 -34.154  1.00  0.00     0.042 A 
HETATM    6  C   UNL     1      -4.817  -1.949 -33.729  1.00  0.00    -0.021 A 
HETATM    7  C   UNL     1      -3.800  -1.417 -32.929  1.00  0.00     0.013 A 
HETATM    8  C   UNL     1      -3.805  -0.068 -32.541  1.00  0.00     0.015 A 
HETATM    9  C   UNL     1      -4.857   0.773 -32.956  1.00  0.00     0.001 A 
HETATM   10  C   UNL     1      -5.173   2.161 -32.751  1.00  0.00     0.015 A 
ENDROOT
BRANCH   1  11
HETATM   11  C   UNL     1      -7.189   3.597 -33.565  1.00  0.00     0.269 C 
HETATM   12  N   UNL     1      -8.384   3.575 -32.897  1.00  0.00    -0.351 N 
HETATM   13  H   UNL     1      -8.669   2.692 -32.474  1.00  0.00     0.163 HD
HETATM   14  O   UNL     1      -6.839   4.534 -34.279  1.00  0.00    -0.266 OA
BRANCH  12  15
HETATM   15  C   UNL     1      -9.353   4.633 -32.999  1.00  0.00     0.161 C 
BRANCH  15  16
HETATM   16  C   UNL     1     -10.605   4.195 -33.714  1.00  0.00    -0.038 A 
HETATM   17  C   UNL     1     -10.672   4.239 -35.112  1.00  0.00     0.009 A 
HETATM   18  C   UNL     1     -11.830   3.839 -35.777  1.00  0.00     0.003 A 
HETATM   19  C   UNL     1     -12.934   3.383 -35.055  1.00  0.00     0.037 A 
HETATM   20  C   UNL     1     -12.880   3.317 -33.661  1.00  0.00     0.068 A 
HETATM   21  C   UNL     1     -11.714   3.718 -33.000  1.00  0.00     0.045 A 
BRANCH  20  22
HETATM   22  O   UNL     1     -13.886   2.886 -32.840  1.00  0.00    -0.356 OA
HETATM   23  C   UNL     1     -14.404   1.586 -33.090  1.00  0.00     0.210 C 
ENDBRANCH  20  22
ENDBRANCH  15  16
ENDBRANCH  12  15
ENDBRANCH   1  11
BRANCH  10  24
HETATM   24  C   UNL     1      -4.312   3.144 -32.007  1.00  0.00     0.313 C 
BRANCH  24  25
HETATM   25  N   UNL     1      -3.873   4.238 -32.898  1.00  0.00     0.084 N 
HETATM   26  C   UNL     1      -4.089   5.550 -32.270  1.00  0.00     0.309 C 
HETATM   27  C   UNL     1      -2.444   4.076 -33.194  1.00  0.00     0.309 C 
ENDBRANCH  24  25
ENDBRANCH  10  24
BRANCH   6  28
HETATM   28  C   UNL     1      -4.781  -3.353 -34.105  1.00  0.00     0.010 A 
HETATM   29  C   UNL     1      -5.700  -4.136 -34.843  1.00  0.00     0.152 A 
HETATM   30  N   UNL     1      -5.316  -5.410 -34.966  1.00  0.00    -0.187 NA
HETATM   31  N   UNL     1      -4.148  -5.448 -34.305  1.00  0.00    -0.289 N 
HETATM   32  H   UNL     1      -3.654  -6.332 -34.254  1.00  0.00     0.188 HD
HETATM   33  C   UNL     1      -3.784  -4.246 -33.771  1.00  0.00     0.123 A 
ENDBRANCH   6  28
TORSDOF 7
ENDMDL
MODEL 6
REMARK VINA RESULT:      -7.9      3.259      9.667
REMARK  7 active torsions:
REMARK  status: ('A' for Active; 'I' for Inactive)
REMARK    1  A    between atoms: O_2  and  C_3 
REMARK    2  A    between atoms: C_7  and  C_8 
REMARK    3  A    between atoms: C_8  and  N_9 
REMARK       I    between atoms: N_9  and  C_10 
REMARK    4  A    between atoms: C_10  and  C_12 
REMARK    5  A    between atoms: C_17  and  C_26 
REMARK    6  A    between atoms: C_21  and  C_22 
REMARK    7  A    between atoms: C_22  and  N_23 
ROOT
HETATM    1  C   UNL     1      -3.823   5.292 -31.039  1.00  0.00     0.110 A 
HETATM    2  N   UNL     1      -3.611   6.001 -29.878  1.00  0.00    -0.351 N 
HETATM    3  H   UNL     1      -4.321   6.123 -29.167  1.00  0.00     0.166 HD
HETATM    4  C   UNL     1      -2.344   6.520 -29.832  1.00  0.00     0.044 A 
HETATM    5  C   UNL     1      -1.730   7.317 -28.856  1.00  0.00     0.042 A 
HETATM    6  C   UNL     1      -0.396   7.707 -29.055  1.00  0.00    -0.021 A 
HETATM    7  C   UNL     1       0.278   7.293 -30.209  1.00  0.00     0.013 A 
HETATM    8  C   UNL     1      -0.353   6.493 -31.175  1.00  0.00     0.015 A 
HETATM    9  C   UNL     1      -1.694   6.101 -30.989  1.00  0.00     0.001 A 
HETATM   10  C   UNL     1      -2.622   5.309 -31.750  1.00  0.00     0.015 A 
ENDROOT
BRANCH   1  11
HETATM   11  C   UNL     1      -5.110   4.678 -31.294  1.00  0.00     0.269 C 
HETATM   12  N   UNL     1      -5.122   3.310 -31.251  1.00  0.00    -0.351 N 
HETATM   13  H   UNL     1      -4.223   2.834 -31.188  1.00  0.00     0.163 HD
HETATM   14  O   UNL     1      -6.102   5.348 -31.569  1.00  0.00    -0.266 OA
BRANCH  12  15
HETATM   15  C   UNL     1      -6.293   2.532 -31.558  1.00  0.00     0.161 C 
BRANCH  15  16
HETATM   16  C   UNL     1      -5.948   1.195 -32.161  1.00  0.00    -0.038 A 
HETATM   17  C   UNL     1      -6.823   0.580 -33.065  1.00  0.00     0.009 A 
HETATM   18  C   UNL     1      -6.509  -0.659 -33.622  1.00  0.00     0.003 A 
HETATM   19  C   UNL     1      -5.314  -1.297 -33.288  1.00  0.00     0.037 A 
HETATM   20  C   UNL     1      -4.421  -0.693 -32.401  1.00  0.00     0.068 A 
HETATM   21  C   UNL     1      -4.742   0.552 -31.848  1.00  0.00     0.045 A 
BRANCH  20  22
HETATM   22  O   UNL     1      -3.220  -1.208 -31.997  1.00  0.00    -0.356 OA
HETATM   23  C   UNL     1      -3.119  -2.625 -31.936  1.00  0.00     0.210 C 
ENDBRANCH  20  22
ENDBRANCH  15  16
ENDBRANCH  12  15
ENDBRANCH   1  11
BRANCH  10  24
HETATM   24  C   UNL     1      -2.303   4.597 -33.034  1.00  0.00     0.313 C 
BRANCH  24  25
HETATM   25  N   UNL     1      -2.330   5.534 -34.176  1.00  0.00     0.084 N 
HETATM   26  C   UNL     1      -1.129   5.387 -35.010  1.00  0.00     0.309 C 
HETATM   27  C   UNL     1      -3.520   5.264 -34.994  1.00  0.00     0.309 C 
ENDBRANCH  24  25
ENDBRANCH  10  24
BRANCH   6  28
HETATM   28  C   UNL     1       0.288   8.542 -28.079  1.00  0.00     0.010 A 
HETATM   29  C   UNL     1      -0.190   9.598 -27.269  1.00  0.00     0.152 A 
HETATM   30  N   UNL     1       0.762  10.137 -26.502  1.00  0.00    -0.187 NA
HETATM   31  N   UNL     1       1.856   9.427 -26.819  1.00  0.00    -0.289 N 
HETATM   32  H   UNL     1       2.729   9.658 -26.357  1.00  0.00     0.188 HD
HETATM   33  C   UNL     1       1.627   8.462 -27.757  1.00  0.00     0.123 A 
ENDBRANCH   6  28
TORSDOF 7
ENDMDL
MODEL 7
REMARK VINA RESULT:      -7.9      2.284      3.200
REMARK  7 active torsions:
REMARK  status: ('A' for Active; 'I' for Inactive)
REMARK    1  A    between atoms: O_2  and  C_3 
REMARK    2  A    between atoms: C_7  and  C_8 
REMARK    3  A    between atoms: C_8  and  N_9 
REMARK       I    between atoms: N_9  and  C_10 
REMARK    4  A    between atoms: C_10  and  C_12 
REMARK    5  A    between atoms: C_17  and  C_26 
REMARK    6  A    between atoms: C_21  and  C_22 
REMARK    7  A    between atoms: C_22  and  N_23 
ROOT
HETATM    1  C   UNL     1      -4.045   3.515 -31.896  1.00  0.00     0.110 A 
HETATM    2  N   UNL     1      -3.217   2.434 -32.105  1.00  0.00    -0.351 N 
HETATM    3  H   UNL     1      -2.208   2.503 -32.107  1.00  0.00     0.166 HD
HETATM    4  C   UNL     1      -3.936   1.289 -32.325  1.00  0.00     0.044 A 
HETATM    5  C   UNL     1      -3.496  -0.014 -32.602  1.00  0.00     0.042 A 
HETATM    6  C   UNL     1      -4.459  -1.021 -32.774  1.00  0.00    -0.021 A 
HETATM    7  C   UNL     1      -5.817  -0.702 -32.663  1.00  0.00     0.013 A 
HETATM    8  C   UNL     1      -6.238   0.607 -32.382  1.00  0.00     0.015 A 
HETATM    9  C   UNL     1      -5.281   1.628 -32.214  1.00  0.00     0.001 A 
HETATM   10  C   UNL     1      -5.355   3.035 -31.926  1.00  0.00     0.015 A 
ENDROOT
BRANCH   1  11
HETATM   11  C   UNL     1      -3.482   4.829 -31.665  1.00  0.00     0.269 C 
HETATM   12  N   UNL     1      -2.301   5.081 -32.311  1.00  0.00    -0.351 N 
HETATM   13  H   UNL     1      -1.845   4.297 -32.776  1.00  0.00     0.163 HD
HETATM   14  O   UNL     1      -4.017   5.637 -30.909  1.00  0.00    -0.266 OA
BRANCH  12  15
HETATM   15  C   UNL     1      -1.562   6.302 -32.134  1.00  0.00     0.161 C 
BRANCH  15  16
HETATM   16  C   UNL     1      -0.775   6.312 -30.849  1.00  0.00    -0.038 A 
HETATM   17  C   UNL     1      -0.018   5.195 -30.475  1.00  0.00     0.009 A 
HETATM   18  C   UNL     1       0.708   5.199 -29.285  1.00  0.00     0.003 A 
HETATM   19  C   UNL     1       0.693   6.322 -28.456  1.00  0.00     0.037 A 
HETATM   20  C   UNL     1      -0.042   7.451 -28.820  1.00  0.00     0.068 A 
HETATM   21  C   UNL     1      -0.767   7.441 -30.017  1.00  0.00     0.045 A 
BRANCH  20  22
HETATM   22  O   UNL     1      -0.136   8.612 -28.102  1.00  0.00    -0.356 OA
HETATM   23  C   UNL     1      -1.308   9.392 -28.297  1.00  0.00     0.210 C 
ENDBRANCH  20  22
ENDBRANCH  15  16
ENDBRANCH  12  15
ENDBRANCH   1  11
BRANCH  10  24
HETATM   24  C   UNL     1      -6.621   3.798 -31.655  1.00  0.00     0.313 C 
BRANCH  24  25
HETATM   25  N   UNL     1      -7.170   3.451 -30.327  1.00  0.00     0.084 N 
HETATM   26  C   UNL     1      -7.014   4.566 -29.382  1.00  0.00     0.309 C 
HETATM   27  C   UNL     1      -8.597   3.131 -30.464  1.00  0.00     0.309 C 
ENDBRANCH  24  25
ENDBRANCH  10  24
BRANCH   6  28
HETATM   28  C   UNL     1      -4.059  -2.388 -33.073  1.00  0.00     0.010 A 
HETATM   29  C   UNL     1      -4.316  -3.199 -34.203  1.00  0.00     0.152 A 
HETATM   30  N   UNL     1      -3.786  -4.421 -34.096  1.00  0.00    -0.187 NA
HETATM   31  N   UNL     1      -3.188  -4.397 -32.895  1.00  0.00    -0.289 N 
HETATM   32  H   UNL     1      -2.707  -5.233 -32.580  1.00  0.00     0.188 HD
HETATM   33  C   UNL     1      -3.322  -3.205 -32.242  1.00  0.00     0.123 A 
ENDBRANCH   6  28
TORSDOF 7
ENDMDL
MODEL 8
REMARK VINA RESULT:      -7.9      3.321      5.320
REMARK  7 active torsions:
REMARK  status: ('A' for Active; 'I' for Inactive)
REMARK    1  A    between atoms: O_2  and  C_3 
REMARK    2  A    between atoms: C_7  and  C_8 
REMARK    3  A    between atoms: C_8  and  N_9 
REMARK       I    between atoms: N_9  and  C_10 
REMARK    4  A    between atoms: C_10  and  C_12 
REMARK    5  A    between atoms: C_17  and  C_26 
REMARK    6  A    between atoms: C_21  and  C_22 
REMARK    7  A    between atoms: C_22  and  N_23 
ROOT
HETATM    1  C   UNL     1      -6.995   3.538 -33.469  1.00  0.00     0.110 A 
HETATM    2  N   UNL     1      -8.277   3.710 -33.944  1.00  0.00    -0.351 N 
HETATM    3  H   UNL     1      -8.589   4.558 -34.396  1.00  0.00     0.166 HD
HETATM    4  C   UNL     1      -9.051   2.606 -33.703  1.00  0.00     0.044 A 
HETATM    5  C   UNL     1     -10.403   2.371 -33.993  1.00  0.00     0.042 A 
HETATM    6  C   UNL     1     -10.955   1.127 -33.645  1.00  0.00    -0.021 A 
HETATM    7  C   UNL     1     -10.148   0.166 -33.026  1.00  0.00     0.013 A 
HETATM    8  C   UNL     1      -8.796   0.417 -32.747  1.00  0.00     0.015 A 
HETATM    9  C   UNL     1      -8.233   1.664 -33.086  1.00  0.00     0.001 A 
HETATM   10  C   UNL     1      -6.924   2.245 -32.950  1.00  0.00     0.015 A 
ENDROOT
BRANCH   1  11
HETATM   11  C   UNL     1      -6.020   4.600 -33.605  1.00  0.00     0.269 C 
HETATM   12  N   UNL     1      -5.721   5.269 -32.449  1.00  0.00    -0.351 N 
HETATM   13  H   UNL     1      -6.297   5.074 -31.631  1.00  0.00     0.163 HD
HETATM   14  O   UNL     1      -5.533   4.895 -34.694  1.00  0.00    -0.266 OA
BRANCH  12  15
HETATM   15  C   UNL     1      -4.836   6.403 -32.412  1.00  0.00     0.161 C 
BRANCH  15  16
HETATM   16  C   UNL     1      -3.430   6.018 -32.029  1.00  0.00    -0.038 A 
HETATM   17  C   UNL     1      -2.645   5.251 -32.898  1.00  0.00     0.009 A 
HETATM   18  C   UNL     1      -1.347   4.889 -32.545  1.00  0.00     0.003 A 
HETATM   19  C   UNL     1      -0.812   5.295 -31.321  1.00  0.00     0.037 A 
HETATM   20  C   UNL     1      -1.573   6.073 -30.448  1.00  0.00     0.068 A 
HETATM   21  C   UNL     1      -2.876   6.435 -30.810  1.00  0.00     0.045 A 
BRANCH  20  22
HETATM   22  O   UNL     1      -1.167   6.538 -29.227  1.00  0.00    -0.356 OA
HETATM   23  C   UNL     1       0.108   6.107 -28.769  1.00  0.00     0.210 C 
ENDBRANCH  20  22
ENDBRANCH  15  16
ENDBRANCH  12  15
ENDBRANCH   1  11
BRANCH  10  24
HETATM   24  C   UNL     1      -5.716   1.538 -32.402  1.00  0.00     0.313 C 
BRANCH  24  25
HETATM   25  N   UNL     1      -5.856   1.308 -30.949  1.00  0.00     0.084 N 
HETATM   26  C   UNL     1      -4.959   0.235 -30.495  1.00  0.00     0.309 C 
HETATM   27  C   UNL     1      -5.527   2.546 -30.230  1.00  0.00     0.309 C 
ENDBRANCH  24  25
ENDBRANCH  10  24
BRANCH   6  28
HETATM   28  C   UNL     1     -12.353   0.833 -33.913  1.00  0.00     0.010 A 
HETATM   29  C   UNL     1     -13.349   1.596 -34.567  1.00  0.00     0.152 A 
HETATM   30  N   UNL     1     -14.535   0.982 -34.600  1.00  0.00    -0.187 NA
HETATM   31  N   UNL     1     -14.304  -0.178 -33.966  1.00  0.00    -0.289 N 
HETATM   32  H   UNL     1     -15.074  -0.829 -33.859  1.00  0.00     0.188 HD
HETATM   33  C   UNL     1     -13.016  -0.315 -33.534  1.00  0.00     0.123 A 
ENDBRANCH   6  28
TORSDOF 7
ENDMDL
MODEL 9
REMARK VINA RESULT:      -7.8     16.391     18.284
REMARK  7 active torsions:
REMARK  status: ('A' for Active; 'I' for Inactive)
REMARK    1  A    between atoms: O_2  and  C_3 
REMARK    2  A    between atoms: C_7  and  C_8 
REMARK    3  A    between atoms: C_8  and  N_9 
REMARK       I    between atoms: N_9  and  C_10 
REMARK    4  A    between atoms: C_10  and  C_12 
REMARK    5  A    between atoms: C_17  and  C_26 
REMARK    6  A    between atoms: C_21  and  C_22 
REMARK    7  A    between atoms: C_22  and  N_23 
ROOT
HETATM    1  C   UNL     1      -4.187 -12.840 -38.528  1.00  0.00     0.110 A 
HETATM    2  N   UNL     1      -5.053 -12.929 -39.594  1.00  0.00    -0.351 N 
HETATM    3  H   UNL     1      -4.760 -12.817 -40.556  1.00  0.00     0.166 HD
HETATM    4  C   UNL     1      -6.337 -13.163 -39.177  1.00  0.00     0.044 A 
HETATM    5  C   UNL     1      -7.518 -13.294 -39.922  1.00  0.00     0.042 A 
HETATM    6  C   UNL     1      -8.716 -13.549 -39.235  1.00  0.00    -0.021 A 
HETATM    7  C   UNL     1      -8.699 -13.665 -37.841  1.00  0.00     0.013 A 
HETATM    8  C   UNL     1      -7.506 -13.533 -37.112  1.00  0.00     0.015 A 
HETATM    9  C   UNL     1      -6.299 -13.272 -37.791  1.00  0.00     0.001 A 
HETATM   10  C   UNL     1      -4.935 -13.083 -37.375  1.00  0.00     0.015 A 
ENDROOT
BRANCH   1  11
HETATM   11  C   UNL     1      -2.781 -12.574 -38.751  1.00  0.00     0.269 C 
HETATM   12  N   UNL     1      -2.106 -13.542 -39.446  1.00  0.00    -0.351 N 
HETATM   13  H   UNL     1      -2.595 -14.419 -39.623  1.00  0.00     0.163 HD
HETATM   14  O   UNL     1      -2.235 -11.566 -38.307  1.00  0.00    -0.266 OA
BRANCH  12  15
HETATM   15  C   UNL     1      -0.690 -13.483 -39.689  1.00  0.00     0.161 C 
BRANCH  15  16
HETATM   16  C   UNL     1       0.074 -14.489 -38.868  1.00  0.00    -0.038 A 
HETATM   17  C   UNL     1      -0.330 -14.789 -37.561  1.00  0.00     0.009 A 
HETATM   18  C   UNL     1       0.376 -15.716 -36.797  1.00  0.00     0.003 A 
HETATM   19  C   UNL     1       1.492 -16.363 -37.332  1.00  0.00     0.037 A 
HETATM   20  C   UNL     1       1.901 -16.089 -38.638  1.00  0.00     0.068 A 
HETATM   21  C   UNL     1       1.185 -15.159 -39.400  1.00  0.00     0.045 A 
BRANCH  20  22
HETATM   22  O   UNL     1       2.969 -16.655 -39.279  1.00  0.00    -0.356 OA
HETATM   23  C   UNL     1       3.179 -18.045 -39.067  1.00  0.00     0.210 C 
ENDBRANCH  20  22
ENDBRANCH  15  16
ENDBRANCH  12  15
ENDBRANCH   1  11
BRANCH  10  24
HETATM   24  C   UNL     1      -4.437 -13.196 -35.962  1.00  0.00     0.313 C 
BRANCH  24  25
HETATM   25  N   UNL     1      -4.610 -14.572 -35.451  1.00  0.00     0.084 N 
HETATM   26  C   UNL     1      -3.334 -15.302 -35.455  1.00  0.00     0.309 C 
HETATM   27  C   UNL     1      -5.128 -14.516 -34.078  1.00  0.00     0.309 C 
ENDBRANCH  24  25
ENDBRANCH  10  24
BRANCH   6  28
HETATM   28  C   UNL     1      -9.972 -13.684 -39.956  1.00  0.00     0.010 A 
HETATM   29  C   UNL     1     -10.517 -14.781 -40.664  1.00  0.00     0.152 A 
HETATM   30  N   UNL     1     -11.704 -14.506 -41.213  1.00  0.00    -0.187 NA
HETATM   31  N   UNL     1     -11.923 -13.230 -40.859  1.00  0.00    -0.289 N 
HETATM   32  H   UNL     1     -12.781 -12.785 -41.169  1.00  0.00     0.188 HD
HETATM   33  C   UNL     1     -10.918 -12.692 -40.108  1.00  0.00     0.123 A 
ENDBRANCH   6  28
TORSDOF 7
ENDMDL
MODEL 10
REMARK VINA RESULT:      -7.7      3.581      9.942
REMARK  7 active torsions:
REMARK  status: ('A' for Active; 'I' for Inactive)
REMARK    1  A    between atoms: O_2  and  C_3 
REMARK    2  A    between atoms: C_7  and  C_8 
REMARK    3  A    between atoms: C_8  and  N_9 
REMARK       I    between atoms: N_9  and  C_10 
REMARK    4  A    between atoms: C_10  and  C_12 
REMARK    5  A    between atoms: C_17  and  C_26 
REMARK    6  A    between atoms: C_21  and  C_22 
REMARK    7  A    between atoms: C_22  and  N_23 
ROOT
HETATM    1  C   UNL     1      -3.299   6.068 -30.711  1.00  0.00     0.110 A 
HETATM    2  N   UNL     1      -3.095   6.714 -29.511  1.00  0.00    -0.351 N 
HETATM    3  H   UNL     1      -3.845   6.946 -28.874  1.00  0.00     0.166 HD
HETATM    4  C   UNL     1      -1.771   7.006 -29.319  1.00  0.00     0.044 A 
HETATM    5  C   UNL     1      -1.138   7.672 -28.259  1.00  0.00     0.042 A 
HETATM    6  C   UNL     1       0.257   7.829 -28.307  1.00  0.00    -0.021 A 
HETATM    7  C   UNL     1       0.970   7.321 -29.398  1.00  0.00     0.013 A 
HETATM    8  C   UNL     1       0.320   6.655 -30.449  1.00  0.00     0.015 A 
HETATM    9  C   UNL     1      -1.080   6.497 -30.415  1.00  0.00     0.001 A 
HETATM   10  C   UNL     1      -2.043   5.887 -31.292  1.00  0.00     0.015 A 
ENDROOT
BRANCH   1  11
HETATM   11  C   UNL     1      -4.636   5.688 -31.116  1.00  0.00     0.269 C 
HETATM   12  N   UNL     1      -4.876   4.341 -31.148  1.00  0.00    -0.351 N 
HETATM   13  H   UNL     1      -4.077   3.719 -31.028  1.00  0.00     0.163 HD
HETATM   14  O   UNL     1      -5.473   6.525 -31.445  1.00  0.00    -0.266 OA
BRANCH  12  15
HETATM   15  C   UNL     1      -6.121   3.782 -31.603  1.00  0.00     0.161 C 
BRANCH  15  16
HETATM   16  C   UNL     1      -6.056   2.283 -31.746  1.00  0.00    -0.038 A 
HETATM   17  C   UNL     1      -5.945   1.468 -30.613  1.00  0.00     0.009 A 
HETATM   18  C   UNL     1      -5.880   0.082 -30.742  1.00  0.00     0.003 A 
HETATM   19  C   UNL     1      -5.932  -0.509 -32.006  1.00  0.00     0.037 A 
HETATM   20  C   UNL     1      -6.058   0.285 -33.146  1.00  0.00     0.068 A 
HETATM   21  C   UNL     1      -6.126   1.676 -33.009  1.00  0.00     0.045 A 
BRANCH  20  22
HETATM   22  O   UNL     1      -6.125  -0.168 -34.436  1.00  0.00    -0.356 OA
HETATM   23  C   UNL     1      -7.064   0.472 -35.290  1.00  0.00     0.210 C 
ENDBRANCH  20  22
ENDBRANCH  15  16
ENDBRANCH  12  15
ENDBRANCH   1  11
BRANCH  10  24
HETATM   24  C   UNL     1      -1.714   5.148 -32.559  1.00  0.00     0.313 C 
BRANCH  24  25
HETATM   25  N   UNL     1      -2.318   5.817 -33.730  1.00  0.00     0.084 N 
HETATM   26  C   UNL     1      -1.849   7.205 -33.849  1.00  0.00     0.309 C 
HETATM   27  C   UNL     1      -1.954   5.080 -34.948  1.00  0.00     0.309 C 
ENDBRANCH  24  25
ENDBRANCH  10  24
BRANCH   6  28
HETATM   28  C   UNL     1       0.964   8.520 -27.240  1.00  0.00     0.010 A 
HETATM   29  C   UNL     1       1.902   8.044 -26.294  1.00  0.00     0.152 A 
HETATM   30  N   UNL     1       2.319   8.995 -25.453  1.00  0.00    -0.187 NA
HETATM   31  N   UNL     1       1.648  10.085 -25.857  1.00  0.00    -0.289 N 
HETATM   32  H   UNL     1       1.798  10.954 -25.357  1.00  0.00     0.188 HD
HETATM   33  C   UNL     1       0.824   9.854 -26.921  1.00  0.00     0.123 A 
ENDBRANCH   6  28
TORSDOF 7
ENDMDL
