MODEL 1
REMARK VINA RESULT:      -7.6      0.000      0.000
REMARK  3 active torsions:
REMARK  status: ('A' for Active; 'I' for Inactive)
REMARK    1  A    between atoms: C_8  and  N_9 
REMARK       I    between atoms: N_9  and  C_10 
REMARK       I    between atoms: C_10  and  N_11 
REMARK    2  A    between atoms: N_11  and  C_12 
REMARK    3  A    between atoms: C_16  and  O_17 
ROOT
HETATM    1  N   UNL     1     -10.789   1.500 -34.765  1.00  0.00    -0.305 N 
HETATM    2  C   UNL     1      -9.843   0.816 -34.022  1.00  0.00     0.325 C 
HETATM    3  N   UNL     1      -8.698   0.616 -34.786  1.00  0.00    -0.309 N 
HETATM    4  O   UNL     1      -9.971   0.459 -32.861  1.00  0.00    -0.247 OA
HETATM    5  H   UNL     1     -10.460   1.959 -35.599  1.00  0.00     0.171 HD
HETATM    6  H   UNL     1      -8.810   0.747 -35.780  1.00  0.00     0.170 HD
ENDROOT
BRANCH   1   7
HETATM    7  C   UNL     1     -12.071   1.849 -34.374  1.00  0.00     0.086 A 
HETATM    8  C   UNL     1     -12.510   3.160 -34.435  1.00  0.00     0.052 A 
HETATM    9  C   UNL     1     -11.852   4.418 -34.860  1.00  0.00     0.072 C 
HETATM   10  N   UNL     1     -13.795   3.147 -33.972  1.00  0.00    -0.280 N 
HETATM   11  H   UNL     1     -14.430   3.929 -33.860  1.00  0.00     0.189 HD
HETATM   12  N   UNL     1     -14.236   1.931 -33.641  1.00  0.00    -0.177 NA
HETATM   13  C   UNL     1     -13.194   1.120 -33.883  1.00  0.00     0.079 A 
HETATM   14  C   UNL     1     -13.373  -0.334 -33.640  1.00  0.00     0.075 C 
ENDBRANCH   1   7
BRANCH   3  15
HETATM   15  C   UNL     1      -7.434   0.162 -34.354  1.00  0.00     0.039 A 
HETATM   16  C   UNL     1      -6.536   0.932 -33.613  1.00  0.00     0.056 A 
HETATM   17  C   UNL     1      -5.274   0.422 -33.278  1.00  0.00     0.071 A 
HETATM   18 CL   UNL     1      -4.199   1.425 -32.371  1.00  0.00    -0.081 Cl
HETATM   19  C   UNL     1      -4.897  -0.866 -33.675  1.00  0.00     0.111 A 
HETATM   20  C   UNL     1      -5.792  -1.633 -34.425  1.00  0.00     0.071 A 
HETATM   21 CL   UNL     1      -5.381  -3.205 -35.012  1.00  0.00    -0.081 Cl
HETATM   22  C   UNL     1      -7.056  -1.127 -34.750  1.00  0.00     0.056 A 
BRANCH  19  23
HETATM   23  O   UNL     1      -3.626  -1.307 -33.409  1.00  0.00    -0.352 OA
HETATM   24  C   UNL     1      -3.573  -2.090 -32.216  1.00  0.00     0.210 C 
ENDBRANCH  19  23
ENDBRANCH   3  15
TORSDOF 3
ENDMDL
MODEL 2
REMARK VINA RESULT:      -7.5      1.687      3.135
REMARK  3 active torsions:
REMARK  status: ('A' for Active; 'I' for Inactive)
REMARK    1  A    between atoms: C_8  and  N_9 
REMARK       I    between atoms: N_9  and  C_10 
REMARK       I    between atoms: C_10  and  N_11 
REMARK    2  A    between atoms: N_11  and  C_12 
REMARK    3  A    between atoms: C_16  and  O_17 
ROOT
HETATM    1  N   UNL     1     -10.142   0.831 -33.171  1.00  0.00    -0.305 N 
HETATM    2  C   UNL     1      -9.000   0.479 -33.869  1.00  0.00     0.325 C 
HETATM    3  N   UNL     1      -8.255  -0.432 -33.127  1.00  0.00    -0.309 N 
HETATM    4  O   UNL     1      -8.693   0.880 -34.981  1.00  0.00    -0.247 OA
HETATM    5  H   UNL     1     -10.400   0.234 -32.401  1.00  0.00     0.171 HD
HETATM    6  H   UNL     1      -8.495  -0.495 -32.149  1.00  0.00     0.170 HD
ENDROOT
BRANCH   1   7
HETATM    7  C   UNL     1     -11.112   1.742 -33.553  1.00  0.00     0.086 A 
HETATM    8  C   UNL     1     -12.424   1.352 -33.762  1.00  0.00     0.052 A 
HETATM    9  C   UNL     1     -13.105   0.039 -33.669  1.00  0.00     0.072 C 
HETATM   10  N   UNL     1     -13.096   2.482 -34.132  1.00  0.00    -0.280 N 
HETATM   11  H   UNL     1     -14.075   2.578 -34.379  1.00  0.00     0.189 HD
HETATM   12  N   UNL     1     -12.335   3.578 -34.155  1.00  0.00    -0.177 NA
HETATM   13  C   UNL     1     -11.114   3.146 -33.800  1.00  0.00     0.079 A 
HETATM   14  C   UNL     1     -10.023   4.148 -33.700  1.00  0.00     0.075 C 
ENDBRANCH   1   7
BRANCH   3  15
HETATM   15  C   UNL     1      -7.151  -1.201 -33.551  1.00  0.00     0.039 A 
HETATM   16  C   UNL     1      -7.252  -2.357 -34.326  1.00  0.00     0.056 A 
HETATM   17  C   UNL     1      -6.106  -3.095 -34.651  1.00  0.00     0.071 A 
HETATM   18 CL   UNL     1      -6.294  -4.525 -35.602  1.00  0.00    -0.081 Cl
HETATM   19  C   UNL     1      -4.844  -2.682 -34.210  1.00  0.00     0.111 A 
HETATM   20  C   UNL     1      -4.743  -1.530 -33.426  1.00  0.00     0.071 A 
HETATM   21 CL   UNL     1      -3.233  -0.989 -32.785  1.00  0.00    -0.081 Cl
HETATM   22  C   UNL     1      -5.887  -0.789 -33.111  1.00  0.00     0.056 A 
BRANCH  19  23
HETATM   23  O   UNL     1      -3.750  -3.469 -34.469  1.00  0.00    -0.352 OA
HETATM   24  C   UNL     1      -3.563  -4.467 -33.464  1.00  0.00     0.210 C 
ENDBRANCH  19  23
ENDBRANCH   3  15
TORSDOF 3
ENDMDL
MODEL 3
REMARK VINA RESULT:      -7.5      1.485      2.331
REMARK  3 active torsions:
REMARK  status: ('A' for Active; 'I' for Inactive)
REMARK    1  A    between atoms: C_8  and  N_9 
REMARK       I    between atoms: N_9  and  C_10 
REMARK       I    between atoms: C_10  and  N_11 
REMARK    2  A    between atoms: N_11  and  C_12 
REMARK    3  A    between atoms: C_16  and  O_17 
ROOT
HETATM    1  N   UNL     1     -10.564   0.947 -33.136  1.00  0.00    -0.305 N 
HETATM    2  C   UNL     1      -9.382   0.642 -33.787  1.00  0.00     0.325 C 
HETATM    3  N   UNL     1      -8.586  -0.154 -32.971  1.00  0.00    -0.309 N 
HETATM    4  O   UNL     1      -9.082   0.991 -34.918  1.00  0.00    -0.247 OA
HETATM    5  H   UNL     1     -10.793   0.384 -32.332  1.00  0.00     0.171 HD
HETATM    6  H   UNL     1      -8.843  -0.171 -31.995  1.00  0.00     0.170 HD
ENDROOT
BRANCH   1   7
HETATM    7  C   UNL     1     -11.595   1.750 -33.597  1.00  0.00     0.086 A 
HETATM    8  C   UNL     1     -12.858   1.236 -33.832  1.00  0.00     0.052 A 
HETATM    9  C   UNL     1     -13.426  -0.126 -33.697  1.00  0.00     0.072 C 
HETATM   10  N   UNL     1     -13.610   2.283 -34.282  1.00  0.00    -0.280 N 
HETATM   11  H   UNL     1     -14.583   2.280 -34.567  1.00  0.00     0.189 HD
HETATM   12  N   UNL     1     -12.947   3.440 -34.333  1.00  0.00    -0.177 NA
HETATM   13  C   UNL     1     -11.709   3.135 -33.915  1.00  0.00     0.079 A 
HETATM   14  C   UNL     1     -10.713   4.233 -33.826  1.00  0.00     0.075 C 
ENDBRANCH   1   7
BRANCH   3  15
HETATM   15  C   UNL     1      -7.414  -0.859 -33.321  1.00  0.00     0.039 A 
HETATM   16  C   UNL     1      -6.120  -0.400 -33.072  1.00  0.00     0.056 A 
HETATM   17  C   UNL     1      -5.011  -1.137 -33.510  1.00  0.00     0.071 A 
HETATM   18 CL   UNL     1      -3.432  -0.514 -33.185  1.00  0.00    -0.081 Cl
HETATM   19  C   UNL     1      -5.183  -2.344 -34.197  1.00  0.00     0.111 A 
HETATM   20  C   UNL     1      -6.478  -2.798 -34.455  1.00  0.00     0.071 A 
HETATM   21 CL   UNL     1      -6.779  -4.242 -35.355  1.00  0.00    -0.081 Cl
HETATM   22  C   UNL     1      -7.585  -2.067 -34.008  1.00  0.00     0.056 A 
BRANCH  19  23
HETATM   23  O   UNL     1      -4.084  -3.000 -34.690  1.00  0.00    -0.352 OA
HETATM   24  C   UNL     1      -3.691  -4.086 -33.849  1.00  0.00     0.210 C 
ENDBRANCH  19  23
ENDBRANCH   3  15
TORSDOF 3
ENDMDL
MODEL 4
REMARK VINA RESULT:      -7.4      1.729      2.642
REMARK  3 active torsions:
REMARK  status: ('A' for Active; 'I' for Inactive)
REMARK    1  A    between atoms: C_8  and  N_9 
REMARK       I    between atoms: N_9  and  C_10 
REMARK       I    between atoms: C_10  and  N_11 
REMARK    2  A    between atoms: N_11  and  C_12 
REMARK    3  A    between atoms: C_16  and  O_17 
ROOT
HETATM    1  N   UNL     1     -10.117   0.859 -32.911  1.00  0.00    -0.305 N 
HETATM    2  C   UNL     1      -9.063   0.450 -33.707  1.00  0.00     0.325 C 
HETATM    3  N   UNL     1      -8.174  -0.313 -32.958  1.00  0.00    -0.309 N 
HETATM    4  O   UNL     1      -8.933   0.695 -34.897  1.00  0.00    -0.247 OA
HETATM    5  H   UNL     1     -10.235   0.374 -32.036  1.00  0.00     0.171 HD
HETATM    6  H   UNL     1      -8.275  -0.241 -31.957  1.00  0.00     0.170 HD
ENDROOT
BRANCH   1   7
HETATM    7  C   UNL     1     -11.181   1.669 -33.275  1.00  0.00     0.086 A 
HETATM    8  C   UNL     1     -11.043   3.043 -33.361  1.00  0.00     0.052 A 
HETATM    9  C   UNL     1      -9.898   3.952 -33.121  1.00  0.00     0.072 C 
HETATM   10  N   UNL     1     -12.269   3.520 -33.728  1.00  0.00    -0.280 N 
HETATM   11  H   UNL     1     -12.550   4.483 -33.875  1.00  0.00     0.189 HD
HETATM   12  N   UNL     1     -13.185   2.566 -33.913  1.00  0.00    -0.177 NA
HETATM   13  C   UNL     1     -12.537   1.423 -33.642  1.00  0.00     0.079 A 
HETATM   14  C   UNL     1     -13.284   0.148 -33.786  1.00  0.00     0.075 C 
ENDBRANCH   1   7
BRANCH   3  15
HETATM   15  C   UNL     1      -7.095  -1.095 -33.423  1.00  0.00     0.039 A 
HETATM   16  C   UNL     1      -7.238  -2.230 -34.224  1.00  0.00     0.056 A 
HETATM   17  C   UNL     1      -6.114  -2.984 -34.589  1.00  0.00     0.071 A 
HETATM   18 CL   UNL     1      -6.352  -4.386 -35.571  1.00  0.00    -0.081 Cl
HETATM   19  C   UNL     1      -4.835  -2.610 -34.163  1.00  0.00     0.111 A 
HETATM   20  C   UNL     1      -4.693  -1.481 -33.354  1.00  0.00     0.071 A 
HETATM   21 CL   UNL     1      -3.159  -0.989 -32.730  1.00  0.00    -0.081 Cl
HETATM   22  C   UNL     1      -5.815  -0.722 -32.998  1.00  0.00     0.056 A 
BRANCH  19  23
HETATM   23  O   UNL     1      -3.765  -3.414 -34.462  1.00  0.00    -0.352 OA
HETATM   24  C   UNL     1      -3.577  -4.437 -33.484  1.00  0.00     0.210 C 
ENDBRANCH  19  23
ENDBRANCH   3  15
TORSDOF 3
ENDMDL
MODEL 5
REMARK VINA RESULT:      -7.4      0.505      2.046
REMARK  3 active torsions:
REMARK  status: ('A' for Active; 'I' for Inactive)
REMARK    1  A    between atoms: C_8  and  N_9 
REMARK       I    between atoms: N_9  and  C_10 
REMARK       I    between atoms: C_10  and  N_11 
REMARK    2  A    between atoms: N_11  and  C_12 
REMARK    3  A    between atoms: C_16  and  O_17 
ROOT
HETATM    1  N   UNL     1     -11.094   1.768 -34.618  1.00  0.00    -0.305 N 
HETATM    2  C   UNL     1     -10.113   0.974 -34.050  1.00  0.00     0.325 C 
HETATM    3  N   UNL     1      -8.982   0.970 -34.859  1.00  0.00    -0.309 N 
HETATM    4  O   UNL     1     -10.205   0.382 -32.985  1.00  0.00    -0.247 OA
HETATM    5  H   UNL     1     -10.797   2.399 -35.345  1.00  0.00     0.171 HD
HETATM    6  H   UNL     1      -9.121   1.300 -35.802  1.00  0.00     0.170 HD
ENDROOT
BRANCH   1   7
HETATM    7  C   UNL     1     -12.375   1.992 -34.141  1.00  0.00     0.086 A 
HETATM    8  C   UNL     1     -12.885   3.272 -34.020  1.00  0.00     0.052 A 
HETATM    9  C   UNL     1     -12.314   4.609 -34.307  1.00  0.00     0.072 C 
HETATM   10  N   UNL     1     -14.147   3.127 -33.518  1.00  0.00    -0.280 N 
HETATM   11  H   UNL     1     -14.817   3.851 -33.285  1.00  0.00     0.189 HD
HETATM   12  N   UNL     1     -14.508   1.856 -33.327  1.00  0.00    -0.177 NA
HETATM   13  C   UNL     1     -13.435   1.143 -33.706  1.00  0.00     0.079 A 
HETATM   14  C   UNL     1     -13.526  -0.337 -33.642  1.00  0.00     0.075 C 
ENDBRANCH   1   7
BRANCH   3  15
HETATM   15  C   UNL     1      -7.697   0.475 -34.552  1.00  0.00     0.039 A 
HETATM   16  C   UNL     1      -7.254  -0.808 -34.877  1.00  0.00     0.056 A 
HETATM   17  C   UNL     1      -5.981  -1.239 -34.479  1.00  0.00     0.071 A 
HETATM   18 CL   UNL     1      -5.491  -2.843 -34.897  1.00  0.00    -0.081 Cl
HETATM   19  C   UNL     1      -5.134  -0.391 -33.757  1.00  0.00     0.111 A 
HETATM   20  C   UNL     1      -5.581   0.890 -33.424  1.00  0.00     0.071 A 
HETATM   21 CL   UNL     1      -4.626   1.975 -32.479  1.00  0.00    -0.081 Cl
HETATM   22  C   UNL     1      -6.848   1.323 -33.831  1.00  0.00     0.056 A 
BRANCH  19  23
HETATM   23  O   UNL     1      -3.930  -0.868 -33.306  1.00  0.00    -0.352 OA
HETATM   24  C   UNL     1      -4.037  -1.436 -32.000  1.00  0.00     0.210 C 
ENDBRANCH  19  23
ENDBRANCH   3  15
TORSDOF 3
ENDMDL
MODEL 6
REMARK VINA RESULT:      -7.3      0.792      2.722
REMARK  3 active torsions:
REMARK  status: ('A' for Active; 'I' for Inactive)
REMARK    1  A    between atoms: C_8  and  N_9 
REMARK       I    between atoms: N_9  and  C_10 
REMARK       I    between atoms: C_10  and  N_11 
REMARK    2  A    between atoms: N_11  and  C_12 
REMARK    3  A    between atoms: C_16  and  O_17 
ROOT
HETATM    1  N   UNL     1     -11.036   1.597 -34.140  1.00  0.00    -0.305 N 
HETATM    2  C   UNL     1      -9.997   0.844 -33.622  1.00  0.00     0.325 C 
HETATM    3  N   UNL     1      -8.988   0.718 -34.571  1.00  0.00    -0.309 N 
HETATM    4  O   UNL     1      -9.950   0.376 -32.495  1.00  0.00    -0.247 OA
HETATM    5  H   UNL     1     -10.833   2.135 -34.967  1.00  0.00     0.171 HD
HETATM    6  H   UNL     1      -9.250   0.945 -35.518  1.00  0.00     0.170 HD
ENDROOT
BRANCH   1   7
HETATM    7  C   UNL     1     -12.237   1.908 -33.523  1.00  0.00     0.086 A 
HETATM    8  C   UNL     1     -13.230   0.959 -33.361  1.00  0.00     0.052 A 
HETATM    9  C   UNL     1     -13.322  -0.471 -33.743  1.00  0.00     0.072 C 
HETATM   10  N   UNL     1     -14.262   1.599 -32.736  1.00  0.00    -0.280 N 
HETATM   11  H   UNL     1     -15.164   1.222 -32.468  1.00  0.00     0.189 HD
HETATM   12  N   UNL     1     -14.010   2.879 -32.455  1.00  0.00    -0.177 NA
HETATM   13  C   UNL     1     -12.772   3.088 -32.928  1.00  0.00     0.079 A 
HETATM   14  C   UNL     1     -12.174   4.435 -32.742  1.00  0.00     0.075 C 
ENDBRANCH   1   7
BRANCH   3  15
HETATM   15  C   UNL     1      -7.679   0.224 -34.386  1.00  0.00     0.039 A 
HETATM   16  C   UNL     1      -7.253  -1.039 -34.800  1.00  0.00     0.056 A 
HETATM   17  C   UNL     1      -5.950  -1.474 -34.520  1.00  0.00     0.071 A 
HETATM   18 CL   UNL     1      -5.482  -3.053 -35.045  1.00  0.00    -0.081 Cl
HETATM   19  C   UNL     1      -5.056  -0.649 -33.829  1.00  0.00     0.111 A 
HETATM   20  C   UNL     1      -5.485   0.611 -33.406  1.00  0.00     0.071 A 
HETATM   21 CL   UNL     1      -4.468   1.665 -32.490  1.00  0.00    -0.081 Cl
HETATM   22  C   UNL     1      -6.783   1.048 -33.695  1.00  0.00     0.056 A 
BRANCH  19  23
HETATM   23  O   UNL     1      -3.817  -1.132 -33.493  1.00  0.00    -0.352 OA
HETATM   24  C   UNL     1      -3.815  -1.740 -32.200  1.00  0.00     0.210 C 
ENDBRANCH  19  23
ENDBRANCH   3  15
TORSDOF 3
ENDMDL
MODEL 7
REMARK VINA RESULT:      -6.9      3.684      7.724
REMARK  3 active torsions:
REMARK  status: ('A' for Active; 'I' for Inactive)
REMARK    1  A    between atoms: C_8  and  N_9 
REMARK       I    between atoms: N_9  and  C_10 
REMARK       I    between atoms: C_10  and  N_11 
REMARK    2  A    between atoms: N_11  and  C_12 
REMARK    3  A    between atoms: C_16  and  O_17 
ROOT
HETATM    1  N   UNL     1      -6.974  -0.927 -33.380  1.00  0.00    -0.305 N 
HETATM    2  C   UNL     1      -7.908  -0.296 -34.182  1.00  0.00     0.325 C 
HETATM    3  N   UNL     1      -8.871   0.321 -33.390  1.00  0.00    -0.309 N 
HETATM    4  O   UNL     1      -7.888  -0.256 -35.403  1.00  0.00    -0.247 OA
HETATM    5  H   UNL     1      -6.961  -0.659 -32.409  1.00  0.00     0.171 HD
HETATM    6  H   UNL     1      -8.901   0.018 -32.428  1.00  0.00     0.170 HD
ENDROOT
BRANCH   1   7
HETATM    7  C   UNL     1      -5.889  -1.684 -33.790  1.00  0.00     0.086 A 
HETATM    8  C   UNL     1      -4.591  -1.285 -33.525  1.00  0.00     0.052 A 
HETATM    9  C   UNL     1      -4.028  -0.101 -32.834  1.00  0.00     0.072 C 
HETATM   10  N   UNL     1      -3.786  -2.243 -34.072  1.00  0.00    -0.280 N 
HETATM   11  H   UNL     1      -2.772  -2.279 -34.085  1.00  0.00     0.189 HD
HETATM   12  N   UNL     1      -4.454  -3.245 -34.647  1.00  0.00    -0.177 NA
HETATM   13  C   UNL     1      -5.747  -2.923 -34.483  1.00  0.00     0.079 A 
HETATM   14  C   UNL     1      -6.771  -3.867 -34.997  1.00  0.00     0.075 C 
ENDBRANCH   1   7
BRANCH   3  15
HETATM   15  C   UNL     1      -9.863   1.241 -33.788  1.00  0.00     0.039 A 
HETATM   16  C   UNL     1      -9.594   2.502 -34.324  1.00  0.00     0.056 A 
HETATM   17  C   UNL     1     -10.644   3.378 -34.635  1.00  0.00     0.071 A 
HETATM   18 CL   UNL     1     -10.250   4.930 -35.283  1.00  0.00    -0.081 Cl
HETATM   19  C   UNL     1     -11.974   3.002 -34.419  1.00  0.00     0.111 A 
HETATM   20  C   UNL     1     -12.243   1.744 -33.875  1.00  0.00     0.071 A 
HETATM   21 CL   UNL     1     -13.852   1.228 -33.515  1.00  0.00    -0.081 Cl
HETATM   22  C   UNL     1     -11.195   0.866 -33.574  1.00  0.00     0.056 A 
BRANCH  19  23
HETATM   23  O   UNL     1     -12.976   3.910 -34.651  1.00  0.00    -0.352 OA
HETATM   24  C   UNL     1     -13.265   4.691 -33.491  1.00  0.00     0.210 C 
ENDBRANCH  19  23
ENDBRANCH   3  15
TORSDOF 3
ENDMDL
MODEL 8
REMARK VINA RESULT:      -6.9      3.639      7.851
REMARK  3 active torsions:
REMARK  status: ('A' for Active; 'I' for Inactive)
REMARK    1  A    between atoms: C_8  and  N_9 
REMARK       I    between atoms: N_9  and  C_10 
REMARK       I    between atoms: C_10  and  N_11 
REMARK    2  A    between atoms: N_11  and  C_12 
REMARK    3  A    between atoms: C_16  and  O_17 
ROOT
HETATM    1  N   UNL     1      -7.133  -0.800 -33.319  1.00  0.00    -0.305 N 
HETATM    2  C   UNL     1      -8.041  -0.147 -34.133  1.00  0.00     0.325 C 
HETATM    3  N   UNL     1      -9.046   0.422 -33.357  1.00  0.00    -0.309 N 
HETATM    4  O   UNL     1      -7.969  -0.054 -35.349  1.00  0.00    -0.247 OA
HETATM    5  H   UNL     1      -7.165  -0.575 -32.338  1.00  0.00     0.171 HD
HETATM    6  H   UNL     1      -9.113   0.077 -32.411  1.00  0.00     0.170 HD
ENDROOT
BRANCH   1   7
HETATM    7  C   UNL     1      -6.020  -1.524 -33.714  1.00  0.00     0.086 A 
HETATM    8  C   UNL     1      -4.738  -1.081 -33.441  1.00  0.00     0.052 A 
HETATM    9  C   UNL     1      -4.220   0.126 -32.753  1.00  0.00     0.072 C 
HETATM   10  N   UNL     1      -3.897  -2.016 -33.973  1.00  0.00    -0.280 N 
HETATM   11  H   UNL     1      -2.883  -2.018 -33.977  1.00  0.00     0.189 HD
HETATM   12  N   UNL     1      -4.527  -3.043 -34.548  1.00  0.00    -0.177 NA
HETATM   13  C   UNL     1      -5.831  -2.762 -34.397  1.00  0.00     0.079 A 
HETATM   14  C   UNL     1      -6.819  -3.743 -34.913  1.00  0.00     0.075 C 
ENDBRANCH   1   7
BRANCH   3  15
HETATM   15  C   UNL     1     -10.034   1.346 -33.757  1.00  0.00     0.039 A 
HETATM   16  C   UNL     1     -11.390   1.037 -33.884  1.00  0.00     0.056 A 
HETATM   17  C   UNL     1     -12.295   2.001 -34.348  1.00  0.00     0.071 A 
HETATM   18 CL   UNL     1     -13.959   1.558 -34.497  1.00  0.00    -0.081 Cl
HETATM   19  C   UNL     1     -11.858   3.287 -34.685  1.00  0.00     0.111 A 
HETATM   20  C   UNL     1     -10.500   3.593 -34.567  1.00  0.00     0.071 A 
HETATM   21 CL   UNL     1      -9.866   5.134 -35.025  1.00  0.00    -0.081 Cl
HETATM   22  C   UNL     1      -9.598   2.633 -34.094  1.00  0.00     0.056 A 
BRANCH  19  23
HETATM   23  O   UNL     1     -12.749   4.183 -35.218  1.00  0.00    -0.352 OA
HETATM   24  C   UNL     1     -13.238   5.096 -34.234  1.00  0.00     0.210 C 
ENDBRANCH  19  23
ENDBRANCH   3  15
TORSDOF 3
ENDMDL
MODEL 9
REMARK VINA RESULT:      -6.8      3.953      7.910
REMARK  3 active torsions:
REMARK  status: ('A' for Active; 'I' for Inactive)
REMARK    1  A    between atoms: C_8  and  N_9 
REMARK       I    between atoms: N_9  and  C_10 
REMARK       I    between atoms: C_10  and  N_11 
REMARK    2  A    between atoms: N_11  and  C_12 
REMARK    3  A    between atoms: C_16  and  O_17 
ROOT
HETATM    1  N   UNL     1      -5.446  -1.923 -34.577  1.00  0.00    -0.305 N 
HETATM    2  C   UNL     1      -6.117  -0.968 -33.835  1.00  0.00     0.325 C 
HETATM    3  N   UNL     1      -6.539   0.065 -34.666  1.00  0.00    -0.309 N 
HETATM    4  O   UNL     1      -6.336  -1.023 -32.634  1.00  0.00    -0.247 OA
HETATM    5  H   UNL     1      -5.569  -1.885 -35.576  1.00  0.00     0.171 HD
HETATM    6  H   UNL     1      -6.097   0.102 -35.572  1.00  0.00     0.170 HD
ENDROOT
BRANCH   1   7
HETATM    7  C   UNL     1      -4.839  -3.077 -34.109  1.00  0.00     0.086 A 
HETATM    8  C   UNL     1      -5.150  -4.319 -34.634  1.00  0.00     0.052 A 
HETATM    9  C   UNL     1      -6.093  -4.750 -35.694  1.00  0.00     0.072 C 
HETATM   10  N   UNL     1      -4.389  -5.219 -33.945  1.00  0.00    -0.280 N 
HETATM   11  H   UNL     1      -4.361  -6.227 -34.049  1.00  0.00     0.189 HD
HETATM   12  N   UNL     1      -3.589  -4.661 -33.034  1.00  0.00    -0.177 NA
HETATM   13  C   UNL     1      -3.848  -3.347 -33.120  1.00  0.00     0.079 A 
HETATM   14  C   UNL     1      -3.084  -2.428 -32.239  1.00  0.00     0.075 C 
ENDBRANCH   1   7
BRANCH   3  15
HETATM   15  C   UNL     1      -7.432   1.114 -34.362  1.00  0.00     0.039 A 
HETATM   16  C   UNL     1      -8.822   1.002 -34.420  1.00  0.00     0.056 A 
HETATM   17  C   UNL     1      -9.633   2.115 -34.162  1.00  0.00     0.071 A 
HETATM   18 CL   UNL     1     -11.348   1.921 -34.262  1.00  0.00    -0.081 Cl
HETATM   19  C   UNL     1      -9.065   3.352 -33.836  1.00  0.00     0.111 A 
HETATM   20  C   UNL     1      -7.674   3.467 -33.787  1.00  0.00     0.071 A 
HETATM   21 CL   UNL     1      -6.891   4.971 -33.459  1.00  0.00    -0.081 Cl
HETATM   22  C   UNL     1      -6.865   2.352 -34.035  1.00  0.00     0.056 A 
BRANCH  19  23
HETATM   23  O   UNL     1      -9.879   4.444 -33.673  1.00  0.00    -0.352 OA
HETATM   24  C   UNL     1     -10.228   4.648 -32.303  1.00  0.00     0.210 C 
ENDBRANCH  19  23
ENDBRANCH   3  15
TORSDOF 3
ENDMDL
MODEL 10
REMARK VINA RESULT:      -6.8      5.818      8.195
REMARK  3 active torsions:
REMARK  status: ('A' for Active; 'I' for Inactive)
REMARK    1  A    between atoms: C_8  and  N_9 
REMARK       I    between atoms: N_9  and  C_10 
REMARK       I    between atoms: C_10  and  N_11 
REMARK    2  A    between atoms: N_11  and  C_12 
REMARK    3  A    between atoms: C_16  and  O_17 
ROOT
HETATM    1  N   UNL     1      -2.932   4.310 -31.110  1.00  0.00    -0.305 N 
HETATM    2  C   UNL     1      -3.003   3.296 -32.049  1.00  0.00     0.325 C 
HETATM    3  N   UNL     1      -3.628   2.184 -31.495  1.00  0.00    -0.309 N 
HETATM    4  O   UNL     1      -2.604   3.364 -33.201  1.00  0.00    -0.247 OA
HETATM    5  H   UNL     1      -3.527   4.218 -30.302  1.00  0.00     0.171 HD
HETATM    6  H   UNL     1      -3.694   2.178 -30.489  1.00  0.00     0.170 HD
ENDROOT
BRANCH   1   7
HETATM    7  C   UNL     1      -2.345   5.556 -31.261  1.00  0.00     0.086 A 
HETATM    8  C   UNL     1      -3.098   6.674 -31.570  1.00  0.00     0.052 A 
HETATM    9  C   UNL     1      -4.548   6.871 -31.811  1.00  0.00     0.072 C 
HETATM   10  N   UNL     1      -2.213   7.711 -31.654  1.00  0.00    -0.280 N 
HETATM   11  H   UNL     1      -2.403   8.682 -31.877  1.00  0.00     0.189 HD
HETATM   12  N   UNL     1      -0.950   7.362 -31.399  1.00  0.00    -0.177 NA
HETATM   13  C   UNL     1      -1.010   6.044 -31.153  1.00  0.00     0.079 A 
HETATM   14  C   UNL     1       0.251   5.345 -30.800  1.00  0.00     0.075 C 
ENDBRANCH   1   7
BRANCH   3  15
HETATM   15  C   UNL     1      -4.093   1.029 -32.159  1.00  0.00     0.039 A 
HETATM   16  C   UNL     1      -5.160   1.018 -33.059  1.00  0.00     0.056 A 
HETATM   17  C   UNL     1      -5.595  -0.188 -33.627  1.00  0.00     0.071 A 
HETATM   18 CL   UNL     1      -6.930  -0.142 -34.724  1.00  0.00    -0.081 Cl
HETATM   19  C   UNL     1      -4.965  -1.395 -33.306  1.00  0.00     0.111 A 
HETATM   20  C   UNL     1      -3.903  -1.386 -32.399  1.00  0.00     0.071 A 
HETATM   21 CL   UNL     1      -3.114  -2.839 -31.899  1.00  0.00    -0.081 Cl
HETATM   22  C   UNL     1      -3.463  -0.180 -31.841  1.00  0.00     0.056 A 
BRANCH  19  23
HETATM   23  O   UNL     1      -5.466  -2.569 -33.809  1.00  0.00    -0.352 OA
HETATM   24  C   UNL     1      -4.751  -3.000 -34.967  1.00  0.00     0.210 C 
ENDBRANCH  19  23
ENDBRANCH   3  15
TORSDOF 3
ENDMDL
