MODEL 1
REMARK VINA RESULT:      -9.6      0.000      0.000
REMARK  3 active torsions:
REMARK  status: ('A' for Active; 'I' for Inactive)
REMARK    1  A    between atoms: C_4  and  C_5 
REMARK    2  A    between atoms: C_11  and  C_12 
REMARK    3  A    between atoms: C_21  and  N_22 
ROOT
HETATM    1  C   UNL     1      -3.687  -1.339 -32.380  1.00  0.00     0.071 A 
HETATM    2  N   UNL     1      -2.576  -1.223 -31.572  1.00  0.00    -0.274 N 
HETATM    3  H   UNL     1      -1.887  -1.939 -31.366  1.00  0.00     0.189 HD
HETATM    4  N   UNL     1      -2.397   0.004 -31.049  1.00  0.00    -0.148 NA
HETATM    5  C   UNL     1      -3.427   0.672 -31.547  1.00  0.00     0.199 A 
HETATM    6  C   UNL     1      -4.295  -0.094 -32.338  1.00  0.00     0.036 A 
HETATM    7  C   UNL     1      -5.518   0.516 -32.952  1.00  0.00     0.079 A 
HETATM    8  C   UNL     1      -5.495   2.041 -32.711  1.00  0.00     0.063 A 
HETATM    9  C   UNL     1      -6.634   2.837 -33.329  1.00  0.00     0.020 C 
HETATM   10  N   UNL     1      -7.578   3.498 -33.841  1.00  0.00    -0.096 N 
HETATM   11  C   UNL     1      -4.579   2.678 -31.940  1.00  0.00     0.139 A 
HETATM   12  O   UNL     1      -3.545   1.989 -31.301  1.00  0.00    -0.277 OA
ENDROOT
BRANCH   7  13
HETATM   13  C   UNL     1      -6.882  -0.100 -32.473  1.00  0.00     0.022 C 
HETATM   14  C   UNL     1      -7.608   0.752 -31.456  1.00  0.00    -0.025 C 
HETATM   15  C   UNL     1      -8.884   1.144 -31.582  1.00  0.00    -0.030 C 
HETATM   16  C   UNL     1      -9.726   0.837 -32.780  1.00  0.00     0.027 C 
HETATM   17  C   UNL     1      -8.902   0.400 -33.990  1.00  0.00     0.004 C 
HETATM   18  C   UNL     1      -7.811  -0.598 -33.608  1.00  0.00     0.010 C 
ENDBRANCH   7  13
BRANCH  11  19
HETATM   19  N   UNL     1      -4.560   4.030 -31.677  1.00  0.00    -0.282 NA
HETATM   20  H   UNL     1      -4.883   4.638 -32.426  1.00  0.00     0.126 HD
HETATM   21  H   UNL     1      -4.981   4.246 -30.777  1.00  0.00     0.126 HD
ENDBRANCH  11  19
BRANCH   1  22
HETATM   22  C   UNL     1      -3.989  -2.578 -33.081  1.00  0.00    -0.007 A 
HETATM   23  C   UNL     1      -4.889  -2.584 -34.156  1.00  0.00     0.014 A 
HETATM   24  C   UNL     1      -5.188  -3.774 -34.823  1.00  0.00     0.001 A 
HETATM   25  C   UNL     1      -4.594  -4.968 -34.417  1.00  0.00     0.000 A 
HETATM   26  C   UNL     1      -3.704  -4.973 -33.345  1.00  0.00     0.001 A 
HETATM   27  C   UNL     1      -3.402  -3.783 -32.678  1.00  0.00     0.014 A 
ENDBRANCH   1  22
TORSDOF 3
ENDMDL
MODEL 2
REMARK VINA RESULT:      -9.4     14.195     15.977
REMARK  3 active torsions:
REMARK  status: ('A' for Active; 'I' for Inactive)
REMARK    1  A    between atoms: C_4  and  C_5 
REMARK    2  A    between atoms: C_11  and  C_12 
REMARK    3  A    between atoms: C_21  and  N_22 
ROOT
HETATM    1  C   UNL     1      -7.792 -15.304 -37.671  1.00  0.00     0.071 A 
HETATM    2  N   UNL     1      -8.111 -16.641 -37.778  1.00  0.00    -0.274 N 
HETATM    3  H   UNL     1      -7.709 -17.414 -37.257  1.00  0.00     0.189 HD
HETATM    4  N   UNL     1      -9.100 -16.906 -38.651  1.00  0.00    -0.148 NA
HETATM    5  C   UNL     1      -9.407 -15.698 -39.100  1.00  0.00     0.199 A 
HETATM    6  C   UNL     1      -8.615 -14.663 -38.583  1.00  0.00     0.036 A 
HETATM    7  C   UNL     1      -8.827 -13.243 -39.013  1.00  0.00     0.079 A 
HETATM    8  C   UNL     1     -10.092 -13.167 -39.895  1.00  0.00     0.063 A 
HETATM    9  C   UNL     1     -10.500 -11.782 -40.369  1.00  0.00     0.020 C 
HETATM   10  N   UNL     1     -10.839 -10.632 -40.763  1.00  0.00    -0.096 N 
HETATM   11  C   UNL     1     -10.796 -14.249 -40.314  1.00  0.00     0.139 A 
HETATM   12  O   UNL     1     -10.433 -15.549 -39.956  1.00  0.00    -0.277 OA
ENDROOT
BRANCH   7  13
HETATM   13  C   UNL     1      -7.604 -12.580 -39.743  1.00  0.00     0.022 C 
HETATM   14  C   UNL     1      -6.533 -12.080 -38.800  1.00  0.00    -0.025 C 
HETATM   15  C   UNL     1      -5.237 -12.409 -38.896  1.00  0.00    -0.030 C 
HETATM   16  C   UNL     1      -4.703 -13.365 -39.917  1.00  0.00     0.027 C 
HETATM   17  C   UNL     1      -5.794 -14.220 -40.557  1.00  0.00     0.004 C 
HETATM   18  C   UNL     1      -7.025 -13.395 -40.925  1.00  0.00     0.010 C 
ENDBRANCH   7  13
BRANCH  11  19
HETATM   19  N   UNL     1     -11.904 -14.210 -41.132  1.00  0.00    -0.282 NA
HETATM   20  H   UNL     1     -12.316 -13.294 -41.288  1.00  0.00     0.126 HD
HETATM   21  H   UNL     1     -11.757 -14.735 -41.992  1.00  0.00     0.126 HD
ENDBRANCH  11  19
BRANCH   1  22
HETATM   22  C   UNL     1      -6.793 -14.836 -36.721  1.00  0.00    -0.007 A 
HETATM   23  C   UNL     1      -7.135 -13.902 -35.734  1.00  0.00     0.014 A 
HETATM   24  C   UNL     1      -6.176 -13.444 -34.828  1.00  0.00     0.001 A 
HETATM   25  C   UNL     1      -4.866 -13.912 -34.907  1.00  0.00     0.000 A 
HETATM   26  C   UNL     1      -4.514 -14.836 -35.888  1.00  0.00     0.001 A 
HETATM   27  C   UNL     1      -5.473 -15.297 -36.793  1.00  0.00     0.014 A 
ENDBRANCH   1  22
TORSDOF 3
ENDMDL
MODEL 3
REMARK VINA RESULT:      -9.2      1.366      5.272
REMARK  3 active torsions:
REMARK  status: ('A' for Active; 'I' for Inactive)
REMARK    1  A    between atoms: C_4  and  C_5 
REMARK    2  A    between atoms: C_11  and  C_12 
REMARK    3  A    between atoms: C_21  and  N_22 
ROOT
HETATM    1  C   UNL     1      -6.360   1.436 -32.543  1.00  0.00     0.071 A 
HETATM    2  N   UNL     1      -5.899   2.704 -32.259  1.00  0.00    -0.274 N 
HETATM    3  H   UNL     1      -6.426   3.570 -32.283  1.00  0.00     0.189 HD
HETATM    4  N   UNL     1      -4.611   2.751 -31.870  1.00  0.00    -0.148 NA
HETATM    5  C   UNL     1      -4.260   1.474 -31.912  1.00  0.00     0.199 A 
HETATM    6  C   UNL     1      -5.264   0.606 -32.363  1.00  0.00     0.036 A 
HETATM    7  C   UNL     1      -5.010  -0.866 -32.487  1.00  0.00     0.079 A 
HETATM    8  C   UNL     1      -3.625  -1.191 -31.886  1.00  0.00     0.063 A 
HETATM    9  C   UNL     1      -3.228  -2.658 -31.866  1.00  0.00     0.020 C 
HETATM   10  N   UNL     1      -2.897  -3.875 -31.848  1.00  0.00    -0.096 N 
HETATM   11  C   UNL     1      -2.742  -0.255 -31.455  1.00  0.00     0.139 A 
HETATM   12  O   UNL     1      -3.032   1.111 -31.504  1.00  0.00    -0.277 OA
ENDROOT
BRANCH   7  13
HETATM   13  C   UNL     1      -5.130  -1.441 -33.944  1.00  0.00     0.022 C 
HETATM   14  C   UNL     1      -4.455  -2.782 -34.124  1.00  0.00    -0.025 C 
HETATM   15  C   UNL     1      -5.062  -3.864 -34.634  1.00  0.00    -0.030 C 
HETATM   16  C   UNL     1      -6.505  -3.890 -35.030  1.00  0.00     0.027 C 
HETATM   17  C   UNL     1      -7.304  -2.731 -34.436  1.00  0.00     0.004 C 
HETATM   18  C   UNL     1      -6.556  -1.404 -34.548  1.00  0.00     0.010 C 
ENDBRANCH   7  13
BRANCH  11  19
HETATM   19  N   UNL     1      -1.487  -0.516 -30.953  1.00  0.00    -0.282 NA
HETATM   20  H   UNL     1      -1.187  -1.488 -30.975  1.00  0.00     0.126 HD
HETATM   21  H   UNL     1      -0.790   0.126 -31.323  1.00  0.00     0.126 HD
ENDBRANCH  11  19
BRANCH   1  22
HETATM   22  C   UNL     1      -7.748   1.198 -32.911  1.00  0.00    -0.007 A 
HETATM   23  C   UNL     1      -8.314   1.860 -34.009  1.00  0.00     0.014 A 
HETATM   24  C   UNL     1      -9.649   1.641 -34.357  1.00  0.00     0.001 A 
HETATM   25  C   UNL     1     -10.428   0.762 -33.606  1.00  0.00     0.000 A 
HETATM   26  C   UNL     1      -9.876   0.105 -32.509  1.00  0.00     0.001 A 
HETATM   27  C   UNL     1      -8.541   0.322 -32.161  1.00  0.00     0.014 A 
ENDBRANCH   1  22
TORSDOF 3
ENDMDL
MODEL 4
REMARK VINA RESULT:      -9.2      2.012      2.667
REMARK  3 active torsions:
REMARK  status: ('A' for Active; 'I' for Inactive)
REMARK    1  A    between atoms: C_4  and  C_5 
REMARK    2  A    between atoms: C_11  and  C_12 
REMARK    3  A    between atoms: C_21  and  N_22 
ROOT
HETATM    1  C   UNL     1      -5.761  -0.232 -31.876  1.00  0.00     0.071 A 
HETATM    2  N   UNL     1      -5.951  -0.606 -30.563  1.00  0.00    -0.274 N 
HETATM    3  H   UNL     1      -6.102  -1.544 -30.206  1.00  0.00     0.189 HD
HETATM    4  N   UNL     1      -5.879   0.408 -29.681  1.00  0.00    -0.148 NA
HETATM    5  C   UNL     1      -5.636   1.445 -30.469  1.00  0.00     0.199 A 
HETATM    6  C   UNL     1      -5.596   1.144 -31.838  1.00  0.00     0.036 A 
HETATM    7  C   UNL     1      -5.354   2.217 -32.856  1.00  0.00     0.079 A 
HETATM    8  C   UNL     1      -5.001   3.532 -32.126  1.00  0.00     0.063 A 
HETATM    9  C   UNL     1      -4.656   4.720 -33.010  1.00  0.00     0.020 C 
HETATM   10  N   UNL     1      -4.370   5.706 -33.743  1.00  0.00    -0.096 N 
HETATM   11  C   UNL     1      -5.053   3.696 -30.780  1.00  0.00     0.139 A 
HETATM   12  O   UNL     1      -5.420   2.655 -29.924  1.00  0.00    -0.277 OA
ENDROOT
BRANCH   7  13
HETATM   13  C   UNL     1      -6.528   2.447 -33.873  1.00  0.00     0.022 C 
HETATM   14  C   UNL     1      -6.629   1.375 -34.935  1.00  0.00    -0.025 C 
HETATM   15  C   UNL     1      -7.751   0.693 -35.207  1.00  0.00    -0.030 C 
HETATM   16  C   UNL     1      -9.027   0.868 -34.445  1.00  0.00     0.027 C 
HETATM   17  C   UNL     1      -8.827   1.575 -33.106  1.00  0.00     0.004 C 
HETATM   18  C   UNL     1      -7.897   2.780 -33.230  1.00  0.00     0.010 C 
ENDBRANCH   7  13
BRANCH  11  19
HETATM   19  N   UNL     1      -4.781   4.868 -30.109  1.00  0.00    -0.282 NA
HETATM   20  H   UNL     1      -4.185   5.535 -30.593  1.00  0.00     0.126 HD
HETATM   21  H   UNL     1      -5.626   5.289 -29.728  1.00  0.00     0.126 HD
ENDBRANCH  11  19
BRANCH   1  22
HETATM   22  C   UNL     1      -5.736  -1.214 -32.950  1.00  0.00    -0.007 A 
HETATM   23  C   UNL     1      -6.926  -1.804 -33.398  1.00  0.00     0.014 A 
HETATM   24  C   UNL     1      -6.905  -2.754 -34.421  1.00  0.00     0.001 A 
HETATM   25  C   UNL     1      -5.692  -3.127 -34.998  1.00  0.00     0.000 A 
HETATM   26  C   UNL     1      -4.503  -2.552 -34.555  1.00  0.00     0.001 A 
HETATM   27  C   UNL     1      -4.524  -1.599 -33.533  1.00  0.00     0.014 A 
ENDBRANCH   1  22
TORSDOF 3
ENDMDL
MODEL 5
REMARK VINA RESULT:      -9.1      2.395      6.099
REMARK  3 active torsions:
REMARK  status: ('A' for Active; 'I' for Inactive)
REMARK    1  A    between atoms: C_4  and  C_5 
REMARK    2  A    between atoms: C_11  and  C_12 
REMARK    3  A    between atoms: C_21  and  N_22 
ROOT
HETATM    1  C   UNL     1      -6.853   1.451 -34.260  1.00  0.00     0.071 A 
HETATM    2  N   UNL     1      -7.737   0.831 -35.118  1.00  0.00    -0.274 N 
HETATM    3  H   UNL     1      -8.502   1.260 -35.629  1.00  0.00     0.189 HD
HETATM    4  N   UNL     1      -7.499  -0.479 -35.307  1.00  0.00    -0.148 NA
HETATM    5  C   UNL     1      -6.435  -0.682 -34.544  1.00  0.00     0.199 A 
HETATM    6  C   UNL     1      -6.004   0.444 -33.829  1.00  0.00     0.036 A 
HETATM    7  C   UNL     1      -4.827   0.365 -32.905  1.00  0.00     0.079 A 
HETATM    8  C   UNL     1      -4.158  -1.018 -33.059  1.00  0.00     0.063 A 
HETATM    9  C   UNL     1      -2.898  -1.251 -32.241  1.00  0.00     0.020 C 
HETATM   10  N   UNL     1      -1.852  -1.445 -31.563  1.00  0.00    -0.096 N 
HETATM   11  C   UNL     1      -4.662  -2.031 -33.809  1.00  0.00     0.139 A 
HETATM   12  O   UNL     1      -5.847  -1.891 -34.535  1.00  0.00    -0.277 OA
ENDROOT
BRANCH   7  13
HETATM   13  C   UNL     1      -5.144   0.662 -31.396  1.00  0.00     0.022 C 
HETATM   14  C   UNL     1      -4.866   2.090 -30.986  1.00  0.00    -0.025 C 
HETATM   15  C   UNL     1      -5.760   2.882 -30.378  1.00  0.00    -0.030 C 
HETATM   16  C   UNL     1      -7.167   2.465 -30.085  1.00  0.00     0.027 C 
HETATM   17  C   UNL     1      -7.601   1.239 -30.887  1.00  0.00     0.004 C 
HETATM   18  C   UNL     1      -6.523   0.157 -30.905  1.00  0.00     0.010 C 
ENDBRANCH   7  13
BRANCH  11  19
HETATM   19  N   UNL     1      -4.106  -3.285 -33.931  1.00  0.00    -0.282 NA
HETATM   20  H   UNL     1      -3.097  -3.342 -33.819  1.00  0.00     0.126 HD
HETATM   21  H   UNL     1      -4.610  -3.977 -33.381  1.00  0.00     0.126 HD
ENDBRANCH  11  19
BRANCH   1  22
HETATM   22  C   UNL     1      -6.924   2.882 -34.001  1.00  0.00    -0.007 A 
HETATM   23  C   UNL     1      -5.776   3.679 -34.106  1.00  0.00     0.014 A 
HETATM   24  C   UNL     1      -5.840   5.050 -33.847  1.00  0.00     0.001 A 
HETATM   25  C   UNL     1      -7.051   5.632 -33.474  1.00  0.00     0.000 A 
HETATM   26  C   UNL     1      -8.195   4.846 -33.360  1.00  0.00     0.001 A 
HETATM   27  C   UNL     1      -8.133   3.475 -33.621  1.00  0.00     0.014 A 
ENDBRANCH   1  22
TORSDOF 3
ENDMDL
MODEL 6
REMARK VINA RESULT:      -9.1      3.000      4.960
REMARK  3 active torsions:
REMARK  status: ('A' for Active; 'I' for Inactive)
REMARK    1  A    between atoms: C_4  and  C_5 
REMARK    2  A    between atoms: C_11  and  C_12 
REMARK    3  A    between atoms: C_21  and  N_22 
ROOT
HETATM    1  C   UNL     1      -6.772   2.658 -33.923  1.00  0.00     0.071 A 
HETATM    2  N   UNL     1      -5.760   3.551 -33.638  1.00  0.00    -0.274 N 
HETATM    3  H   UNL     1      -4.781   3.339 -33.474  1.00  0.00     0.189 HD
HETATM    4  N   UNL     1      -6.144   4.840 -33.629  1.00  0.00    -0.148 NA
HETATM    5  C   UNL     1      -7.434   4.748 -33.917  1.00  0.00     0.199 A 
HETATM    6  C   UNL     1      -7.909   3.438 -34.066  1.00  0.00     0.036 A 
HETATM    7  C   UNL     1      -9.353   3.172 -34.370  1.00  0.00     0.079 A 
HETATM    8  C   UNL     1     -10.064   4.514 -34.648  1.00  0.00     0.063 A 
HETATM    9  C   UNL     1     -11.529   4.430 -35.043  1.00  0.00     0.020 C 
HETATM   10  N   UNL     1     -12.745   4.360 -35.371  1.00  0.00    -0.096 N 
HETATM   11  C   UNL     1      -9.485   5.732 -34.492  1.00  0.00     0.139 A 
HETATM   12  O   UNL     1      -8.159   5.870 -34.075  1.00  0.00    -0.277 OA
ENDROOT
BRANCH   7  13
HETATM   13  C   UNL     1     -10.124   2.353 -33.274  1.00  0.00     0.022 C 
HETATM   14  C   UNL     1     -10.205   0.872 -33.567  1.00  0.00    -0.025 C 
HETATM   15  C   UNL     1      -9.829  -0.084 -32.705  1.00  0.00    -0.030 C 
HETATM   16  C   UNL     1      -9.223   0.204 -31.367  1.00  0.00     0.027 C 
HETATM   17  C   UNL     1      -8.709   1.637 -31.245  1.00  0.00     0.004 C 
HETATM   18  C   UNL     1      -9.700   2.651 -31.814  1.00  0.00     0.010 C 
ENDBRANCH   7  13
BRANCH  11  19
HETATM   19  N   UNL     1     -10.110   6.942 -34.695  1.00  0.00    -0.282 NA
HETATM   20  H   UNL     1     -10.648   7.032 -35.553  1.00  0.00     0.126 HD
HETATM   21  H   UNL     1     -10.619   7.248 -33.868  1.00  0.00     0.126 HD
ENDBRANCH  11  19
BRANCH   1  22
HETATM   22  C   UNL     1      -6.514   1.231 -34.043  1.00  0.00    -0.007 A 
HETATM   23  C   UNL     1      -7.073   0.495 -35.097  1.00  0.00     0.014 A 
HETATM   24  C   UNL     1      -6.835  -0.876 -35.208  1.00  0.00     0.001 A 
HETATM   25  C   UNL     1      -6.042  -1.524 -34.262  1.00  0.00     0.000 A 
HETATM   26  C   UNL     1      -5.488  -0.802 -33.207  1.00  0.00     0.001 A 
HETATM   27  C   UNL     1      -5.723   0.570 -33.096  1.00  0.00     0.014 A 
ENDBRANCH   1  22
TORSDOF 3
ENDMDL
MODEL 7
REMARK VINA RESULT:      -8.8      3.782      6.899
REMARK  3 active torsions:
REMARK  status: ('A' for Active; 'I' for Inactive)
REMARK    1  A    between atoms: C_4  and  C_5 
REMARK    2  A    between atoms: C_11  and  C_12 
REMARK    3  A    between atoms: C_21  and  N_22 
ROOT
HETATM    1  C   UNL     1      -6.345   4.975 -33.771  1.00  0.00     0.071 A 
HETATM    2  N   UNL     1      -7.363   5.893 -33.629  1.00  0.00    -0.274 N 
HETATM    3  H   UNL     1      -7.275   6.899 -33.529  1.00  0.00     0.189 HD
HETATM    4  N   UNL     1      -8.599   5.362 -33.676  1.00  0.00    -0.148 NA
HETATM    5  C   UNL     1      -8.342   4.074 -33.853  1.00  0.00     0.199 A 
HETATM    6  C   UNL     1      -6.979   3.747 -33.874  1.00  0.00     0.036 A 
HETATM    7  C   UNL     1      -6.531   2.326 -34.044  1.00  0.00     0.079 A 
HETATM    8  C   UNL     1      -7.760   1.445 -34.354  1.00  0.00     0.063 A 
HETATM    9  C   UNL     1      -7.483  -0.025 -34.625  1.00  0.00     0.020 C 
HETATM   10  N   UNL     1      -7.253  -1.245 -34.849  1.00  0.00    -0.096 N 
HETATM   11  C   UNL     1      -9.043   1.887 -34.328  1.00  0.00     0.139 A 
HETATM   12  O   UNL     1      -9.360   3.214 -34.029  1.00  0.00    -0.277 OA
ENDROOT
BRANCH   7  13
HETATM   13  C   UNL     1      -5.718   1.737 -32.836  1.00  0.00     0.022 C 
HETATM   14  C   UNL     1      -4.231   1.995 -32.922  1.00  0.00    -0.025 C 
HETATM   15  C   UNL     1      -3.510   2.558 -31.942  1.00  0.00    -0.030 C 
HETATM   16  C   UNL     1      -4.106   3.059 -30.664  1.00  0.00     0.027 C 
HETATM   17  C   UNL     1      -5.621   3.237 -30.745  1.00  0.00     0.004 C 
HETATM   18  C   UNL     1      -6.299   2.056 -31.437  1.00  0.00     0.010 C 
ENDBRANCH   7  13
BRANCH  11  19
HETATM   19  N   UNL     1     -10.158   1.112 -34.562  1.00  0.00    -0.282 NA
HETATM   20  H   UNL     1     -10.292   0.795 -35.519  1.00  0.00     0.126 HD
HETATM   21  H   UNL     1     -10.250   0.366 -33.877  1.00  0.00     0.126 HD
ENDBRANCH  11  19
BRANCH   1  22
HETATM   22  C   UNL     1      -4.950   5.389 -33.814  1.00  0.00    -0.007 A 
HETATM   23  C   UNL     1      -4.138   5.036 -34.900  1.00  0.00     0.014 A 
HETATM   24  C   UNL     1      -2.797   5.423 -34.938  1.00  0.00     0.001 A 
HETATM   25  C   UNL     1      -2.256   6.161 -33.887  1.00  0.00     0.000 A 
HETATM   26  C   UNL     1      -3.053   6.511 -32.799  1.00  0.00     0.001 A 
HETATM   27  C   UNL     1      -4.395   6.126 -32.761  1.00  0.00     0.014 A 
ENDBRANCH   1  22
TORSDOF 3
ENDMDL
MODEL 8
REMARK VINA RESULT:      -8.8      3.269      4.478
REMARK  3 active torsions:
REMARK  status: ('A' for Active; 'I' for Inactive)
REMARK    1  A    between atoms: C_4  and  C_5 
REMARK    2  A    between atoms: C_11  and  C_12 
REMARK    3  A    between atoms: C_21  and  N_22 
ROOT
HETATM    1  C   UNL     1      -5.896   1.097 -32.046  1.00  0.00     0.071 A 
HETATM    2  N   UNL     1      -5.224   0.039 -31.471  1.00  0.00    -0.274 N 
HETATM    3  H   UNL     1      -5.537  -0.924 -31.400  1.00  0.00     0.189 HD
HETATM    4  N   UNL     1      -4.001   0.348 -31.003  1.00  0.00    -0.148 NA
HETATM    5  C   UNL     1      -3.909   1.638 -31.294  1.00  0.00     0.199 A 
HETATM    6  C   UNL     1      -5.052   2.185 -31.894  1.00  0.00     0.036 A 
HETATM    7  C   UNL     1      -5.108   3.637 -32.261  1.00  0.00     0.079 A 
HETATM    8  C   UNL     1      -3.715   4.267 -32.039  1.00  0.00     0.063 A 
HETATM    9  C   UNL     1      -3.568   5.729 -32.428  1.00  0.00     0.020 C 
HETATM   10  N   UNL     1      -3.445   6.942 -32.749  1.00  0.00    -0.096 N 
HETATM   11  C   UNL     1      -2.667   3.621 -31.467  1.00  0.00     0.139 A 
HETATM   12  O   UNL     1      -2.764   2.294 -31.039  1.00  0.00    -0.277 OA
ENDROOT
BRANCH   7  13
HETATM   13  C   UNL     1      -6.215   4.469 -31.519  1.00  0.00     0.022 C 
HETATM   14  C   UNL     1      -7.540   4.500 -32.247  1.00  0.00    -0.025 C 
HETATM   15  C   UNL     1      -8.711   4.167 -31.684  1.00  0.00    -0.030 C 
HETATM   16  C   UNL     1      -8.838   3.665 -30.280  1.00  0.00     0.027 C 
HETATM   17  C   UNL     1      -7.508   3.190 -29.697  1.00  0.00     0.004 C 
HETATM   18  C   UNL     1      -6.369   4.157 -30.010  1.00  0.00     0.010 C 
ENDBRANCH   7  13
BRANCH  11  19
HETATM   19  N   UNL     1      -1.429   4.172 -31.223  1.00  0.00    -0.282 NA
HETATM   20  H   UNL     1      -0.759   4.128 -31.987  1.00  0.00     0.126 HD
HETATM   21  H   UNL     1      -1.502   5.098 -30.808  1.00  0.00     0.126 HD
ENDBRANCH  11  19
BRANCH   1  22
HETATM   22  C   UNL     1      -7.201   0.920 -32.665  1.00  0.00    -0.007 A 
HETATM   23  C   UNL     1      -7.401   1.265 -34.009  1.00  0.00     0.014 A 
HETATM   24  C   UNL     1      -8.655   1.107 -34.602  1.00  0.00     0.001 A 
HETATM   25  C   UNL     1      -9.720   0.607 -33.855  1.00  0.00     0.000 A 
HETATM   26  C   UNL     1      -9.533   0.267 -32.517  1.00  0.00     0.001 A 
HETATM   27  C   UNL     1      -8.278   0.424 -31.923  1.00  0.00     0.014 A 
ENDBRANCH   1  22
TORSDOF 3
ENDMDL
MODEL 9
REMARK VINA RESULT:      -8.7      2.433      3.858
REMARK  3 active torsions:
REMARK  status: ('A' for Active; 'I' for Inactive)
REMARK    1  A    between atoms: C_4  and  C_5 
REMARK    2  A    between atoms: C_11  and  C_12 
REMARK    3  A    between atoms: C_21  and  N_22 
ROOT
HETATM    1  C   UNL     1      -5.858   2.089 -33.010  1.00  0.00     0.071 A 
HETATM    2  N   UNL     1      -4.729   2.380 -32.273  1.00  0.00    -0.274 N 
HETATM    3  H   UNL     1      -3.958   1.757 -32.056  1.00  0.00     0.189 HD
HETATM    4  N   UNL     1      -4.657   3.655 -31.850  1.00  0.00    -0.148 NA
HETATM    5  C   UNL     1      -5.775   4.174 -32.337  1.00  0.00     0.199 A 
HETATM    6  C   UNL     1      -6.593   3.264 -33.022  1.00  0.00     0.036 A 
HETATM    7  C   UNL     1      -7.902   3.697 -33.610  1.00  0.00     0.079 A 
HETATM    8  C   UNL     1      -8.030   5.230 -33.479  1.00  0.00     0.063 A 
HETATM    9  C   UNL     1      -9.275   5.856 -34.088  1.00  0.00     0.020 C 
HETATM   10  N   UNL     1     -10.307   6.375 -34.593  1.00  0.00    -0.096 N 
HETATM   11  C   UNL     1      -7.151   6.015 -32.806  1.00  0.00     0.139 A 
HETATM   12  O   UNL     1      -6.021   5.486 -32.178  1.00  0.00    -0.277 OA
ENDROOT
BRANCH   7  13
HETATM   13  C   UNL     1      -9.168   2.983 -33.015  1.00  0.00     0.022 C 
HETATM   14  C   UNL     1      -9.817   2.004 -33.967  1.00  0.00    -0.025 C 
HETATM   15  C   UNL     1     -10.087   0.727 -33.660  1.00  0.00    -0.030 C 
HETATM   16  C   UNL     1      -9.720   0.098 -32.352  1.00  0.00     0.027 C 
HETATM   17  C   UNL     1      -8.676   0.902 -31.579  1.00  0.00     0.004 C 
HETATM   18  C   UNL     1      -8.982   2.398 -31.593  1.00  0.00     0.010 C 
ENDBRANCH   7  13
BRANCH  11  19
HETATM   19  N   UNL     1      -7.264   7.378 -32.642  1.00  0.00    -0.282 NA
HETATM   20  H   UNL     1      -7.756   7.691 -31.808  1.00  0.00     0.126 HD
HETATM   21  H   UNL     1      -6.375   7.851 -32.784  1.00  0.00     0.126 HD
ENDBRANCH  11  19
BRANCH   1  22
HETATM   22  C   UNL     1      -6.059   0.775 -33.603  1.00  0.00    -0.007 A 
HETATM   23  C   UNL     1      -6.769   0.641 -34.804  1.00  0.00     0.014 A 
HETATM   24  C   UNL     1      -6.972  -0.619 -35.370  1.00  0.00     0.001 A 
HETATM   25  C   UNL     1      -6.472  -1.756 -34.736  1.00  0.00     0.000 A 
HETATM   26  C   UNL     1      -5.770  -1.633 -33.539  1.00  0.00     0.001 A 
HETATM   27  C   UNL     1      -5.565  -0.372 -32.973  1.00  0.00     0.014 A 
ENDBRANCH   1  22
TORSDOF 3
ENDMDL
MODEL 10
REMARK VINA RESULT:      -8.7      3.028      4.791
REMARK  3 active torsions:
REMARK  status: ('A' for Active; 'I' for Inactive)
REMARK    1  A    between atoms: C_4  and  C_5 
REMARK    2  A    between atoms: C_11  and  C_12 
REMARK    3  A    between atoms: C_21  and  N_22 
ROOT
HETATM    1  C   UNL     1      -6.545   2.613 -33.936  1.00  0.00     0.071 A 
HETATM    2  N   UNL     1      -5.660   3.532 -34.462  1.00  0.00    -0.274 N 
HETATM    3  H   UNL     1      -4.823   3.340 -35.002  1.00  0.00     0.189 HD
HETATM    4  N   UNL     1      -6.005   4.815 -34.251  1.00  0.00    -0.148 NA
HETATM    5  C   UNL     1      -7.137   4.693 -33.573  1.00  0.00     0.199 A 
HETATM    6  C   UNL     1      -7.513   3.371 -33.297  1.00  0.00     0.036 A 
HETATM    7  C   UNL     1      -8.759   3.072 -32.518  1.00  0.00     0.079 A 
HETATM    8  C   UNL     1      -9.540   4.385 -32.295  1.00  0.00     0.063 A 
HETATM    9  C   UNL     1     -10.874   4.260 -31.576  1.00  0.00     0.020 C 
HETATM   10  N   UNL     1     -11.980   4.157 -30.980  1.00  0.00    -0.096 N 
HETATM   11  C   UNL     1      -9.078   5.615 -32.633  1.00  0.00     0.139 A 
HETATM   12  O   UNL     1      -7.834   5.794 -33.243  1.00  0.00    -0.277 OA
ENDROOT
BRANCH   7  13
HETATM   13  C   UNL     1      -8.529   2.326 -31.155  1.00  0.00     0.022 C 
HETATM   14  C   UNL     1      -8.295   0.840 -31.308  1.00  0.00    -0.025 C 
HETATM   15  C   UNL     1      -7.245   0.189 -30.787  1.00  0.00    -0.030 C 
HETATM   16  C   UNL     1      -6.141   0.869 -30.041  1.00  0.00     0.027 C 
HETATM   17  C   UNL     1      -6.110   2.379 -30.273  1.00  0.00     0.004 C 
HETATM   18  C   UNL     1      -7.505   2.996 -30.206  1.00  0.00     0.010 C 
ENDBRANCH   7  13
BRANCH  11  19
HETATM   19  N   UNL     1      -9.738   6.803 -32.409  1.00  0.00    -0.282 NA
HETATM   20  H   UNL     1      -9.716   7.480 -33.167  1.00  0.00     0.126 HD
HETATM   21  H   UNL     1     -10.672   6.652 -32.034  1.00  0.00     0.126 HD
ENDBRANCH  11  19
BRANCH   1  22
HETATM   22  C   UNL     1      -6.360   1.183 -34.134  1.00  0.00    -0.007 A 
HETATM   23  C   UNL     1      -7.287   0.446 -34.884  1.00  0.00     0.014 A 
HETATM   24  C   UNL     1      -7.118  -0.928 -35.067  1.00  0.00     0.001 A 
HETATM   25  C   UNL     1      -6.024  -1.577 -34.496  1.00  0.00     0.000 A 
HETATM   26  C   UNL     1      -5.101  -0.853 -33.743  1.00  0.00     0.001 A 
HETATM   27  C   UNL     1      -5.268   0.521 -33.561  1.00  0.00     0.014 A 
ENDBRANCH   1  22
TORSDOF 3
ENDMDL
