MODEL 1
REMARK VINA RESULT:      -8.3      0.000      0.000
REMARK  3 active torsions:
REMARK  status: ('A' for Active; 'I' for Inactive)
REMARK    1  A    between atoms: C_3  and  N_4 
REMARK       I    between atoms: N_4  and  C_5 
REMARK    2  A    between atoms: C_5  and  C_6 
REMARK    3  A    between atoms: C_6  and  C_7 
ROOT
HETATM    1  C   UNL     1      -5.884   0.423 -31.833  1.00  0.00     0.286 C 
HETATM    2  N   UNL     1      -6.968   0.091 -32.868  1.00  0.00    -0.056 N 
HETATM    3  H   UNL     1      -6.522  -0.168 -33.766  1.00  0.00     0.278 HD
HETATM    4  H   UNL     1      -7.470  -0.760 -32.575  1.00  0.00     0.278 HD
HETATM    5  C   UNL     1      -7.915   1.241 -33.029  1.00  0.00     0.209 C 
HETATM    6  C   UNL     1      -8.625   1.454 -31.673  1.00  0.00     0.115 C 
HETATM    7  N   UNL     1      -7.664   1.644 -30.587  1.00  0.00    -0.353 N 
HETATM    8  C   UNL     1      -6.481   0.938 -30.504  1.00  0.00     0.249 C 
HETATM    9  O   UNL     1      -5.907   0.821 -29.428  1.00  0.00    -0.271 OA
HETATM   10  C   UNL     1      -8.909   0.960 -34.147  1.00  0.00     0.035 C 
HETATM   11  C   UNL     1      -9.899   2.119 -34.257  1.00  0.00     0.002 C 
HETATM   12  C   UNL     1     -10.605   2.394 -32.927  1.00  0.00     0.002 C 
HETATM   13  C   UNL     1      -9.621   2.609 -31.773  1.00  0.00     0.027 C 
HETATM   14  H   UNL     1      -8.022   1.923 -29.674  1.00  0.00     0.163 HD
ENDROOT
BRANCH   1  15
HETATM   15  C   UNL     1      -4.993  -0.794 -31.615  1.00  0.00     0.146 C 
BRANCH  15  16
HETATM   16  C   UNL     1      -3.932  -0.768 -32.674  1.00  0.00     0.224 C 
HETATM   17  N   UNL     1      -3.876  -1.628 -33.716  1.00  0.00    -0.325 N 
HETATM   18  H   UNL     1      -2.979  -1.574 -34.202  1.00  0.00     0.169 HD
HETATM   19  O   UNL     1      -2.929  -0.079 -32.439  1.00  0.00    -0.273 OA
BRANCH  17  20
HETATM   20  C   UNL     1      -4.711  -2.651 -34.205  1.00  0.00     0.073 A 
HETATM   21  C   UNL     1      -5.925  -2.479 -34.863  1.00  0.00     0.033 A 
HETATM   22  C   UNL     1      -6.667  -3.597 -35.273  1.00  0.00     0.002 A 
HETATM   23  C   UNL     1      -6.197  -4.891 -35.041  1.00  0.00     0.003 A 
HETATM   24  C   UNL     1      -4.970  -5.075 -34.414  1.00  0.00     0.044 A 
HETATM   25  C   UNL     1      -4.239  -3.962 -34.017  1.00  0.00     0.143 A 
HETATM   26  F   UNL     1      -3.066  -4.147 -33.391  1.00  0.00    -0.204 F 
ENDBRANCH  17  20
ENDBRANCH  15  16
ENDBRANCH   1  15
TORSDOF 3
ENDMDL
MODEL 2
REMARK VINA RESULT:      -8.2      2.925      4.068
REMARK  3 active torsions:
REMARK  status: ('A' for Active; 'I' for Inactive)
REMARK    1  A    between atoms: C_3  and  N_4 
REMARK       I    between atoms: N_4  and  C_5 
REMARK    2  A    between atoms: C_5  and  C_6 
REMARK    3  A    between atoms: C_6  and  C_7 
ROOT
HETATM    1  C   UNL     1      -8.831   2.531 -32.228  1.00  0.00     0.286 C 
HETATM    2  N   UNL     1      -9.532   3.007 -33.507  1.00  0.00    -0.056 N 
HETATM    3  H   UNL     1      -9.464   4.038 -33.576  1.00  0.00     0.278 HD
HETATM    4  H   UNL     1      -9.016   2.660 -34.329  1.00  0.00     0.278 HD
HETATM    5  C   UNL     1     -10.956   2.541 -33.534  1.00  0.00     0.209 C 
HETATM    6  C   UNL     1     -10.941   0.997 -33.567  1.00  0.00     0.115 C 
HETATM    7  N   UNL     1     -10.172   0.442 -32.453  1.00  0.00    -0.353 N 
HETATM    8  C   UNL     1      -9.001   1.012 -31.997  1.00  0.00     0.249 C 
HETATM    9  O   UNL     1      -8.196   0.342 -31.361  1.00  0.00    -0.271 OA
HETATM   10  C   UNL     1     -11.684   3.123 -34.737  1.00  0.00     0.035 C 
HETATM   11  C   UNL     1     -13.117   2.591 -34.777  1.00  0.00     0.002 C 
HETATM   12  C   UNL     1     -13.158   1.062 -34.775  1.00  0.00     0.002 C 
HETATM   13  C   UNL     1     -12.369   0.454 -33.611  1.00  0.00     0.027 C 
HETATM   14  H   UNL     1     -10.205  -0.565 -32.302  1.00  0.00     0.163 HD
ENDROOT
BRANCH   1  15
HETATM   15  C   UNL     1      -7.361   2.932 -32.268  1.00  0.00     0.146 C 
BRANCH  15  16
HETATM   16  C   UNL     1      -6.969   3.054 -33.710  1.00  0.00     0.224 C 
HETATM   17  N   UNL     1      -6.441   2.047 -34.443  1.00  0.00    -0.325 N 
HETATM   18  H   UNL     1      -6.060   2.386 -35.329  1.00  0.00     0.169 HD
HETATM   19  O   UNL     1      -6.902   4.202 -34.173  1.00  0.00    -0.273 OA
BRANCH  17  20
HETATM   20  C   UNL     1      -6.191   0.680 -34.217  1.00  0.00     0.073 A 
HETATM   21  C   UNL     1      -5.165   0.147 -33.443  1.00  0.00     0.033 A 
HETATM   22  C   UNL     1      -5.022  -1.244 -33.327  1.00  0.00     0.002 A 
HETATM   23  C   UNL     1      -5.907  -2.109 -33.971  1.00  0.00     0.003 A 
HETATM   24  C   UNL     1      -6.955  -1.589 -34.721  1.00  0.00     0.044 A 
HETATM   25  C   UNL     1      -7.094  -0.210 -34.825  1.00  0.00     0.143 A 
HETATM   26  F   UNL     1      -8.095   0.286 -35.569  1.00  0.00    -0.204 F 
ENDBRANCH  17  20
ENDBRANCH  15  16
ENDBRANCH   1  15
TORSDOF 3
ENDMDL
MODEL 3
REMARK VINA RESULT:      -8.1      3.923      6.628
REMARK  3 active torsions:
REMARK  status: ('A' for Active; 'I' for Inactive)
REMARK    1  A    between atoms: C_3  and  N_4 
REMARK       I    between atoms: N_4  and  C_5 
REMARK    2  A    between atoms: C_5  and  C_6 
REMARK    3  A    between atoms: C_6  and  C_7 
ROOT
HETATM    1  C   UNL     1      -4.590   0.483 -31.282  1.00  0.00     0.286 C 
HETATM    2  N   UNL     1      -5.507   0.442 -32.512  1.00  0.00    -0.056 N 
HETATM    3  H   UNL     1      -6.417   0.880 -32.281  1.00  0.00     0.278 HD
HETATM    4  H   UNL     1      -5.113   1.042 -33.251  1.00  0.00     0.278 HD
HETATM    5  C   UNL     1      -5.675  -0.965 -32.999  1.00  0.00     0.209 C 
HETATM    6  C   UNL     1      -4.286  -1.474 -33.444  1.00  0.00     0.115 C 
HETATM    7  N   UNL     1      -3.298  -1.347 -32.373  1.00  0.00    -0.353 N 
HETATM    8  C   UNL     1      -3.259  -0.265 -31.517  1.00  0.00     0.249 C 
HETATM    9  O   UNL     1      -2.227   0.009 -30.916  1.00  0.00    -0.271 OA
HETATM   10  C   UNL     1      -6.685  -1.018 -34.135  1.00  0.00     0.035 C 
HETATM   11  C   UNL     1      -6.800  -2.452 -34.654  1.00  0.00     0.002 C 
HETATM   12  C   UNL     1      -5.441  -3.016 -35.076  1.00  0.00     0.002 C 
HETATM   13  C   UNL     1      -4.390  -2.906 -33.968  1.00  0.00     0.027 C 
HETATM   14  H   UNL     1      -2.382  -1.772 -32.513  1.00  0.00     0.163 HD
ENDROOT
BRANCH   1  15
HETATM   15  C   UNL     1      -4.356   1.930 -30.865  1.00  0.00     0.146 C 
BRANCH  15  16
HETATM   16  C   UNL     1      -5.416   2.763 -31.521  1.00  0.00     0.224 C 
HETATM   17  N   UNL     1      -5.164   3.777 -32.381  1.00  0.00    -0.325 N 
HETATM   18  H   UNL     1      -5.999   4.340 -32.554  1.00  0.00     0.169 HD
HETATM   19  O   UNL     1      -6.562   2.670 -31.059  1.00  0.00    -0.273 OA
BRANCH  17  20
HETATM   20  C   UNL     1      -4.006   4.298 -32.988  1.00  0.00     0.073 A 
HETATM   21  C   UNL     1      -2.726   4.315 -32.442  1.00  0.00     0.033 A 
HETATM   22  C   UNL     1      -1.664   4.894 -33.154  1.00  0.00     0.002 A 
HETATM   23  C   UNL     1      -1.871   5.447 -34.419  1.00  0.00     0.003 A 
HETATM   24  C   UNL     1      -3.138   5.409 -34.989  1.00  0.00     0.044 A 
HETATM   25  C   UNL     1      -4.182   4.827 -34.279  1.00  0.00     0.143 A 
HETATM   26  F   UNL     1      -5.408   4.813 -34.825  1.00  0.00    -0.204 F 
ENDBRANCH  17  20
ENDBRANCH  15  16
ENDBRANCH   1  15
TORSDOF 3
ENDMDL
MODEL 4
REMARK VINA RESULT:      -8.0      2.657      6.484
REMARK  3 active torsions:
REMARK  status: ('A' for Active; 'I' for Inactive)
REMARK    1  A    between atoms: C_3  and  N_4 
REMARK       I    between atoms: N_4  and  C_5 
REMARK    2  A    between atoms: C_5  and  C_6 
REMARK    3  A    between atoms: C_6  and  C_7 
ROOT
HETATM    1  C   UNL     1      -5.542   0.001 -33.773  1.00  0.00     0.286 C 
HETATM    2  N   UNL     1      -4.929  -1.114 -32.915  1.00  0.00    -0.056 N 
HETATM    3  H   UNL     1      -4.097  -0.752 -32.418  1.00  0.00     0.278 HD
HETATM    4  H   UNL     1      -5.588  -1.367 -32.163  1.00  0.00     0.278 HD
HETATM    5  C   UNL     1      -4.598  -2.308 -33.758  1.00  0.00     0.209 C 
HETATM    6  C   UNL     1      -5.922  -2.850 -34.340  1.00  0.00     0.115 C 
HETATM    7  N   UNL     1      -6.654  -1.814 -35.068  1.00  0.00    -0.353 N 
HETATM    8  C   UNL     1      -6.717  -0.504 -34.640  1.00  0.00     0.249 C 
HETATM    9  O   UNL     1      -7.624   0.226 -35.021  1.00  0.00    -0.271 OA
HETATM   10  C   UNL     1      -3.873  -3.359 -32.930  1.00  0.00     0.035 C 
HETATM   11  C   UNL     1      -3.594  -4.590 -33.794  1.00  0.00     0.002 C 
HETATM   12  C   UNL     1      -4.873  -5.146 -34.424  1.00  0.00     0.002 C 
HETATM   13  C   UNL     1      -5.655  -4.084 -35.202  1.00  0.00     0.027 C 
HETATM   14  H   UNL     1      -7.476  -2.094 -35.603  1.00  0.00     0.163 HD
ENDROOT
BRANCH   1  15
HETATM   15  C   UNL     1      -5.960   1.164 -32.881  1.00  0.00     0.146 C 
BRANCH  15  16
HETATM   16  C   UNL     1      -6.520   0.581 -31.618  1.00  0.00     0.224 C 
HETATM   17  N   UNL     1      -7.840   0.532 -31.322  1.00  0.00    -0.325 N 
HETATM   18  H   UNL     1      -7.997   0.287 -30.343  1.00  0.00     0.169 HD
HETATM   19  O   UNL     1      -5.715   0.361 -30.703  1.00  0.00    -0.273 OA
BRANCH  17  20
HETATM   20  C   UNL     1      -9.024   0.853 -32.013  1.00  0.00     0.073 A 
HETATM   21  C   UNL     1      -9.872  -0.044 -32.655  1.00  0.00     0.033 A 
HETATM   22  C   UNL     1     -11.010   0.424 -33.329  1.00  0.00     0.002 A 
HETATM   23  C   UNL     1     -11.315   1.785 -33.356  1.00  0.00     0.003 A 
HETATM   24  C   UNL     1     -10.494   2.688 -32.691  1.00  0.00     0.044 A 
HETATM   25  C   UNL     1      -9.372   2.215 -32.020  1.00  0.00     0.143 A 
HETATM   26  F   UNL     1      -8.570   3.094 -31.399  1.00  0.00    -0.204 F 
ENDBRANCH  17  20
ENDBRANCH  15  16
ENDBRANCH   1  15
TORSDOF 3
ENDMDL
MODEL 5
REMARK VINA RESULT:      -8.0      3.024      3.711
REMARK  3 active torsions:
REMARK  status: ('A' for Active; 'I' for Inactive)
REMARK    1  A    between atoms: C_3  and  N_4 
REMARK       I    between atoms: N_4  and  C_5 
REMARK    2  A    between atoms: C_5  and  C_6 
REMARK    3  A    between atoms: C_6  and  C_7 
ROOT
HETATM    1  C   UNL     1      -4.698   1.590 -31.145  1.00  0.00     0.286 C 
HETATM    2  N   UNL     1      -3.511   2.076 -31.988  1.00  0.00    -0.056 N 
HETATM    3  H   UNL     1      -2.633   1.957 -31.452  1.00  0.00     0.278 HD
HETATM    4  H   UNL     1      -3.398   1.459 -32.806  1.00  0.00     0.278 HD
HETATM    5  C   UNL     1      -3.714   3.498 -32.415  1.00  0.00     0.209 C 
HETATM    6  C   UNL     1      -4.967   3.539 -33.318  1.00  0.00     0.115 C 
HETATM    7  N   UNL     1      -6.133   2.966 -32.647  1.00  0.00    -0.353 N 
HETATM    8  C   UNL     1      -6.055   1.853 -31.836  1.00  0.00     0.249 C 
HETATM    9  O   UNL     1      -7.053   1.177 -31.618  1.00  0.00    -0.271 OA
HETATM   10  C   UNL     1      -2.480   4.017 -33.139  1.00  0.00     0.035 C 
HETATM   11  C   UNL     1      -2.728   5.448 -33.615  1.00  0.00     0.002 C 
HETATM   12  C   UNL     1      -3.982   5.550 -34.487  1.00  0.00     0.002 C 
HETATM   13  C   UNL     1      -5.222   4.966 -33.804  1.00  0.00     0.027 C 
HETATM   14  H   UNL     1      -7.041   3.060 -33.100  1.00  0.00     0.163 HD
ENDROOT
BRANCH   1  15
HETATM   15  C   UNL     1      -4.516   0.115 -30.805  1.00  0.00     0.146 C 
BRANCH  15  16
HETATM   16  C   UNL     1      -3.299  -0.367 -31.536  1.00  0.00     0.224 C 
HETATM   17  N   UNL     1      -3.331  -1.192 -32.607  1.00  0.00    -0.325 N 
HETATM   18  H   UNL     1      -2.404  -1.558 -32.829  1.00  0.00     0.169 HD
HETATM   19  O   UNL     1      -2.208  -0.193 -30.973  1.00  0.00    -0.273 OA
BRANCH  17  20
HETATM   20  C   UNL     1      -4.353  -1.747 -33.402  1.00  0.00     0.073 A 
HETATM   21  C   UNL     1      -5.431  -1.062 -33.953  1.00  0.00     0.033 A 
HETATM   22  C   UNL     1      -6.392  -1.753 -34.707  1.00  0.00     0.002 A 
HETATM   23  C   UNL     1      -6.276  -3.127 -34.925  1.00  0.00     0.003 A 
HETATM   24  C   UNL     1      -5.186  -3.817 -34.406  1.00  0.00     0.044 A 
HETATM   25  C   UNL     1      -4.236  -3.122 -33.667  1.00  0.00     0.143 A 
HETATM   26  F   UNL     1      -3.197  -3.798 -33.149  1.00  0.00    -0.204 F 
ENDBRANCH  17  20
ENDBRANCH  15  16
ENDBRANCH   1  15
TORSDOF 3
ENDMDL
MODEL 6
REMARK VINA RESULT:      -7.9      4.742      5.797
REMARK  3 active torsions:
REMARK  status: ('A' for Active; 'I' for Inactive)
REMARK    1  A    between atoms: C_3  and  N_4 
REMARK       I    between atoms: N_4  and  C_5 
REMARK    2  A    between atoms: C_5  and  C_6 
REMARK    3  A    between atoms: C_6  and  C_7 
ROOT
HETATM    1  C   UNL     1      -4.577   3.791 -32.588  1.00  0.00     0.286 C 
HETATM    2  N   UNL     1      -3.081   3.681 -32.262  1.00  0.00    -0.056 N 
HETATM    3  H   UNL     1      -2.945   3.027 -31.471  1.00  0.00     0.278 HD
HETATM    4  H   UNL     1      -2.592   3.234 -33.052  1.00  0.00     0.278 HD
HETATM    5  C   UNL     1      -2.502   5.032 -31.971  1.00  0.00     0.209 C 
HETATM    6  C   UNL     1      -2.632   5.881 -33.256  1.00  0.00     0.115 C 
HETATM    7  N   UNL     1      -4.015   5.935 -33.728  1.00  0.00    -0.353 N 
HETATM    8  C   UNL     1      -4.863   4.848 -33.679  1.00  0.00     0.249 C 
HETATM    9  O   UNL     1      -5.842   4.795 -34.414  1.00  0.00    -0.271 OA
HETATM   10  C   UNL     1      -1.053   4.906 -31.524  1.00  0.00     0.035 C 
HETATM   11  C   UNL     1      -0.466   6.297 -31.287  1.00  0.00     0.002 C 
HETATM   12  C   UNL     1      -0.602   7.192 -32.521  1.00  0.00     0.002 C 
HETATM   13  C   UNL     1      -2.043   7.274 -33.031  1.00  0.00     0.027 C 
HETATM   14  H   UNL     1      -4.236   6.573 -34.492  1.00  0.00     0.163 HD
ENDROOT
BRANCH   1  15
HETATM   15  C   UNL     1      -5.120   2.421 -32.974  1.00  0.00     0.146 C 
BRANCH  15  16
HETATM   16  C   UNL     1      -4.957   1.522 -31.786  1.00  0.00     0.224 C 
HETATM   17  N   UNL     1      -5.194   0.190 -31.800  1.00  0.00    -0.325 N 
HETATM   18  H   UNL     1      -5.221  -0.198 -30.856  1.00  0.00     0.169 HD
HETATM   19  O   UNL     1      -4.837   2.075 -30.683  1.00  0.00    -0.273 OA
BRANCH  17  20
HETATM   20  C   UNL     1      -5.525  -0.747 -32.797  1.00  0.00     0.073 A 
HETATM   21  C   UNL     1      -6.783  -0.942 -33.359  1.00  0.00     0.033 A 
HETATM   22  C   UNL     1      -6.973  -1.937 -34.331  1.00  0.00     0.002 A 
HETATM   23  C   UNL     1      -5.908  -2.733 -34.755  1.00  0.00     0.003 A 
HETATM   24  C   UNL     1      -4.640  -2.528 -34.224  1.00  0.00     0.044 A 
HETATM   25  C   UNL     1      -4.460  -1.535 -33.267  1.00  0.00     0.143 A 
HETATM   26  F   UNL     1      -3.238  -1.357 -32.742  1.00  0.00    -0.204 F 
ENDBRANCH  17  20
ENDBRANCH  15  16
ENDBRANCH   1  15
TORSDOF 3
ENDMDL
MODEL 7
REMARK VINA RESULT:      -7.8      1.912      5.811
REMARK  3 active torsions:
REMARK  status: ('A' for Active; 'I' for Inactive)
REMARK    1  A    between atoms: C_3  and  N_4 
REMARK       I    between atoms: N_4  and  C_5 
REMARK    2  A    between atoms: C_5  and  C_6 
REMARK    3  A    between atoms: C_6  and  C_7 
ROOT
HETATM    1  C   UNL     1      -5.130  -0.020 -32.598  1.00  0.00     0.286 C 
HETATM    2  N   UNL     1      -5.850  -0.585 -33.830  1.00  0.00    -0.056 N 
HETATM    3  H   UNL     1      -6.799  -0.174 -33.896  1.00  0.00     0.278 HD
HETATM    4  H   UNL     1      -5.371  -0.262 -34.683  1.00  0.00     0.278 HD
HETATM    5  C   UNL     1      -5.896  -2.082 -33.776  1.00  0.00     0.209 C 
HETATM    6  C   UNL     1      -4.439  -2.594 -33.820  1.00  0.00     0.115 C 
HETATM    7  N   UNL     1      -3.628  -2.002 -32.757  1.00  0.00    -0.353 N 
HETATM    8  C   UNL     1      -3.754  -0.685 -32.368  1.00  0.00     0.249 C 
HETATM    9  O   UNL     1      -2.834  -0.123 -31.785  1.00  0.00    -0.271 OA
HETATM   10  C   UNL     1      -6.722  -2.631 -34.930  1.00  0.00     0.035 C 
HETATM   11  C   UNL     1      -6.709  -4.159 -34.889  1.00  0.00     0.002 C 
HETATM   12  C   UNL     1      -5.284  -4.718 -34.895  1.00  0.00     0.002 C 
HETATM   13  C   UNL     1      -4.415  -4.122 -33.784  1.00  0.00     0.027 C 
HETATM   14  H   UNL     1      -2.687  -2.367 -32.612  1.00  0.00     0.163 HD
ENDROOT
BRANCH   1  15
HETATM   15  C   UNL     1      -5.010   1.494 -32.723  1.00  0.00     0.146 C 
BRANCH  15  16
HETATM   16  C   UNL     1      -5.744   2.099 -31.564  1.00  0.00     0.224 C 
HETATM   17  N   UNL     1      -7.078   2.323 -31.540  1.00  0.00    -0.325 N 
HETATM   18  H   UNL     1      -7.346   2.919 -30.755  1.00  0.00     0.169 HD
HETATM   19  O   UNL     1      -5.052   2.640 -30.689  1.00  0.00    -0.273 OA
BRANCH  17  20
HETATM   20  C   UNL     1      -8.149   2.027 -32.405  1.00  0.00     0.073 A 
HETATM   21  C   UNL     1      -8.611   2.825 -33.448  1.00  0.00     0.033 A 
HETATM   22  C   UNL     1      -9.711   2.412 -34.215  1.00  0.00     0.002 A 
HETATM   23  C   UNL     1     -10.348   1.198 -33.955  1.00  0.00     0.003 A 
HETATM   24  C   UNL     1      -9.876   0.377 -32.937  1.00  0.00     0.044 A 
HETATM   25  C   UNL     1      -8.782   0.791 -32.186  1.00  0.00     0.143 A 
HETATM   26  F   UNL     1      -8.346   0.005 -31.189  1.00  0.00    -0.204 F 
ENDBRANCH  17  20
ENDBRANCH  15  16
ENDBRANCH   1  15
TORSDOF 3
ENDMDL
MODEL 8
REMARK VINA RESULT:      -7.7      5.214      7.574
REMARK  3 active torsions:
REMARK  status: ('A' for Active; 'I' for Inactive)
REMARK    1  A    between atoms: C_3  and  N_4 
REMARK       I    between atoms: N_4  and  C_5 
REMARK    2  A    between atoms: C_5  and  C_6 
REMARK    3  A    between atoms: C_6  and  C_7 
ROOT
HETATM    1  C   UNL     1      -4.207   1.823 -31.677  1.00  0.00     0.286 C 
HETATM    2  N   UNL     1      -4.973   2.070 -32.984  1.00  0.00    -0.056 N 
HETATM    3  H   UNL     1      -5.466   2.979 -32.930  1.00  0.00     0.278 HD
HETATM    4  H   UNL     1      -4.301   2.187 -33.756  1.00  0.00     0.278 HD
HETATM    5  C   UNL     1      -5.918   0.941 -33.264  1.00  0.00     0.209 C 
HETATM    6  C   UNL     1      -5.072  -0.337 -33.461  1.00  0.00     0.115 C 
HETATM    7  N   UNL     1      -4.198  -0.586 -32.316  1.00  0.00    -0.353 N 
HETATM    8  C   UNL     1      -3.548   0.425 -31.639  1.00  0.00     0.249 C 
HETATM    9  O   UNL     1      -2.550   0.179 -30.971  1.00  0.00    -0.271 OA
HETATM   10  C   UNL     1      -6.768   1.249 -34.488  1.00  0.00     0.035 C 
HETATM   11  C   UNL     1      -7.684   0.063 -34.789  1.00  0.00     0.002 C 
HETATM   12  C   UNL     1      -6.896  -1.238 -34.959  1.00  0.00     0.002 C 
HETATM   13  C   UNL     1      -5.979  -1.529 -33.767  1.00  0.00     0.027 C 
HETATM   14  H   UNL     1      -3.693  -1.471 -32.282  1.00  0.00     0.163 HD
ENDROOT
BRANCH   1  15
HETATM   15  C   UNL     1      -3.184   2.933 -31.464  1.00  0.00     0.146 C 
BRANCH  15  16
HETATM   16  C   UNL     1      -3.935   4.158 -31.038  1.00  0.00     0.224 C 
HETATM   17  N   UNL     1      -3.357   5.352 -30.771  1.00  0.00    -0.325 N 
HETATM   18  H   UNL     1      -4.006   5.990 -30.308  1.00  0.00     0.169 HD
HETATM   19  O   UNL     1      -5.111   3.994 -30.680  1.00  0.00    -0.273 OA
BRANCH  17  20
HETATM   20  C   UNL     1      -2.050   5.866 -30.875  1.00  0.00     0.073 A 
HETATM   21  C   UNL     1      -1.112   5.944 -29.850  1.00  0.00     0.033 A 
HETATM   22  C   UNL     1       0.151   6.507 -30.094  1.00  0.00     0.002 A 
HETATM   23  C   UNL     1       0.487   6.984 -31.362  1.00  0.00     0.003 A 
HETATM   24  C   UNL     1      -0.430   6.882 -32.401  1.00  0.00     0.044 A 
HETATM   25  C   UNL     1      -1.675   6.316 -32.153  1.00  0.00     0.143 A 
HETATM   26  F   UNL     1      -2.564   6.242 -33.155  1.00  0.00    -0.204 F 
ENDBRANCH  17  20
ENDBRANCH  15  16
ENDBRANCH   1  15
TORSDOF 3
ENDMDL
MODEL 9
REMARK VINA RESULT:      -7.7      3.411      7.529
REMARK  3 active torsions:
REMARK  status: ('A' for Active; 'I' for Inactive)
REMARK    1  A    between atoms: C_3  and  N_4 
REMARK       I    between atoms: N_4  and  C_5 
REMARK    2  A    between atoms: C_5  and  C_6 
REMARK    3  A    between atoms: C_6  and  C_7 
ROOT
HETATM    1  C   UNL     1      -8.010  -0.007 -33.280  1.00  0.00     0.286 C 
HETATM    2  N   UNL     1      -7.843  -1.083 -34.361  1.00  0.00    -0.056 N 
HETATM    3  H   UNL     1      -8.744  -1.571 -34.507  1.00  0.00     0.278 HD
HETATM    4  H   UNL     1      -7.647  -0.630 -35.266  1.00  0.00     0.278 HD
HETATM    5  C   UNL     1      -6.748  -2.037 -33.993  1.00  0.00     0.209 C 
HETATM    6  C   UNL     1      -5.429  -1.234 -33.936  1.00  0.00     0.115 C 
HETATM    7  N   UNL     1      -5.532  -0.094 -33.026  1.00  0.00    -0.353 N 
HETATM    8  C   UNL     1      -6.671   0.678 -32.922  1.00  0.00     0.249 C 
HETATM    9  O   UNL     1      -6.606   1.817 -32.476  1.00  0.00    -0.271 OA
HETATM   10  C   UNL     1      -6.672  -3.175 -35.001  1.00  0.00     0.035 C 
HETATM   11  C   UNL     1      -5.514  -4.105 -34.639  1.00  0.00     0.002 C 
HETATM   12  C   UNL     1      -4.187  -3.350 -34.535  1.00  0.00     0.002 C 
HETATM   13  C   UNL     1      -4.263  -2.156 -33.579  1.00  0.00     0.027 C 
HETATM   14  H   UNL     1      -4.682   0.427 -32.813  1.00  0.00     0.163 HD
ENDROOT
BRANCH   1  15
HETATM   15  C   UNL     1      -9.059   1.006 -33.721  1.00  0.00     0.146 C 
BRANCH  15  16
HETATM   16  C   UNL     1     -10.393   0.500 -33.258  1.00  0.00     0.224 C 
HETATM   17  N   UNL     1     -11.533   1.228 -33.280  1.00  0.00    -0.325 N 
HETATM   18  H   UNL     1     -12.277   0.780 -32.742  1.00  0.00     0.169 HD
HETATM   19  O   UNL     1     -10.391  -0.550 -32.600  1.00  0.00    -0.273 OA
BRANCH  17  20
HETATM   20  C   UNL     1     -11.888   2.501 -33.767  1.00  0.00     0.073 A 
HETATM   21  C   UNL     1     -11.890   3.689 -33.042  1.00  0.00     0.033 A 
HETATM   22  C   UNL     1     -12.294   4.885 -33.654  1.00  0.00     0.002 A 
HETATM   23  C   UNL     1     -12.686   4.906 -34.993  1.00  0.00     0.003 A 
HETATM   24  C   UNL     1     -12.658   3.731 -35.737  1.00  0.00     0.044 A 
HETATM   25  C   UNL     1     -12.249   2.553 -35.124  1.00  0.00     0.143 A 
HETATM   26  F   UNL     1     -12.246   1.418 -35.842  1.00  0.00    -0.204 F 
ENDBRANCH  17  20
ENDBRANCH  15  16
ENDBRANCH   1  15
TORSDOF 3
ENDMDL
MODEL 10
REMARK VINA RESULT:      -7.6      4.249      6.697
REMARK  3 active torsions:
REMARK  status: ('A' for Active; 'I' for Inactive)
REMARK    1  A    between atoms: C_3  and  N_4 
REMARK       I    between atoms: N_4  and  C_5 
REMARK    2  A    between atoms: C_5  and  C_6 
REMARK    3  A    between atoms: C_6  and  C_7 
ROOT
HETATM    1  C   UNL     1      -6.023   2.808 -32.831  1.00  0.00     0.286 C 
HETATM    2  N   UNL     1      -5.683   1.440 -32.225  1.00  0.00    -0.056 N 
HETATM    3  H   UNL     1      -4.812   1.514 -31.670  1.00  0.00     0.278 HD
HETATM    4  H   UNL     1      -6.405   1.183 -31.537  1.00  0.00     0.278 HD
HETATM    5  C   UNL     1      -5.571   0.400 -33.298  1.00  0.00     0.209 C 
HETATM    6  C   UNL     1      -6.956   0.273 -33.970  1.00  0.00     0.115 C 
HETATM    7  N   UNL     1      -7.435   1.564 -34.465  1.00  0.00    -0.353 N 
HETATM    8  C   UNL     1      -7.244   2.744 -33.776  1.00  0.00     0.249 C 
HETATM    9  O   UNL     1      -7.968   3.708 -33.993  1.00  0.00    -0.271 OA
HETATM   10  C   UNL     1      -5.107  -0.924 -32.709  1.00  0.00     0.035 C 
HETATM   11  C   UNL     1      -5.054  -1.985 -33.809  1.00  0.00     0.002 C 
HETATM   12  C   UNL     1      -6.396  -2.125 -34.532  1.00  0.00     0.002 C 
HETATM   13  C   UNL     1      -6.916  -0.789 -35.070  1.00  0.00     0.027 C 
HETATM   14  H   UNL     1      -8.276   1.575 -35.040  1.00  0.00     0.163 HD
ENDROOT
BRANCH   1  15
HETATM   15  C   UNL     1      -6.227   3.827 -31.717  1.00  0.00     0.146 C 
BRANCH  15  16
HETATM   16  C   UNL     1      -5.100   3.658 -30.743  1.00  0.00     0.224 C 
HETATM   17  N   UNL     1      -3.841   4.111 -30.948  1.00  0.00    -0.325 N 
HETATM   18  H   UNL     1      -3.186   3.723 -30.268  1.00  0.00     0.169 HD
HETATM   19  O   UNL     1      -5.279   2.851 -29.820  1.00  0.00    -0.273 OA
BRANCH  17  20
HETATM   20  C   UNL     1      -3.217   4.888 -31.942  1.00  0.00     0.073 A 
HETATM   21  C   UNL     1      -3.113   6.276 -31.958  1.00  0.00     0.033 A 
HETATM   22  C   UNL     1      -2.481   6.921 -33.032  1.00  0.00     0.002 A 
HETATM   23  C   UNL     1      -1.940   6.187 -34.088  1.00  0.00     0.003 A 
HETATM   24  C   UNL     1      -2.010   4.799 -34.068  1.00  0.00     0.044 A 
HETATM   25  C   UNL     1      -2.630   4.168 -32.997  1.00  0.00     0.143 A 
HETATM   26  F   UNL     1      -2.714   2.828 -32.994  1.00  0.00    -0.204 F 
ENDBRANCH  17  20
ENDBRANCH  15  16
ENDBRANCH   1  15
TORSDOF 3
ENDMDL
