MODEL 1
REMARK VINA RESULT:     -10.3      0.000      0.000
REMARK  3 active torsions:
REMARK  status: ('A' for Active; 'I' for Inactive)
REMARK    1  A    between atoms: O_2  and  C_3 
REMARK    2  A    between atoms: C_5  and  C_26 
REMARK    3  A    between atoms: C_11  and  C_15 
ROOT
HETATM    1  C   UNL     1      -4.292   0.060 -33.022  1.00  0.00     0.096 A 
HETATM    2  C   UNL     1      -4.274  -1.291 -33.389  1.00  0.00     0.051 A 
HETATM    3  C   UNL     1      -5.351  -1.860 -34.096  1.00  0.00    -0.019 A 
HETATM    4  C   UNL     1      -6.445  -1.057 -34.434  1.00  0.00     0.031 A 
HETATM    5  C   UNL     1      -6.453   0.287 -34.057  1.00  0.00     0.062 A 
HETATM    6  C   UNL     1      -7.577   1.166 -34.375  1.00  0.00     0.259 A 
HETATM    7  O   UNL     1      -8.570   0.846 -34.995  1.00  0.00    -0.267 OA
HETATM    8  N   UNL     1      -7.479   2.496 -33.912  1.00  0.00    -0.312 N 
HETATM    9  C   UNL     1      -6.442   2.949 -33.237  1.00  0.00     0.091 A 
HETATM   10  N   UNL     1      -5.408   2.171 -32.960  1.00  0.00    -0.342 N 
HETATM   11  H   UNL     1      -4.601   2.512 -32.437  1.00  0.00     0.167 HD
HETATM   12  C   UNL     1      -5.398   0.860 -33.352  1.00  0.00     0.083 A 
HETATM   13  H   UNL     1      -8.267   3.110 -34.112  1.00  0.00     0.170 HD
ENDROOT
BRANCH   9  14
HETATM   14  C   UNL     1      -6.403   4.361 -32.740  1.00  0.00     0.082 C 
HETATM   15  C   UNL     1      -5.836   4.479 -31.329  1.00  0.00     0.188 C 
HETATM   16  O   UNL     1      -4.477   4.027 -31.260  1.00  0.00    -0.350 OA
HETATM   17  C   UNL     1      -3.644   4.579 -32.200  1.00  0.00     0.075 A 
HETATM   18  C   UNL     1      -2.275   4.468 -31.948  1.00  0.00     0.040 A 
HETATM   19  C   UNL     1      -4.111   5.138 -33.396  1.00  0.00    -0.021 A 
HETATM   20  C   UNL     1      -1.357   4.949 -32.881  1.00  0.00     0.045 A 
HETATM   21  C   UNL     1      -1.819   5.528 -34.056  1.00  0.00     0.117 A 
HETATM   22  F   UNL     1      -0.940   5.988 -34.955  1.00  0.00    -0.206 F 
HETATM   23  C   UNL     1      -3.181   5.629 -34.320  1.00  0.00     0.052 A 
HETATM   24  C   UNL     1      -5.582   5.246 -33.680  1.00  0.00     0.056 C 
ENDBRANCH   9  14
BRANCH   1  25
HETATM   25  O   UNL     1      -3.298   0.716 -32.335  1.00  0.00    -0.354 OA
HETATM   26  C   UNL     1      -2.958   0.206 -31.045  1.00  0.00     0.210 C 
ENDBRANCH   1  25
BRANCH   3  27
HETATM   27  C   UNL     1      -5.325  -3.269 -34.447  1.00  0.00     0.010 A 
HETATM   28  C   UNL     1      -6.258  -4.062 -35.156  1.00  0.00     0.152 A 
HETATM   29  N   UNL     1      -5.874  -5.334 -35.266  1.00  0.00    -0.187 NA
HETATM   30  N   UNL     1      -4.692  -5.369 -34.633  1.00  0.00    -0.289 N 
HETATM   31  H   UNL     1      -4.196  -6.254 -34.585  1.00  0.00     0.188 HD
HETATM   32  C   UNL     1      -4.319  -4.155 -34.122  1.00  0.00     0.123 A 
ENDBRANCH   3  27
TORSDOF 3
ENDMDL
MODEL 2
REMARK VINA RESULT:     -10.0      0.878      2.526
REMARK  3 active torsions:
REMARK  status: ('A' for Active; 'I' for Inactive)
REMARK    1  A    between atoms: O_2  and  C_3 
REMARK    2  A    between atoms: C_5  and  C_26 
REMARK    3  A    between atoms: C_11  and  C_15 
ROOT
HETATM    1  C   UNL     1      -6.569  -0.023 -34.529  1.00  0.00     0.096 A 
HETATM    2  C   UNL     1      -6.293  -1.383 -34.720  1.00  0.00     0.051 A 
HETATM    3  C   UNL     1      -5.272  -2.020 -33.990  1.00  0.00    -0.019 A 
HETATM    4  C   UNL     1      -4.533  -1.279 -33.061  1.00  0.00     0.031 A 
HETATM    5  C   UNL     1      -4.816   0.077 -32.883  1.00  0.00     0.062 A 
HETATM    6  C   UNL     1      -4.066   0.898 -31.936  1.00  0.00     0.259 A 
HETATM    7  O   UNL     1      -3.173   0.505 -31.212  1.00  0.00    -0.267 OA
HETATM    8  N   UNL     1      -4.425   2.262 -31.871  1.00  0.00    -0.312 N 
HETATM    9  C   UNL     1      -5.383   2.790 -32.606  1.00  0.00     0.091 A 
HETATM   10  N   UNL     1      -6.085   2.054 -33.454  1.00  0.00    -0.342 N 
HETATM   11  H   UNL     1      -6.828   2.453 -34.028  1.00  0.00     0.167 HD
HETATM   12  C   UNL     1      -5.817   0.721 -33.606  1.00  0.00     0.083 A 
HETATM   13  H   UNL     1      -3.894   2.846 -31.227  1.00  0.00     0.170 HD
ENDROOT
BRANCH   9  14
HETATM   14  C   UNL     1      -5.703   4.250 -32.523  1.00  0.00     0.082 C 
HETATM   15  C   UNL     1      -5.333   4.864 -31.176  1.00  0.00     0.188 C 
HETATM   16  O   UNL     1      -3.925   4.781 -30.921  1.00  0.00    -0.350 OA
HETATM   17  C   UNL     1      -3.131   5.248 -31.937  1.00  0.00     0.075 A 
HETATM   18  C   UNL     1      -1.807   5.535 -31.601  1.00  0.00     0.040 A 
HETATM   19  C   UNL     1      -3.573   5.348 -33.262  1.00  0.00    -0.021 A 
HETATM   20  C   UNL     1      -0.917   5.958 -32.587  1.00  0.00     0.045 A 
HETATM   21  C   UNL     1      -1.360   6.083 -33.898  1.00  0.00     0.117 A 
HETATM   22  F   UNL     1      -0.507   6.486 -34.848  1.00  0.00    -0.206 F 
HETATM   23  C   UNL     1      -2.675   5.786 -34.243  1.00  0.00     0.052 A 
HETATM   24  C   UNL     1      -4.992   5.027 -33.633  1.00  0.00     0.056 C 
ENDBRANCH   9  14
BRANCH   1  25
HETATM   25  O   UNL     1      -7.539   0.697 -35.186  1.00  0.00    -0.354 OA
HETATM   26  C   UNL     1      -8.856   0.662 -34.632  1.00  0.00     0.210 C 
ENDBRANCH   1  25
BRANCH   3  27
HETATM   27  C   UNL     1      -4.984  -3.424 -34.219  1.00  0.00     0.010 A 
HETATM   28  C   UNL     1      -5.706  -4.412 -34.930  1.00  0.00     0.152 A 
HETATM   29  N   UNL     1      -5.110  -5.604 -34.904  1.00  0.00    -0.187 NA
HETATM   30  N   UNL     1      -4.001  -5.393 -34.180  1.00  0.00    -0.289 N 
HETATM   31  H   UNL     1      -3.373  -6.175 -34.020  1.00  0.00     0.188 HD
HETATM   32  C   UNL     1      -3.880  -4.101 -33.744  1.00  0.00     0.123 A 
ENDBRANCH   3  27
TORSDOF 3
ENDMDL
MODEL 3
REMARK VINA RESULT:      -9.3      2.616      4.564
REMARK  3 active torsions:
REMARK  status: ('A' for Active; 'I' for Inactive)
REMARK    1  A    between atoms: O_2  and  C_3 
REMARK    2  A    between atoms: C_5  and  C_26 
REMARK    3  A    between atoms: C_11  and  C_15 
ROOT
HETATM    1  C   UNL     1      -6.670   0.354 -34.343  1.00  0.00     0.096 A 
HETATM    2  C   UNL     1      -6.544  -1.013 -34.620  1.00  0.00     0.051 A 
HETATM    3  C   UNL     1      -5.488  -1.765 -34.070  1.00  0.00    -0.019 A 
HETATM    4  C   UNL     1      -4.562  -1.132 -33.235  1.00  0.00     0.031 A 
HETATM    5  C   UNL     1      -4.696   0.233 -32.971  1.00  0.00     0.062 A 
HETATM    6  C   UNL     1      -3.749   0.945 -32.116  1.00  0.00     0.259 A 
HETATM    7  O   UNL     1      -2.799   0.447 -31.546  1.00  0.00    -0.267 OA
HETATM    8  N   UNL     1      -3.974   2.329 -31.952  1.00  0.00    -0.312 N 
HETATM    9  C   UNL     1      -4.978   2.967 -32.519  1.00  0.00     0.091 A 
HETATM   10  N   UNL     1      -5.856   2.332 -33.280  1.00  0.00    -0.342 N 
HETATM   11  H   UNL     1      -6.636   2.817 -33.723  1.00  0.00     0.167 HD
HETATM   12  C   UNL     1      -5.730   0.989 -33.515  1.00  0.00     0.083 A 
HETATM   13  H   UNL     1      -3.307   2.837 -31.374  1.00  0.00     0.170 HD
ENDROOT
BRANCH   9  14
HETATM   14  C   UNL     1      -5.154   4.443 -32.339  1.00  0.00     0.082 C 
HETATM   15  C   UNL     1      -5.408   5.176 -33.653  1.00  0.00     0.188 C 
HETATM   16  O   UNL     1      -6.618   4.735 -34.283  1.00  0.00    -0.350 OA
HETATM   17  C   UNL     1      -7.721   4.738 -33.468  1.00  0.00     0.075 A 
HETATM   18  C   UNL     1      -8.960   4.685 -34.109  1.00  0.00     0.040 A 
HETATM   19  C   UNL     1      -7.633   4.699 -32.071  1.00  0.00    -0.021 A 
HETATM   20  C   UNL     1     -10.130   4.624 -33.354  1.00  0.00     0.045 A 
HETATM   21  C   UNL     1     -10.047   4.611 -31.967  1.00  0.00     0.117 A 
HETATM   22  F   UNL     1     -11.169   4.549 -31.239  1.00  0.00    -0.206 F 
HETATM   23  C   UNL     1      -8.815   4.651 -31.321  1.00  0.00     0.052 A 
HETATM   24  C   UNL     1      -6.304   4.741 -31.375  1.00  0.00     0.056 C 
ENDBRANCH   9  14
BRANCH   1  25
HETATM   25  O   UNL     1      -7.658   1.180 -34.824  1.00  0.00    -0.354 OA
HETATM   26  C   UNL     1      -8.988   0.935 -34.363  1.00  0.00     0.210 C 
ENDBRANCH   1  25
BRANCH   3  27
HETATM   27  C   UNL     1      -5.360  -3.176 -34.388  1.00  0.00     0.010 A 
HETATM   28  C   UNL     1      -6.246  -4.059 -35.050  1.00  0.00     0.152 A 
HETATM   29  N   UNL     1      -5.765  -5.298 -35.142  1.00  0.00    -0.187 NA
HETATM   30  N   UNL     1      -4.567  -5.223 -34.543  1.00  0.00    -0.289 N 
HETATM   31  H   UNL     1      -4.001  -6.065 -34.489  1.00  0.00     0.188 HD
HETATM   32  C   UNL     1      -4.279  -3.971 -34.072  1.00  0.00     0.123 A 
ENDBRANCH   3  27
TORSDOF 3
ENDMDL
MODEL 4
REMARK VINA RESULT:      -9.0      3.827      5.043
REMARK  3 active torsions:
REMARK  status: ('A' for Active; 'I' for Inactive)
REMARK    1  A    between atoms: O_2  and  C_3 
REMARK    2  A    between atoms: C_5  and  C_26 
REMARK    3  A    between atoms: C_11  and  C_15 
ROOT
HETATM    1  C   UNL     1      -5.866   0.741 -33.143  1.00  0.00     0.096 A 
HETATM    2  C   UNL     1      -5.490  -0.507 -33.657  1.00  0.00     0.051 A 
HETATM    3  C   UNL     1      -6.441  -1.530 -33.832  1.00  0.00    -0.019 A 
HETATM    4  C   UNL     1      -7.776  -1.287 -33.489  1.00  0.00     0.031 A 
HETATM    5  C   UNL     1      -8.136  -0.041 -32.973  1.00  0.00     0.062 A 
HETATM    6  C   UNL     1      -9.514   0.260 -32.589  1.00  0.00     0.259 A 
HETATM    7  O   UNL     1     -10.458  -0.496 -32.695  1.00  0.00    -0.267 OA
HETATM    8  N   UNL     1      -9.745   1.544 -32.050  1.00  0.00    -0.312 N 
HETATM    9  C   UNL     1      -8.794   2.443 -31.899  1.00  0.00     0.091 A 
HETATM   10  N   UNL     1      -7.545   2.193 -32.262  1.00  0.00    -0.342 N 
HETATM   11  H   UNL     1      -6.802   2.882 -32.149  1.00  0.00     0.167 HD
HETATM   12  C   UNL     1      -7.204   0.976 -32.788  1.00  0.00     0.083 A 
HETATM   13  H   UNL     1     -10.699   1.755 -31.761  1.00  0.00     0.170 HD
ENDROOT
BRANCH   9  14
HETATM   14  C   UNL     1      -9.086   3.781 -31.292  1.00  0.00     0.082 C 
HETATM   15  C   UNL     1      -8.190   4.889 -31.836  1.00  0.00     0.188 C 
HETATM   16  O   UNL     1      -8.371   5.078 -33.246  1.00  0.00    -0.350 OA
HETATM   17  C   UNL     1      -9.676   5.228 -33.639  1.00  0.00     0.075 A 
HETATM   18  C   UNL     1      -9.877   5.778 -34.906  1.00  0.00     0.040 A 
HETATM   19  C   UNL     1     -10.758   4.777 -32.873  1.00  0.00    -0.021 A 
HETATM   20  C   UNL     1     -11.171   5.911 -35.408  1.00  0.00     0.045 A 
HETATM   21  C   UNL     1     -12.248   5.487 -34.639  1.00  0.00     0.117 A 
HETATM   22  F   UNL     1     -13.491   5.611 -35.120  1.00  0.00    -0.206 F 
HETATM   23  C   UNL     1     -12.054   4.927 -33.380  1.00  0.00     0.052 A 
HETATM   24  C   UNL     1     -10.548   4.171 -31.515  1.00  0.00     0.056 C 
ENDBRANCH   9  14
BRANCH   1  25
HETATM   25  O   UNL     1      -5.024   1.806 -32.933  1.00  0.00    -0.354 OA
HETATM   26  C   UNL     1      -3.809   1.542 -32.230  1.00  0.00     0.210 C 
ENDBRANCH   1  25
BRANCH   3  27
HETATM   27  C   UNL     1      -6.028  -2.825 -34.343  1.00  0.00     0.010 A 
HETATM   28  C   UNL     1      -6.784  -3.879 -34.909  1.00  0.00     0.152 A 
HETATM   29  N   UNL     1      -6.032  -4.924 -35.254  1.00  0.00    -0.187 NA
HETATM   30  N   UNL     1      -4.789  -4.551 -34.916  1.00  0.00    -0.289 N 
HETATM   31  H   UNL     1      -4.026  -5.200 -35.087  1.00  0.00     0.188 HD
HETATM   32  C   UNL     1      -4.734  -3.300 -34.364  1.00  0.00     0.123 A 
ENDBRANCH   3  27
TORSDOF 3
ENDMDL
MODEL 5
REMARK VINA RESULT:      -9.0      3.353      4.800
REMARK  3 active torsions:
REMARK  status: ('A' for Active; 'I' for Inactive)
REMARK    1  A    between atoms: O_2  and  C_3 
REMARK    2  A    between atoms: C_5  and  C_26 
REMARK    3  A    between atoms: C_11  and  C_15 
ROOT
HETATM    1  C   UNL     1      -4.656   0.152 -32.857  1.00  0.00     0.096 A 
HETATM    2  C   UNL     1      -4.514  -1.187 -33.243  1.00  0.00     0.051 A 
HETATM    3  C   UNL     1      -5.509  -1.827 -34.005  1.00  0.00    -0.019 A 
HETATM    4  C   UNL     1      -6.650  -1.108 -34.379  1.00  0.00     0.031 A 
HETATM    5  C   UNL     1      -6.782   0.224 -33.983  1.00  0.00     0.062 A 
HETATM    6  C   UNL     1      -7.959   1.015 -34.337  1.00  0.00     0.259 A 
HETATM    7  O   UNL     1      -8.896   0.628 -35.005  1.00  0.00    -0.267 OA
HETATM    8  N   UNL     1      -7.989   2.340 -33.850  1.00  0.00    -0.312 N 
HETATM    9  C   UNL     1      -7.023   2.862 -33.123  1.00  0.00     0.091 A 
HETATM   10  N   UNL     1      -5.941   2.165 -32.812  1.00  0.00    -0.342 N 
HETATM   11  H   UNL     1      -5.188   2.560 -32.250  1.00  0.00     0.167 HD
HETATM   12  C   UNL     1      -5.809   0.866 -33.223  1.00  0.00     0.083 A 
HETATM   13  H   UNL     1      -8.815   2.893 -34.076  1.00  0.00     0.170 HD
ENDROOT
BRANCH   9  14
HETATM   14  C   UNL     1      -7.119   4.264 -32.604  1.00  0.00     0.082 C 
HETATM   15  C   UNL     1      -7.706   5.236 -33.623  1.00  0.00     0.188 C 
HETATM   16  O   UNL     1      -9.048   4.884 -33.985  1.00  0.00    -0.350 OA
HETATM   17  C   UNL     1      -9.890   4.679 -32.922  1.00  0.00     0.075 A 
HETATM   18  C   UNL     1     -11.257   4.707 -33.206  1.00  0.00     0.040 A 
HETATM   19  C   UNL     1      -9.431   4.361 -31.638  1.00  0.00    -0.021 A 
HETATM   20  C   UNL     1     -12.181   4.448 -32.196  1.00  0.00     0.045 A 
HETATM   21  C   UNL     1     -11.728   4.158 -30.914  1.00  0.00     0.117 A 
HETATM   22  F   UNL     1     -12.614   3.906 -29.943  1.00  0.00    -0.206 F 
HETATM   23  C   UNL     1     -10.368   4.115 -30.627  1.00  0.00     0.052 A 
HETATM   24  C   UNL     1      -7.962   4.314 -31.328  1.00  0.00     0.056 C 
ENDBRANCH   9  14
BRANCH   1  25
HETATM   25  O   UNL     1      -3.750   0.872 -32.117  1.00  0.00    -0.354 OA
HETATM   26  C   UNL     1      -2.992   0.153 -31.142  1.00  0.00     0.210 C 
ENDBRANCH   1  25
BRANCH   3  27
HETATM   27  C   UNL     1      -5.355  -3.222 -34.375  1.00  0.00     0.010 A 
HETATM   28  C   UNL     1      -6.215  -4.090 -35.089  1.00  0.00     0.152 A 
HETATM   29  N   UNL     1      -5.714  -5.319 -35.219  1.00  0.00    -0.187 NA
HETATM   30  N   UNL     1      -4.529  -5.251 -34.595  1.00  0.00    -0.289 N 
HETATM   31  H   UNL     1      -3.952  -6.086 -34.563  1.00  0.00     0.188 HD
HETATM   32  C   UNL     1      -4.268  -4.014 -34.070  1.00  0.00     0.123 A 
ENDBRANCH   3  27
TORSDOF 3
ENDMDL
MODEL 6
REMARK VINA RESULT:      -8.9      4.968      7.646
REMARK  3 active torsions:
REMARK  status: ('A' for Active; 'I' for Inactive)
REMARK    1  A    between atoms: O_2  and  C_3 
REMARK    2  A    between atoms: C_5  and  C_26 
REMARK    3  A    between atoms: C_11  and  C_15 
ROOT
HETATM    1  C   UNL     1      -6.504   3.342 -33.703  1.00  0.00     0.096 A 
HETATM    2  C   UNL     1      -5.446   2.600 -33.162  1.00  0.00     0.051 A 
HETATM    3  C   UNL     1      -5.658   1.302 -32.662  1.00  0.00    -0.019 A 
HETATM    4  C   UNL     1      -6.944   0.752 -32.713  1.00  0.00     0.031 A 
HETATM    5  C   UNL     1      -7.991   1.504 -33.251  1.00  0.00     0.062 A 
HETATM    6  C   UNL     1      -9.354   0.982 -33.316  1.00  0.00     0.259 A 
HETATM    7  O   UNL     1      -9.706  -0.122 -32.953  1.00  0.00    -0.267 OA
HETATM    8  N   UNL     1     -10.330   1.850 -33.852  1.00  0.00    -0.312 N 
HETATM    9  C   UNL     1     -10.054   3.064 -34.283  1.00  0.00     0.091 A 
HETATM   10  N   UNL     1      -8.821   3.544 -34.249  1.00  0.00    -0.342 N 
HETATM   11  H   UNL     1      -8.597   4.483 -34.580  1.00  0.00     0.167 HD
HETATM   12  C   UNL     1      -7.796   2.792 -33.741  1.00  0.00     0.083 A 
HETATM   13  H   UNL     1     -11.287   1.502 -33.884  1.00  0.00     0.170 HD
ENDROOT
BRANCH   9  14
HETATM   14  C   UNL     1     -11.133   3.958 -34.813  1.00  0.00     0.082 C 
HETATM   15  C   UNL     1     -11.826   3.387 -36.046  1.00  0.00     0.188 C 
HETATM   16  O   UNL     1     -12.484   2.146 -35.761  1.00  0.00    -0.350 OA
HETATM   17  C   UNL     1     -13.313   2.177 -34.669  1.00  0.00     0.075 A 
HETATM   18  C   UNL     1     -14.242   1.139 -34.574  1.00  0.00     0.040 A 
HETATM   19  C   UNL     1     -13.191   3.127 -33.648  1.00  0.00    -0.021 A 
HETATM   20  C   UNL     1     -15.084   1.061 -33.465  1.00  0.00     0.045 A 
HETATM   21  C   UNL     1     -14.983   2.018 -32.463  1.00  0.00     0.117 A 
HETATM   22  F   UNL     1     -15.788   1.944 -31.396  1.00  0.00    -0.206 F 
HETATM   23  C   UNL     1     -14.051   3.048 -32.545  1.00  0.00     0.052 A 
HETATM   24  C   UNL     1     -12.185   4.237 -33.737  1.00  0.00     0.056 C 
ENDBRANCH   9  14
BRANCH   1  25
HETATM   25  O   UNL     1      -6.409   4.613 -34.219  1.00  0.00    -0.354 OA
HETATM   26  C   UNL     1      -5.097   5.162 -34.349  1.00  0.00     0.210 C 
ENDBRANCH   1  25
BRANCH   3  27
HETATM   27  C   UNL     1      -4.554   0.558 -32.083  1.00  0.00     0.010 A 
HETATM   28  C   UNL     1      -3.366   1.004 -31.457  1.00  0.00     0.152 A 
HETATM   29  N   UNL     1      -2.585  -0.000 -31.060  1.00  0.00    -0.187 NA
HETATM   30  N   UNL     1      -3.264  -1.098 -31.422  1.00  0.00    -0.289 N 
HETATM   31  H   UNL     1      -2.857  -2.007 -31.219  1.00  0.00     0.188 HD
HETATM   32  C   UNL     1      -4.452  -0.817 -32.041  1.00  0.00     0.123 A 
ENDBRANCH   3  27
TORSDOF 3
ENDMDL
MODEL 7
REMARK VINA RESULT:      -8.8      2.391      4.087
REMARK  3 active torsions:
REMARK  status: ('A' for Active; 'I' for Inactive)
REMARK    1  A    between atoms: O_2  and  C_3 
REMARK    2  A    between atoms: C_5  and  C_26 
REMARK    3  A    between atoms: C_11  and  C_15 
ROOT
HETATM    1  C   UNL     1      -7.354   0.530 -34.579  1.00  0.00     0.096 A 
HETATM    2  C   UNL     1      -7.160  -0.849 -34.729  1.00  0.00     0.051 A 
HETATM    3  C   UNL     1      -6.008  -1.475 -34.216  1.00  0.00    -0.019 A 
HETATM    4  C   UNL     1      -5.053  -0.703 -33.546  1.00  0.00     0.031 A 
HETATM    5  C   UNL     1      -5.255   0.672 -33.409  1.00  0.00     0.062 A 
HETATM    6  C   UNL     1      -4.283   1.526 -32.730  1.00  0.00     0.259 A 
HETATM    7  O   UNL     1      -3.252   1.148 -32.211  1.00  0.00    -0.267 OA
HETATM    8  N   UNL     1      -4.587   2.904 -32.684  1.00  0.00    -0.312 N 
HETATM    9  C   UNL     1      -5.681   3.417 -33.207  1.00  0.00     0.091 A 
HETATM   10  N   UNL     1      -6.581   2.654 -33.807  1.00  0.00    -0.342 N 
HETATM   11  H   UNL     1      -7.432   3.042 -34.216  1.00  0.00     0.167 HD
HETATM   12  C   UNL     1      -6.386   1.304 -33.919  1.00  0.00     0.083 A 
HETATM   13  H   UNL     1      -3.905   3.509 -32.229  1.00  0.00     0.170 HD
ENDROOT
BRANCH   9  14
HETATM   14  C   UNL     1      -5.941   4.892 -33.160  1.00  0.00     0.082 C 
HETATM   15  C   UNL     1      -7.421   5.230 -33.017  1.00  0.00     0.188 C 
HETATM   16  O   UNL     1      -7.970   4.720 -31.794  1.00  0.00    -0.350 OA
HETATM   17  C   UNL     1      -7.255   5.044 -30.670  1.00  0.00     0.075 A 
HETATM   18  C   UNL     1      -7.925   4.903 -29.453  1.00  0.00     0.040 A 
HETATM   19  C   UNL     1      -5.901   5.403 -30.706  1.00  0.00    -0.021 A 
HETATM   20  C   UNL     1      -7.253   5.153 -28.257  1.00  0.00     0.045 A 
HETATM   21  C   UNL     1      -5.918   5.535 -28.292  1.00  0.00     0.117 A 
HETATM   22  F   UNL     1      -5.270   5.773 -27.145  1.00  0.00    -0.206 F 
HETATM   23  C   UNL     1      -5.240   5.665 -29.500  1.00  0.00     0.052 A 
HETATM   24  C   UNL     1      -5.170   5.542 -32.010  1.00  0.00     0.056 C 
ENDBRANCH   9  14
BRANCH   1  25
HETATM   25  O   UNL     1      -8.437   1.240 -35.038  1.00  0.00    -0.354 OA
HETATM   26  C   UNL     1      -9.642   1.148 -34.276  1.00  0.00     0.210 C 
ENDBRANCH   1  25
BRANCH   3  27
HETATM   27  C   UNL     1      -5.814  -2.902 -34.401  1.00  0.00     0.010 A 
HETATM   28  C   UNL     1      -6.711  -3.910 -34.827  1.00  0.00     0.152 A 
HETATM   29  N   UNL     1      -6.150  -5.118 -34.861  1.00  0.00    -0.187 NA
HETATM   30  N   UNL     1      -4.889  -4.898 -34.462  1.00  0.00    -0.289 N 
HETATM   31  H   UNL     1      -4.255  -5.690 -34.407  1.00  0.00     0.188 HD
HETATM   32  C   UNL     1      -4.637  -3.584 -34.172  1.00  0.00     0.123 A 
ENDBRANCH   3  27
TORSDOF 3
ENDMDL
MODEL 8
REMARK VINA RESULT:      -8.8      1.226      2.801
REMARK  3 active torsions:
REMARK  status: ('A' for Active; 'I' for Inactive)
REMARK    1  A    between atoms: O_2  and  C_3 
REMARK    2  A    between atoms: C_5  and  C_26 
REMARK    3  A    between atoms: C_11  and  C_15 
ROOT
HETATM    1  C   UNL     1      -7.660   0.734 -33.699  1.00  0.00     0.096 A 
HETATM    2  C   UNL     1      -7.547  -0.616 -34.052  1.00  0.00     0.051 A 
HETATM    3  C   UNL     1      -6.327  -1.302 -33.901  1.00  0.00    -0.019 A 
HETATM    4  C   UNL     1      -5.220  -0.619 -33.386  1.00  0.00     0.031 A 
HETATM    5  C   UNL     1      -5.344   0.729 -33.042  1.00  0.00     0.062 A 
HETATM    6  C   UNL     1      -4.215   1.491 -32.513  1.00  0.00     0.259 A 
HETATM    7  O   UNL     1      -3.104   1.052 -32.298  1.00  0.00    -0.267 OA
HETATM    8  N   UNL     1      -4.459   2.854 -32.233  1.00  0.00    -0.312 N 
HETATM    9  C   UNL     1      -5.629   3.429 -32.422  1.00  0.00     0.091 A 
HETATM   10  N   UNL     1      -6.666   2.747 -32.881  1.00  0.00    -0.342 N 
HETATM   11  H   UNL     1      -7.576   3.183 -33.031  1.00  0.00     0.167 HD
HETATM   12  C   UNL     1      -6.542   1.420 -33.195  1.00  0.00     0.083 A 
HETATM   13  H   UNL     1      -3.672   3.398 -31.882  1.00  0.00     0.170 HD
ENDROOT
BRANCH   9  14
HETATM   14  C   UNL     1      -5.826   4.887 -32.140  1.00  0.00     0.082 C 
HETATM   15  C   UNL     1      -5.400   5.282 -30.729  1.00  0.00     0.188 C 
HETATM   16  O   UNL     1      -4.002   5.050 -30.510  1.00  0.00    -0.350 OA
HETATM   17  C   UNL     1      -3.177   5.583 -31.467  1.00  0.00     0.075 A 
HETATM   18  C   UNL     1      -1.832   5.713 -31.117  1.00  0.00     0.040 A 
HETATM   19  C   UNL     1      -3.616   5.896 -32.760  1.00  0.00    -0.021 A 
HETATM   20  C   UNL     1      -0.915   6.190 -32.052  1.00  0.00     0.045 A 
HETATM   21  C   UNL     1      -1.352   6.526 -33.327  1.00  0.00     0.117 A 
HETATM   22  F   UNL     1      -0.473   6.982 -34.228  1.00  0.00    -0.206 F 
HETATM   23  C   UNL     1      -2.689   6.387 -33.688  1.00  0.00     0.052 A 
HETATM   24  C   UNL     1      -5.058   5.744 -33.148  1.00  0.00     0.056 C 
ENDBRANCH   9  14
BRANCH   1  25
HETATM   25  O   UNL     1      -8.798   1.497 -33.804  1.00  0.00    -0.354 OA
HETATM   26  C   UNL     1     -10.026   0.801 -34.021  1.00  0.00     0.210 C 
ENDBRANCH   1  25
BRANCH   3  27
HETATM   27  C   UNL     1      -6.224  -2.695 -34.295  1.00  0.00     0.010 A 
HETATM   28  C   UNL     1      -5.096  -3.541 -34.415  1.00  0.00     0.152 A 
HETATM   29  N   UNL     1      -5.415  -4.770 -34.820  1.00  0.00    -0.187 NA
HETATM   30  N   UNL     1      -6.748  -4.727 -34.961  1.00  0.00    -0.289 N 
HETATM   31  H   UNL     1      -7.228  -5.567 -35.268  1.00  0.00     0.188 HD
HETATM   32  C   UNL     1      -7.281  -3.503 -34.660  1.00  0.00     0.123 A 
ENDBRANCH   3  27
TORSDOF 3
ENDMDL
MODEL 9
REMARK VINA RESULT:      -8.8     15.473     17.513
REMARK  3 active torsions:
REMARK  status: ('A' for Active; 'I' for Inactive)
REMARK    1  A    between atoms: O_2  and  C_3 
REMARK    2  A    between atoms: C_5  and  C_26 
REMARK    3  A    between atoms: C_11  and  C_15 
ROOT
HETATM    1  C   UNL     1      -7.117 -16.106 -35.889  1.00  0.00     0.096 A 
HETATM    2  C   UNL     1      -6.969 -16.268 -34.505  1.00  0.00     0.051 A 
HETATM    3  C   UNL     1      -6.107 -15.434 -33.769  1.00  0.00    -0.019 A 
HETATM    4  C   UNL     1      -5.395 -14.431 -34.436  1.00  0.00     0.031 A 
HETATM    5  C   UNL     1      -5.547 -14.283 -35.816  1.00  0.00     0.062 A 
HETATM    6  C   UNL     1      -4.817 -13.259 -36.561  1.00  0.00     0.259 A 
HETATM    7  O   UNL     1      -4.054 -12.445 -36.082  1.00  0.00    -0.267 OA
HETATM    8  N   UNL     1      -5.032 -13.231 -37.956  1.00  0.00    -0.312 N 
HETATM    9  C   UNL     1      -5.844 -14.062 -38.576  1.00  0.00     0.091 A 
HETATM   10  N   UNL     1      -6.528 -14.981 -37.912  1.00  0.00    -0.342 N 
HETATM   11  H   UNL     1      -7.159 -15.630 -38.383  1.00  0.00     0.167 HD
HETATM   12  C   UNL     1      -6.390 -15.106 -36.556  1.00  0.00     0.083 A 
HETATM   13  H   UNL     1      -4.512 -12.533 -38.486  1.00  0.00     0.170 HD
ENDROOT
BRANCH   9  14
HETATM   14  C   UNL     1      -6.012 -14.011 -40.064  1.00  0.00     0.082 C 
HETATM   15  C   UNL     1      -6.715 -15.243 -40.625  1.00  0.00     0.188 C 
HETATM   16  O   UNL     1      -8.046 -15.380 -40.109  1.00  0.00    -0.350 OA
HETATM   17  C   UNL     1      -8.818 -14.251 -40.215  1.00  0.00     0.075 A 
HETATM   18  C   UNL     1     -10.195 -14.434 -40.082  1.00  0.00     0.040 A 
HETATM   19  C   UNL     1      -8.274 -12.968 -40.352  1.00  0.00    -0.021 A 
HETATM   20  C   UNL     1     -11.048 -13.332 -40.117  1.00  0.00     0.045 A 
HETATM   21  C   UNL     1     -10.513 -12.060 -40.279  1.00  0.00     0.117 A 
HETATM   22  F   UNL     1     -11.329 -11.000 -40.310  1.00  0.00    -0.206 F 
HETATM   23  C   UNL     1      -9.140 -11.869 -40.399  1.00  0.00     0.052 A 
HETATM   24  C   UNL     1      -6.792 -12.763 -40.481  1.00  0.00     0.056 C 
ENDBRANCH   9  14
BRANCH   1  25
HETATM   25  O   UNL     1      -7.929 -16.860 -36.701  1.00  0.00    -0.354 OA
HETATM   26  C   UNL     1      -8.476 -18.054 -36.141  1.00  0.00     0.210 C 
ENDBRANCH   1  25
BRANCH   3  27
HETATM   27  C   UNL     1      -5.949 -15.634 -32.340  1.00  0.00     0.010 A 
HETATM   28  C   UNL     1      -5.081 -15.014 -31.410  1.00  0.00     0.152 A 
HETATM   29  N   UNL     1      -5.232 -15.484 -30.172  1.00  0.00    -0.187 NA
HETATM   30  N   UNL     1      -6.199 -16.406 -30.294  1.00  0.00    -0.289 N 
HETATM   31  H   UNL     1      -6.492 -16.911 -29.463  1.00  0.00     0.188 HD
HETATM   32  C   UNL     1      -6.660 -16.535 -31.576  1.00  0.00     0.123 A 
ENDBRANCH   3  27
TORSDOF 3
ENDMDL
MODEL 10
REMARK VINA RESULT:      -8.8      1.980      2.546
REMARK  3 active torsions:
REMARK  status: ('A' for Active; 'I' for Inactive)
REMARK    1  A    between atoms: O_2  and  C_3 
REMARK    2  A    between atoms: C_5  and  C_26 
REMARK    3  A    between atoms: C_11  and  C_15 
ROOT
HETATM    1  C   UNL     1      -5.914   0.778 -33.314  1.00  0.00     0.096 A 
HETATM    2  C   UNL     1      -5.539  -0.492 -33.771  1.00  0.00     0.051 A 
HETATM    3  C   UNL     1      -6.490  -1.522 -33.896  1.00  0.00    -0.019 A 
HETATM    4  C   UNL     1      -7.824  -1.265 -33.562  1.00  0.00     0.031 A 
HETATM    5  C   UNL     1      -8.184   0.004 -33.103  1.00  0.00     0.062 A 
HETATM    6  C   UNL     1      -9.560   0.322 -32.729  1.00  0.00     0.259 A 
HETATM    7  O   UNL     1     -10.505  -0.438 -32.798  1.00  0.00    -0.267 OA
HETATM    8  N   UNL     1      -9.791   1.630 -32.250  1.00  0.00    -0.312 N 
HETATM    9  C   UNL     1      -8.839   2.535 -32.143  1.00  0.00     0.091 A 
HETATM   10  N   UNL     1      -7.592   2.268 -32.496  1.00  0.00    -0.342 N 
HETATM   11  H   UNL     1      -6.848   2.962 -32.417  1.00  0.00     0.167 HD
HETATM   12  C   UNL     1      -7.252   1.029 -32.967  1.00  0.00     0.083 A 
HETATM   13  H   UNL     1     -10.744   1.854 -31.968  1.00  0.00     0.170 HD
ENDROOT
BRANCH   9  14
HETATM   14  C   UNL     1      -9.131   3.899 -31.597  1.00  0.00     0.082 C 
HETATM   15  C   UNL     1      -8.772   4.038 -30.121  1.00  0.00     0.188 C 
HETATM   16  O   UNL     1      -7.370   3.842 -29.892  1.00  0.00    -0.350 OA
HETATM   17  C   UNL     1      -6.550   4.591 -30.697  1.00  0.00     0.075 A 
HETATM   18  C   UNL     1      -5.226   4.722 -30.273  1.00  0.00     0.040 A 
HETATM   19  C   UNL     1      -6.967   5.123 -31.923  1.00  0.00    -0.021 A 
HETATM   20  C   UNL     1      -4.311   5.418 -31.062  1.00  0.00     0.045 A 
HETATM   21  C   UNL     1      -4.729   5.969 -32.267  1.00  0.00     0.117 A 
HETATM   22  F   UNL     1      -3.852   6.635 -33.028  1.00  0.00    -0.206 F 
HETATM   23  C   UNL     1      -6.044   5.831 -32.702  1.00  0.00     0.052 A 
HETATM   24  C   UNL     1      -8.386   4.973 -32.391  1.00  0.00     0.056 C 
ENDBRANCH   9  14
BRANCH   1  25
HETATM   25  O   UNL     1      -5.072   1.852 -33.155  1.00  0.00    -0.354 OA
HETATM   26  C   UNL     1      -3.968   1.683 -32.264  1.00  0.00     0.210 C 
ENDBRANCH   1  25
BRANCH   3  27
HETATM   27  C   UNL     1      -6.078  -2.839 -34.348  1.00  0.00     0.010 A 
HETATM   28  C   UNL     1      -6.833  -3.915 -34.871  1.00  0.00     0.152 A 
HETATM   29  N   UNL     1      -6.082  -4.976 -35.166  1.00  0.00    -0.187 NA
HETATM   30  N   UNL     1      -4.840  -4.591 -34.839  1.00  0.00    -0.289 N 
HETATM   31  H   UNL     1      -4.079  -5.249 -34.978  1.00  0.00     0.188 HD
HETATM   32  C   UNL     1      -4.785  -3.317 -34.342  1.00  0.00     0.123 A 
ENDBRANCH   3  27
TORSDOF 3
ENDMDL
