MODEL 1
REMARK VINA RESULT:      -9.2      0.000      0.000
REMARK  5 active torsions:
REMARK  status: ('A' for Active; 'I' for Inactive)
REMARK    1  A    between atoms: C_3  and  C_4 
REMARK    2  A    between atoms: C_8  and  C_9 
REMARK       I    between atoms: C_9  and  N_10 
REMARK    3  A    between atoms: N_10  and  C_11 
REMARK    4  A    between atoms: C_11  and  C_12 
REMARK    5  A    between atoms: C_24  and  O_25 
ROOT
HETATM    1  C   UNL     1      -6.490  -0.004 -32.028  1.00  0.00     0.270 C 
HETATM    2  N   UNL     1      -5.496   0.060 -32.984  1.00  0.00    -0.342 N 
HETATM    3  O   UNL     1      -6.328  -0.507 -30.921  1.00  0.00    -0.266 OA
HETATM    4  H   UNL     1      -5.726   0.443 -33.891  1.00  0.00     0.164 HD
ENDROOT
BRANCH   1   5
HETATM    5  C   UNL     1      -7.767   0.515 -32.439  1.00  0.00     0.120 A 
HETATM    6  N   UNL     1      -8.213   1.731 -32.005  1.00  0.00    -0.272 N 
HETATM    7  N   UNL     1      -9.472   2.021 -32.373  1.00  0.00    -0.174 NA
HETATM    8  H   UNL     1      -7.705   2.385 -31.414  1.00  0.00     0.189 HD
HETATM    9  C   UNL     1      -9.860   0.962 -33.110  1.00  0.00     0.092 A 
HETATM   10  C   UNL     1      -8.805   0.011 -33.199  1.00  0.00     0.071 A 
BRANCH   9  11
HETATM   11  C   UNL     1     -11.225   0.865 -33.645  1.00  0.00     0.028 A 
HETATM   12  C   UNL     1     -12.090  -0.153 -33.212  1.00  0.00     0.017 A 
HETATM   13  C   UNL     1     -13.409  -0.221 -33.677  1.00  0.00     0.001 A 
HETATM   14  C   UNL     1     -13.883   0.729 -34.579  1.00  0.00     0.003 A 
HETATM   15  C   UNL     1     -13.038   1.740 -35.029  1.00  0.00     0.037 A 
HETATM   16  C   UNL     1     -11.723   1.801 -34.570  1.00  0.00     0.078 A 
BRANCH  16  17
HETATM   17  O   UNL     1     -10.959   2.827 -35.069  1.00  0.00    -0.360 OA
HETATM   18  H   UNL     1     -10.190   2.402 -35.515  1.00  0.00     0.217 HD
ENDBRANCH  16  17
ENDBRANCH   9  11
ENDBRANCH   1   5
BRANCH   2  19
HETATM   19  C   UNL     1      -4.346  -0.805 -32.948  1.00  0.00     0.064 A 
HETATM   20  C   UNL     1      -2.975  -0.176 -33.121  1.00  0.00     0.039 A 
HETATM   21  C   UNL     1      -3.369  -0.734 -31.792  1.00  0.00     0.039 A 
BRANCH  19  22
HETATM   22  C   UNL     1      -4.617  -2.146 -33.613  1.00  0.00     0.011 A 
HETATM   23  C   UNL     1      -5.576  -2.286 -34.631  1.00  0.00     0.125 A 
HETATM   24  F   UNL     1      -6.250  -1.204 -35.055  1.00  0.00    -0.205 F 
HETATM   25  C   UNL     1      -5.885  -3.521 -35.203  1.00  0.00     0.046 A 
HETATM   26  C   UNL     1      -5.232  -4.665 -34.754  1.00  0.00     0.045 A 
HETATM   27  C   UNL     1      -4.285  -4.555 -33.744  1.00  0.00     0.117 A 
HETATM   28  F   UNL     1      -3.668  -5.657 -33.298  1.00  0.00    -0.206 F 
HETATM   29  C   UNL     1      -3.977  -3.320 -33.177  1.00  0.00     0.055 A 
ENDBRANCH  19  22
ENDBRANCH   2  19
TORSDOF 5
ENDMDL
MODEL 2
REMARK VINA RESULT:      -9.1      3.457      8.501
REMARK  5 active torsions:
REMARK  status: ('A' for Active; 'I' for Inactive)
REMARK    1  A    between atoms: C_3  and  C_4 
REMARK    2  A    between atoms: C_8  and  C_9 
REMARK       I    between atoms: C_9  and  N_10 
REMARK    3  A    between atoms: N_10  and  C_11 
REMARK    4  A    between atoms: C_11  and  C_12 
REMARK    5  A    between atoms: C_24  and  O_25 
ROOT
HETATM    1  C   UNL     1      -9.872   1.503 -33.770  1.00  0.00     0.270 C 
HETATM    2  N   UNL     1     -10.886   1.506 -34.707  1.00  0.00    -0.342 N 
HETATM    3  O   UNL     1      -9.892   2.191 -32.754  1.00  0.00    -0.266 OA
HETATM    4  H   UNL     1     -10.769   0.950 -35.543  1.00  0.00     0.164 HD
ENDROOT
BRANCH   1   5
HETATM    5  C   UNL     1      -8.744   0.672 -34.094  1.00  0.00     0.120 A 
HETATM    6  N   UNL     1      -7.932   0.959 -35.156  1.00  0.00    -0.272 N 
HETATM    7  N   UNL     1      -7.000   0.024 -35.405  1.00  0.00    -0.174 NA
HETATM    8  H   UNL     1      -8.005   1.765 -35.771  1.00  0.00     0.189 HD
HETATM    9  C   UNL     1      -7.184  -0.901 -34.444  1.00  0.00     0.092 A 
HETATM   10  C   UNL     1      -8.250  -0.513 -33.585  1.00  0.00     0.071 A 
BRANCH   9  11
HETATM   11  C   UNL     1      -6.391  -2.138 -34.415  1.00  0.00     0.028 A 
HETATM   12  C   UNL     1      -6.978  -3.370 -34.748  1.00  0.00     0.017 A 
HETATM   13  C   UNL     1      -6.217  -4.544 -34.774  1.00  0.00     0.001 A 
HETATM   14  C   UNL     1      -4.858  -4.504 -34.469  1.00  0.00     0.003 A 
HETATM   15  C   UNL     1      -4.259  -3.295 -34.126  1.00  0.00     0.037 A 
HETATM   16  C   UNL     1      -5.021  -2.128 -34.094  1.00  0.00     0.078 A 
BRANCH  16  17
HETATM   17  O   UNL     1      -4.352  -0.983 -33.740  1.00  0.00    -0.360 OA
HETATM   18  H   UNL     1      -5.011  -0.414 -33.280  1.00  0.00     0.217 HD
ENDBRANCH  16  17
ENDBRANCH   9  11
ENDBRANCH   1   5
BRANCH   2  19
HETATM   19  C   UNL     1     -11.829   2.589 -34.807  1.00  0.00     0.064 A 
HETATM   20  C   UNL     1     -11.299   3.963 -35.178  1.00  0.00     0.039 A 
HETATM   21  C   UNL     1     -12.145   3.210 -36.152  1.00  0.00     0.039 A 
BRANCH  19  22
HETATM   22  C   UNL     1     -12.924   2.495 -33.754  1.00  0.00     0.011 A 
HETATM   23  C   UNL     1     -13.960   1.549 -33.848  1.00  0.00     0.125 A 
HETATM   24  F   UNL     1     -13.970   0.682 -34.873  1.00  0.00    -0.205 F 
HETATM   25  C   UNL     1     -15.008   1.496 -32.928  1.00  0.00     0.046 A 
HETATM   26  C   UNL     1     -15.046   2.409 -31.879  1.00  0.00     0.045 A 
HETATM   27  C   UNL     1     -14.037   3.358 -31.769  1.00  0.00     0.117 A 
HETATM   28  F   UNL     1     -14.081   4.250 -30.770  1.00  0.00    -0.206 F 
HETATM   29  C   UNL     1     -12.990   3.407 -32.687  1.00  0.00     0.055 A 
ENDBRANCH  19  22
ENDBRANCH   2  19
TORSDOF 5
ENDMDL
MODEL 3
REMARK VINA RESULT:      -9.0      4.533      7.426
REMARK  5 active torsions:
REMARK  status: ('A' for Active; 'I' for Inactive)
REMARK    1  A    between atoms: C_3  and  C_4 
REMARK    2  A    between atoms: C_8  and  C_9 
REMARK       I    between atoms: C_9  and  N_10 
REMARK    3  A    between atoms: N_10  and  C_11 
REMARK    4  A    between atoms: C_11  and  C_12 
REMARK    5  A    between atoms: C_24  and  O_25 
ROOT
HETATM    1  C   UNL     1      -6.423   2.491 -33.801  1.00  0.00     0.270 C 
HETATM    2  N   UNL     1      -6.959   1.915 -32.667  1.00  0.00    -0.342 N 
HETATM    3  O   UNL     1      -6.652   2.085 -34.936  1.00  0.00    -0.266 OA
HETATM    4  H   UNL     1      -6.679   2.277 -31.766  1.00  0.00     0.164 HD
ENDROOT
BRANCH   1   5
HETATM    5  C   UNL     1      -5.516   3.582 -33.561  1.00  0.00     0.120 A 
HETATM    6  N   UNL     1      -5.625   4.759 -34.246  1.00  0.00    -0.272 N 
HETATM    7  N   UNL     1      -4.633   5.632 -34.003  1.00  0.00    -0.174 NA
HETATM    8  H   UNL     1      -6.340   4.998 -34.928  1.00  0.00     0.189 HD
HETATM    9  C   UNL     1      -3.856   5.015 -33.093  1.00  0.00     0.092 A 
HETATM   10  C   UNL     1      -4.396   3.739 -32.769  1.00  0.00     0.071 A 
BRANCH   9  11
HETATM   11  C   UNL     1      -2.608   5.628 -32.615  1.00  0.00     0.028 A 
HETATM   12  C   UNL     1      -2.054   5.248 -31.382  1.00  0.00     0.017 A 
HETATM   13  C   UNL     1      -0.839   5.787 -30.945  1.00  0.00     0.001 A 
HETATM   14  C   UNL     1      -0.158   6.712 -31.734  1.00  0.00     0.003 A 
HETATM   15  C   UNL     1      -0.696   7.109 -32.955  1.00  0.00     0.037 A 
HETATM   16  C   UNL     1      -1.910   6.576 -33.385  1.00  0.00     0.078 A 
BRANCH  16  17
HETATM   17  O   UNL     1      -2.369   7.028 -34.598  1.00  0.00    -0.360 OA
HETATM   18  H   UNL     1      -2.879   7.848 -34.407  1.00  0.00     0.217 HD
ENDBRANCH  16  17
ENDBRANCH   9  11
ENDBRANCH   1   5
BRANCH   2  19
HETATM   19  C   UNL     1      -7.473   0.570 -32.665  1.00  0.00     0.064 A 
HETATM   20  C   UNL     1      -8.575   0.231 -31.676  1.00  0.00     0.039 A 
HETATM   21  C   UNL     1      -8.885   0.288 -33.137  1.00  0.00     0.039 A 
BRANCH  19  22
HETATM   22  C   UNL     1      -6.383  -0.460 -32.917  1.00  0.00     0.011 A 
HETATM   23  C   UNL     1      -5.293  -0.612 -32.043  1.00  0.00     0.125 A 
HETATM   24  F   UNL     1      -5.224   0.147 -30.938  1.00  0.00    -0.205 F 
HETATM   25  C   UNL     1      -4.250  -1.504 -32.298  1.00  0.00     0.046 A 
HETATM   26  C   UNL     1      -4.274  -2.273 -33.457  1.00  0.00     0.045 A 
HETATM   27  C   UNL     1      -5.338  -2.137 -34.340  1.00  0.00     0.117 A 
HETATM   28  F   UNL     1      -5.355  -2.863 -35.465  1.00  0.00    -0.206 F 
HETATM   29  C   UNL     1      -6.379  -1.247 -34.082  1.00  0.00     0.055 A 
ENDBRANCH  19  22
ENDBRANCH   2  19
TORSDOF 5
ENDMDL
MODEL 4
REMARK VINA RESULT:      -8.9      4.806      7.553
REMARK  5 active torsions:
REMARK  status: ('A' for Active; 'I' for Inactive)
REMARK    1  A    between atoms: C_3  and  C_4 
REMARK    2  A    between atoms: C_8  and  C_9 
REMARK       I    between atoms: C_9  and  N_10 
REMARK    3  A    between atoms: N_10  and  C_11 
REMARK    4  A    between atoms: C_11  and  C_12 
REMARK    5  A    between atoms: C_24  and  O_25 
ROOT
HETATM    1  C   UNL     1      -5.227   2.137 -32.147  1.00  0.00     0.270 C 
HETATM    2  N   UNL     1      -5.489   3.033 -33.165  1.00  0.00    -0.342 N 
HETATM    3  O   UNL     1      -5.168   2.459 -30.964  1.00  0.00    -0.266 OA
HETATM    4  H   UNL     1      -5.468   2.697 -34.117  1.00  0.00     0.164 HD
ENDROOT
BRANCH   1   5
HETATM    5  C   UNL     1      -4.966   0.788 -32.573  1.00  0.00     0.120 A 
HETATM    6  N   UNL     1      -3.693   0.354 -32.816  1.00  0.00    -0.272 N 
HETATM    7  N   UNL     1      -3.621  -0.887 -33.325  1.00  0.00    -0.174 NA
HETATM    8  H   UNL     1      -2.838   0.889 -32.689  1.00  0.00     0.189 HD
HETATM    9  C   UNL     1      -4.901  -1.300 -33.389  1.00  0.00     0.092 A 
HETATM   10  C   UNL     1      -5.771  -0.287 -32.896  1.00  0.00     0.071 A 
BRANCH   9  11
HETATM   11  C   UNL     1      -5.254  -2.604 -33.967  1.00  0.00     0.028 A 
HETATM   12  C   UNL     1      -6.399  -2.743 -34.768  1.00  0.00     0.017 A 
HETATM   13  C   UNL     1      -6.713  -3.969 -35.365  1.00  0.00     0.001 A 
HETATM   14  C   UNL     1      -5.886  -5.074 -35.173  1.00  0.00     0.003 A 
HETATM   15  C   UNL     1      -4.751  -4.960 -34.374  1.00  0.00     0.037 A 
HETATM   16  C   UNL     1      -4.445  -3.739 -33.774  1.00  0.00     0.078 A 
BRANCH  16  17
HETATM   17  O   UNL     1      -3.312  -3.718 -32.999  1.00  0.00    -0.360 OA
HETATM   18  H   UNL     1      -2.689  -3.099 -33.444  1.00  0.00     0.217 HD
ENDBRANCH  16  17
ENDBRANCH   9  11
ENDBRANCH   1   5
BRANCH   2  19
HETATM   19  C   UNL     1      -5.298   4.450 -33.000  1.00  0.00     0.064 A 
HETATM   20  C   UNL     1      -6.420   5.375 -33.440  1.00  0.00     0.039 A 
HETATM   21  C   UNL     1      -6.117   5.222 -31.985  1.00  0.00     0.039 A 
BRANCH  19  22
HETATM   22  C   UNL     1      -3.862   4.871 -33.275  1.00  0.00     0.011 A 
HETATM   23  C   UNL     1      -3.396   5.100 -34.581  1.00  0.00     0.125 A 
HETATM   24  F   UNL     1      -4.245   4.978 -35.615  1.00  0.00    -0.205 F 
HETATM   25  C   UNL     1      -2.065   5.419 -34.854  1.00  0.00     0.046 A 
HETATM   26  C   UNL     1      -1.154   5.510 -33.806  1.00  0.00     0.045 A 
HETATM   27  C   UNL     1      -1.589   5.282 -32.507  1.00  0.00     0.117 A 
HETATM   28  F   UNL     1      -0.711   5.352 -31.498  1.00  0.00    -0.206 F 
HETATM   29  C   UNL     1      -2.919   4.967 -32.237  1.00  0.00     0.055 A 
ENDBRANCH  19  22
ENDBRANCH   2  19
TORSDOF 5
ENDMDL
MODEL 5
REMARK VINA RESULT:      -8.9      1.207      1.780
REMARK  5 active torsions:
REMARK  status: ('A' for Active; 'I' for Inactive)
REMARK    1  A    between atoms: C_3  and  C_4 
REMARK    2  A    between atoms: C_8  and  C_9 
REMARK       I    between atoms: C_9  and  N_10 
REMARK    3  A    between atoms: N_10  and  C_11 
REMARK    4  A    between atoms: C_11  and  C_12 
REMARK    5  A    between atoms: C_24  and  O_25 
ROOT
HETATM    1  C   UNL     1      -6.720  -0.043 -32.329  1.00  0.00     0.270 C 
HETATM    2  N   UNL     1      -5.630  -0.047 -33.175  1.00  0.00    -0.342 N 
HETATM    3  O   UNL     1      -6.661  -0.387 -31.152  1.00  0.00    -0.266 OA
HETATM    4  H   UNL     1      -5.774   0.200 -34.144  1.00  0.00     0.164 HD
ENDROOT
BRANCH   1   5
HETATM    5  C   UNL     1      -7.966   0.340 -32.938  1.00  0.00     0.120 A 
HETATM    6  N   UNL     1      -8.009   1.265 -33.943  1.00  0.00    -0.272 N 
HETATM    7  N   UNL     1      -9.251   1.609 -34.323  1.00  0.00    -0.174 NA
HETATM    8  H   UNL     1      -7.212   1.726 -34.375  1.00  0.00     0.189 HD
HETATM    9  C   UNL     1     -10.059   0.851 -33.557  1.00  0.00     0.092 A 
HETATM   10  C   UNL     1      -9.288   0.020 -32.698  1.00  0.00     0.071 A 
BRANCH   9  11
HETATM   11  C   UNL     1     -11.521   0.988 -33.625  1.00  0.00     0.028 A 
HETATM   12  C   UNL     1     -12.346  -0.148 -33.594  1.00  0.00     0.017 A 
HETATM   13  C   UNL     1     -13.740  -0.024 -33.604  1.00  0.00     0.001 A 
HETATM   14  C   UNL     1     -14.330   1.237 -33.643  1.00  0.00     0.003 A 
HETATM   15  C   UNL     1     -13.530   2.376 -33.685  1.00  0.00     0.037 A 
HETATM   16  C   UNL     1     -12.142   2.250 -33.682  1.00  0.00     0.078 A 
BRANCH  16  17
HETATM   17  O   UNL     1     -11.431   3.423 -33.731  1.00  0.00    -0.360 OA
HETATM   18  H   UNL     1     -10.755   3.302 -34.437  1.00  0.00     0.217 HD
ENDBRANCH  16  17
ENDBRANCH   9  11
ENDBRANCH   1   5
BRANCH   2  19
HETATM   19  C   UNL     1      -4.454  -0.830 -32.900  1.00  0.00     0.064 A 
HETATM   20  C   UNL     1      -3.100  -0.151 -33.024  1.00  0.00     0.039 A 
HETATM   21  C   UNL     1      -3.610  -0.543 -31.675  1.00  0.00     0.039 A 
BRANCH  19  22
HETATM   22  C   UNL     1      -4.593  -2.264 -33.390  1.00  0.00     0.011 A 
HETATM   23  C   UNL     1      -3.755  -3.290 -32.919  1.00  0.00     0.125 A 
HETATM   24  F   UNL     1      -2.829  -3.011 -31.988  1.00  0.00    -0.205 F 
HETATM   25  C   UNL     1      -3.825  -4.595 -33.409  1.00  0.00     0.046 A 
HETATM   26  C   UNL     1      -4.747  -4.904 -34.405  1.00  0.00     0.045 A 
HETATM   27  C   UNL     1      -5.581  -3.906 -34.891  1.00  0.00     0.117 A 
HETATM   28  F   UNL     1      -6.457  -4.197 -35.862  1.00  0.00    -0.206 F 
HETATM   29  C   UNL     1      -5.511  -2.605 -34.398  1.00  0.00     0.055 A 
ENDBRANCH  19  22
ENDBRANCH   2  19
TORSDOF 5
ENDMDL
MODEL 6
REMARK VINA RESULT:      -8.7      6.180      8.831
REMARK  5 active torsions:
REMARK  status: ('A' for Active; 'I' for Inactive)
REMARK    1  A    between atoms: C_3  and  C_4 
REMARK    2  A    between atoms: C_8  and  C_9 
REMARK       I    between atoms: C_9  and  N_10 
REMARK    3  A    between atoms: N_10  and  C_11 
REMARK    4  A    between atoms: C_11  and  C_12 
REMARK    5  A    between atoms: C_24  and  O_25 
ROOT
HETATM    1  C   UNL     1      -3.638   4.997 -31.679  1.00  0.00     0.270 C 
HETATM    2  N   UNL     1      -2.511   5.400 -32.367  1.00  0.00    -0.342 N 
HETATM    3  O   UNL     1      -4.296   5.748 -30.966  1.00  0.00    -0.266 OA
HETATM    4  H   UNL     1      -1.995   4.707 -32.891  1.00  0.00     0.164 HD
ENDROOT
BRANCH   1   5
HETATM    5  C   UNL     1      -3.966   3.602 -31.807  1.00  0.00     0.120 A 
HETATM    6  N   UNL     1      -3.455   2.671 -30.947  1.00  0.00    -0.272 N 
HETATM    7  N   UNL     1      -3.751   1.401 -31.270  1.00  0.00    -0.174 NA
HETATM    8  H   UNL     1      -2.858   2.853 -30.144  1.00  0.00     0.189 HD
HETATM    9  C   UNL     1      -4.519   1.504 -32.372  1.00  0.00     0.092 A 
HETATM   10  C   UNL     1      -4.700   2.872 -32.721  1.00  0.00     0.071 A 
BRANCH   9  11
HETATM   11  C   UNL     1      -4.995   0.309 -33.083  1.00  0.00     0.028 A 
HETATM   12  C   UNL     1      -6.234   0.319 -33.744  1.00  0.00     0.017 A 
HETATM   13  C   UNL     1      -6.671  -0.797 -34.467  1.00  0.00     0.001 A 
HETATM   14  C   UNL     1      -5.876  -1.938 -34.542  1.00  0.00     0.003 A 
HETATM   15  C   UNL     1      -4.649  -1.972 -33.885  1.00  0.00     0.037 A 
HETATM   16  C   UNL     1      -4.219  -0.862 -33.159  1.00  0.00     0.078 A 
BRANCH  16  17
HETATM   17  O   UNL     1      -3.001  -0.985 -32.539  1.00  0.00    -0.360 OA
HETATM   18  H   UNL     1      -3.007  -0.338 -31.797  1.00  0.00     0.217 HD
ENDBRANCH  16  17
ENDBRANCH   9  11
ENDBRANCH   1   5
BRANCH   2  19
HETATM   19  C   UNL     1      -1.770   6.577 -31.995  1.00  0.00     0.064 A 
HETATM   20  C   UNL     1      -1.121   7.390 -33.102  1.00  0.00     0.039 A 
HETATM   21  C   UNL     1      -2.287   7.955 -32.358  1.00  0.00     0.039 A 
BRANCH  19  22
HETATM   22  C   UNL     1      -1.008   6.387 -30.693  1.00  0.00     0.011 A 
HETATM   23  C   UNL     1       0.059   5.477 -30.587  1.00  0.00     0.125 A 
HETATM   24  F   UNL     1       0.441   4.780 -31.670  1.00  0.00    -0.205 F 
HETATM   25  C   UNL     1       0.723   5.241 -29.383  1.00  0.00     0.046 A 
HETATM   26  C   UNL     1       0.322   5.917 -28.236  1.00  0.00     0.045 A 
HETATM   27  C   UNL     1      -0.734   6.816 -28.312  1.00  0.00     0.117 A 
HETATM   28  F   UNL     1      -1.134   7.456 -27.205  1.00  0.00    -0.206 F 
HETATM   29  C   UNL     1      -1.393   7.053 -29.517  1.00  0.00     0.055 A 
ENDBRANCH  19  22
ENDBRANCH   2  19
TORSDOF 5
ENDMDL
MODEL 7
REMARK VINA RESULT:      -8.5      5.199      8.550
REMARK  5 active torsions:
REMARK  status: ('A' for Active; 'I' for Inactive)
REMARK    1  A    between atoms: C_3  and  C_4 
REMARK    2  A    between atoms: C_8  and  C_9 
REMARK       I    between atoms: C_9  and  N_10 
REMARK    3  A    between atoms: N_10  and  C_11 
REMARK    4  A    between atoms: C_11  and  C_12 
REMARK    5  A    between atoms: C_24  and  O_25 
ROOT
HETATM    1  C   UNL     1      -5.025   3.314 -32.649  1.00  0.00     0.270 C 
HETATM    2  N   UNL     1      -5.579   2.545 -31.646  1.00  0.00    -0.342 N 
HETATM    3  O   UNL     1      -5.476   3.361 -33.790  1.00  0.00    -0.266 OA
HETATM    4  H   UNL     1      -5.116   2.521 -30.748  1.00  0.00     0.164 HD
ENDROOT
BRANCH   1   5
HETATM    5  C   UNL     1      -3.830   4.026 -32.283  1.00  0.00     0.120 A 
HETATM    6  N   UNL     1      -2.634   3.766 -32.891  1.00  0.00    -0.272 N 
HETATM    7  N   UNL     1      -1.589   4.420 -32.357  1.00  0.00    -0.174 NA
HETATM    8  H   UNL     1      -2.473   3.111 -33.653  1.00  0.00     0.189 HD
HETATM    9  C   UNL     1      -2.127   5.169 -31.376  1.00  0.00     0.092 A 
HETATM   10  C   UNL     1      -3.536   4.972 -31.320  1.00  0.00     0.071 A 
BRANCH   9  11
HETATM   11  C   UNL     1      -1.284   5.990 -30.494  1.00  0.00     0.028 A 
HETATM   12  C   UNL     1      -1.569   7.352 -30.303  1.00  0.00     0.017 A 
HETATM   13  C   UNL     1      -0.803   8.128 -29.424  1.00  0.00     0.001 A 
HETATM   14  C   UNL     1       0.255   7.554 -28.724  1.00  0.00     0.003 A 
HETATM   15  C   UNL     1       0.560   6.208 -28.908  1.00  0.00     0.037 A 
HETATM   16  C   UNL     1      -0.199   5.439 -29.789  1.00  0.00     0.078 A 
BRANCH  16  17
HETATM   17  O   UNL     1       0.174   4.124 -29.913  1.00  0.00    -0.360 OA
HETATM   18  H   UNL     1       0.025   3.714 -29.031  1.00  0.00     0.217 HD
ENDBRANCH  16  17
ENDBRANCH   9  11
ENDBRANCH   1   5
BRANCH   2  19
HETATM   19  C   UNL     1      -6.445   1.430 -31.930  1.00  0.00     0.064 A 
HETATM   20  C   UNL     1      -7.684   1.253 -31.069  1.00  0.00     0.039 A 
HETATM   21  C   UNL     1      -7.831   1.661 -32.498  1.00  0.00     0.039 A 
BRANCH  19  22
HETATM   22  C   UNL     1      -5.667   0.191 -32.344  1.00  0.00     0.011 A 
HETATM   23  C   UNL     1      -4.594  -0.298 -31.578  1.00  0.00     0.125 A 
HETATM   24  F   UNL     1      -4.265   0.322 -30.433  1.00  0.00    -0.205 F 
HETATM   25  C   UNL     1      -3.827  -1.392 -31.980  1.00  0.00     0.046 A 
HETATM   26  C   UNL     1      -4.118  -2.028 -33.183  1.00  0.00     0.045 A 
HETATM   27  C   UNL     1      -5.170  -1.560 -33.961  1.00  0.00     0.117 A 
HETATM   28  F   UNL     1      -5.441  -2.159 -35.128  1.00  0.00    -0.206 F 
HETATM   29  C   UNL     1      -5.936  -0.469 -33.556  1.00  0.00     0.055 A 
ENDBRANCH  19  22
ENDBRANCH   2  19
TORSDOF 5
ENDMDL
MODEL 8
REMARK VINA RESULT:      -8.5      2.759      7.660
REMARK  5 active torsions:
REMARK  status: ('A' for Active; 'I' for Inactive)
REMARK    1  A    between atoms: C_3  and  C_4 
REMARK    2  A    between atoms: C_8  and  C_9 
REMARK       I    between atoms: C_9  and  N_10 
REMARK    3  A    between atoms: N_10  and  C_11 
REMARK    4  A    between atoms: C_11  and  C_12 
REMARK    5  A    between atoms: C_24  and  O_25 
ROOT
HETATM    1  C   UNL     1      -7.648   2.284 -33.103  1.00  0.00     0.270 C 
HETATM    2  N   UNL     1      -8.587   2.262 -32.091  1.00  0.00    -0.342 N 
HETATM    3  O   UNL     1      -7.492   3.240 -33.856  1.00  0.00    -0.266 OA
HETATM    4  H   UNL     1      -8.689   1.416 -31.549  1.00  0.00     0.164 HD
ENDROOT
BRANCH   1   5
HETATM    5  C   UNL     1      -6.890   1.071 -33.259  1.00  0.00     0.120 A 
HETATM    6  N   UNL     1      -5.524   1.086 -33.280  1.00  0.00    -0.272 N 
HETATM    7  N   UNL     1      -4.964  -0.103 -33.558  1.00  0.00    -0.174 NA
HETATM    8  H   UNL     1      -4.926   1.898 -33.152  1.00  0.00     0.189 HD
HETATM    9  C   UNL     1      -6.007  -0.944 -33.692  1.00  0.00     0.092 A 
HETATM   10  C   UNL     1      -7.231  -0.249 -33.482  1.00  0.00     0.071 A 
BRANCH   9  11
HETATM   11  C   UNL     1      -5.809  -2.350 -34.074  1.00  0.00     0.028 A 
HETATM   12  C   UNL     1      -6.796  -3.037 -34.799  1.00  0.00     0.017 A 
HETATM   13  C   UNL     1      -6.593  -4.359 -35.212  1.00  0.00     0.001 A 
HETATM   14  C   UNL     1      -5.401  -5.012 -34.909  1.00  0.00     0.003 A 
HETATM   15  C   UNL     1      -4.414  -4.351 -34.181  1.00  0.00     0.037 A 
HETATM   16  C   UNL     1      -4.622  -3.038 -33.765  1.00  0.00     0.078 A 
BRANCH  16  17
HETATM   17  O   UNL     1      -3.600  -2.466 -33.049  1.00  0.00    -0.360 OA
HETATM   18  H   UNL     1      -2.799  -3.009 -33.235  1.00  0.00     0.217 HD
ENDBRANCH  16  17
ENDBRANCH   9  11
ENDBRANCH   1   5
BRANCH   2  19
HETATM   19  C   UNL     1      -9.725   3.144 -32.088  1.00  0.00     0.064 A 
HETATM   20  C   UNL     1     -10.299   3.562 -30.745  1.00  0.00     0.039 A 
HETATM   21  C   UNL     1      -9.590   4.569 -31.591  1.00  0.00     0.039 A 
BRANCH  19  22
HETATM   22  C   UNL     1     -10.689   2.840 -33.224  1.00  0.00     0.011 A 
HETATM   23  C   UNL     1     -11.098   1.526 -33.515  1.00  0.00     0.125 A 
HETATM   24  F   UNL     1     -10.655   0.514 -32.752  1.00  0.00    -0.205 F 
HETATM   25  C   UNL     1     -11.927   1.224 -34.596  1.00  0.00     0.046 A 
HETATM   26  C   UNL     1     -12.367   2.248 -35.429  1.00  0.00     0.045 A 
HETATM   27  C   UNL     1     -11.972   3.554 -35.167  1.00  0.00     0.117 A 
HETATM   28  F   UNL     1     -12.380   4.539 -35.977  1.00  0.00    -0.206 F 
HETATM   29  C   UNL     1     -11.147   3.853 -34.085  1.00  0.00     0.055 A 
ENDBRANCH  19  22
ENDBRANCH   2  19
TORSDOF 5
ENDMDL
MODEL 9
REMARK VINA RESULT:      -8.3      3.393      8.413
REMARK  5 active torsions:
REMARK  status: ('A' for Active; 'I' for Inactive)
REMARK    1  A    between atoms: C_3  and  C_4 
REMARK    2  A    between atoms: C_8  and  C_9 
REMARK       I    between atoms: C_9  and  N_10 
REMARK    3  A    between atoms: N_10  and  C_11 
REMARK    4  A    between atoms: C_11  and  C_12 
REMARK    5  A    between atoms: C_24  and  O_25 
ROOT
HETATM    1  C   UNL     1     -10.125   0.831 -34.028  1.00  0.00     0.270 C 
HETATM    2  N   UNL     1     -10.455   1.842 -34.909  1.00  0.00    -0.342 N 
HETATM    3  O   UNL     1     -10.909   0.374 -33.202  1.00  0.00    -0.266 OA
HETATM    4  H   UNL     1      -9.736   2.198 -35.522  1.00  0.00     0.164 HD
ENDROOT
BRANCH   1   5
HETATM    5  C   UNL     1      -8.762   0.377 -34.103  1.00  0.00     0.120 A 
HETATM    6  N   UNL     1      -8.068   0.404 -35.279  1.00  0.00    -0.272 N 
HETATM    7  N   UNL     1      -6.853  -0.166 -35.216  1.00  0.00    -0.174 NA
HETATM    8  H   UNL     1      -8.401   0.766 -36.169  1.00  0.00     0.189 HD
HETATM    9  C   UNL     1      -6.730  -0.556 -33.933  1.00  0.00     0.092 A 
HETATM   10  C   UNL     1      -7.896  -0.204 -33.197  1.00  0.00     0.071 A 
BRANCH   9  11
HETATM   11  C   UNL     1      -5.547  -1.297 -33.472  1.00  0.00     0.028 A 
HETATM   12  C   UNL     1      -4.839  -0.873 -32.336  1.00  0.00     0.017 A 
HETATM   13  C   UNL     1      -3.744  -1.602 -31.859  1.00  0.00     0.001 A 
HETATM   14  C   UNL     1      -3.342  -2.767 -32.509  1.00  0.00     0.003 A 
HETATM   15  C   UNL     1      -4.024  -3.198 -33.644  1.00  0.00     0.037 A 
HETATM   16  C   UNL     1      -5.110  -2.466 -34.121  1.00  0.00     0.078 A 
BRANCH  16  17
HETATM   17  O   UNL     1      -5.720  -2.961 -35.247  1.00  0.00    -0.360 OA
HETATM   18  H   UNL     1      -4.999  -3.326 -35.809  1.00  0.00     0.217 HD
ENDBRANCH  16  17
ENDBRANCH   9  11
ENDBRANCH   1   5
BRANCH   2  19
HETATM   19  C   UNL     1     -11.565   2.727 -34.671  1.00  0.00     0.064 A 
HETATM   20  C   UNL     1     -12.262   3.335 -35.876  1.00  0.00     0.039 A 
HETATM   21  C   UNL     1     -12.972   2.312 -35.050  1.00  0.00     0.039 A 
BRANCH  19  22
HETATM   22  C   UNL     1     -11.350   3.599 -33.443  1.00  0.00     0.011 A 
HETATM   23  C   UNL     1     -10.255   4.475 -33.341  1.00  0.00     0.125 A 
HETATM   24  F   UNL     1      -9.392   4.574 -34.365  1.00  0.00    -0.205 F 
HETATM   25  C   UNL     1     -10.007   5.229 -32.193  1.00  0.00     0.046 A 
HETATM   26  C   UNL     1     -10.861   5.115 -31.101  1.00  0.00     0.045 A 
HETATM   27  C   UNL     1     -11.946   4.251 -31.174  1.00  0.00     0.117 A 
HETATM   28  F   UNL     1     -12.760   4.127 -30.118  1.00  0.00    -0.206 F 
HETATM   29  C   UNL     1     -12.193   3.502 -32.323  1.00  0.00     0.055 A 
ENDBRANCH  19  22
ENDBRANCH   2  19
TORSDOF 5
ENDMDL
MODEL 10
REMARK VINA RESULT:      -8.3      6.117      8.525
REMARK  5 active torsions:
REMARK  status: ('A' for Active; 'I' for Inactive)
REMARK    1  A    between atoms: C_3  and  C_4 
REMARK    2  A    between atoms: C_8  and  C_9 
REMARK       I    between atoms: C_9  and  N_10 
REMARK    3  A    between atoms: N_10  and  C_11 
REMARK    4  A    between atoms: C_11  and  C_12 
REMARK    5  A    between atoms: C_24  and  O_25 
ROOT
HETATM    1  C   UNL     1      -3.556   4.875 -31.781  1.00  0.00     0.270 C 
HETATM    2  N   UNL     1      -2.432   5.216 -32.507  1.00  0.00    -0.342 N 
HETATM    3  O   UNL     1      -4.168   5.669 -31.074  1.00  0.00    -0.266 OA
HETATM    4  H   UNL     1      -1.955   4.490 -33.023  1.00  0.00     0.164 HD
ENDROOT
BRANCH   1   5
HETATM    5  C   UNL     1      -3.937   3.490 -31.860  1.00  0.00     0.120 A 
HETATM    6  N   UNL     1      -3.411   2.559 -31.009  1.00  0.00    -0.272 N 
HETATM    7  N   UNL     1      -3.767   1.294 -31.288  1.00  0.00    -0.174 NA
HETATM    8  H   UNL     1      -2.765   2.736 -30.244  1.00  0.00     0.189 HD
HETATM    9  C   UNL     1      -4.591   1.401 -32.348  1.00  0.00     0.092 A 
HETATM   10  C   UNL     1      -4.745   2.767 -32.716  1.00  0.00     0.071 A 
BRANCH   9  11
HETATM   11  C   UNL     1      -5.146   0.209 -33.006  1.00  0.00     0.028 A 
HETATM   12  C   UNL     1      -4.297  -0.805 -33.479  1.00  0.00     0.017 A 
HETATM   13  C   UNL     1      -4.820  -1.966 -34.058  1.00  0.00     0.001 A 
HETATM   14  C   UNL     1      -6.198  -2.133 -34.171  1.00  0.00     0.003 A 
HETATM   15  C   UNL     1      -7.056  -1.135 -33.718  1.00  0.00     0.037 A 
HETATM   16  C   UNL     1      -6.533   0.025 -33.148  1.00  0.00     0.078 A 
BRANCH  16  17
HETATM   17  O   UNL     1      -7.451   0.958 -32.734  1.00  0.00    -0.360 OA
HETATM   18  H   UNL     1      -7.751   1.424 -33.548  1.00  0.00     0.217 HD
ENDBRANCH  16  17
ENDBRANCH   9  11
ENDBRANCH   1   5
BRANCH   2  19
HETATM   19  C   UNL     1      -1.640   6.375 -32.187  1.00  0.00     0.064 A 
HETATM   20  C   UNL     1      -0.855   7.033 -33.308  1.00  0.00     0.039 A 
HETATM   21  C   UNL     1      -2.030   7.740 -32.717  1.00  0.00     0.039 A 
BRANCH  19  22
HETATM   22  C   UNL     1      -0.992   6.265 -30.816  1.00  0.00     0.011 A 
HETATM   23  C   UNL     1      -1.299   7.163 -29.778  1.00  0.00     0.125 A 
HETATM   24  F   UNL     1      -2.213   8.124 -29.988  1.00  0.00    -0.205 F 
HETATM   25  C   UNL     1      -0.662   7.117 -28.537  1.00  0.00     0.046 A 
HETATM   26  C   UNL     1       0.319   6.159 -28.306  1.00  0.00     0.045 A 
HETATM   27  C   UNL     1       0.646   5.264 -29.318  1.00  0.00     0.117 A 
HETATM   28  F   UNL     1       1.602   4.351 -29.104  1.00  0.00    -0.206 F 
HETATM   29  C   UNL     1       0.006   5.310 -30.554  1.00  0.00     0.055 A 
ENDBRANCH  19  22
ENDBRANCH   2  19
TORSDOF 5
ENDMDL
