MODEL 1
REMARK VINA RESULT:      -7.8      0.000      0.000
REMARK  3 active torsions:
REMARK  status: ('A' for Active; 'I' for Inactive)
REMARK    1  A    between atoms: C_8  and  C_9 
REMARK    2  A    between atoms: C_10  and  O_11 
REMARK    3  A    between atoms: C_24  and  N_25 
ROOT
HETATM    1  C   UNL     1      -5.563   3.644 -34.133  1.00  0.00     0.073 C 
HETATM    2  C   UNL     1      -6.954   4.089 -33.869  1.00  0.00     0.062 A 
HETATM    3  N   UNL     1      -7.272   5.393 -33.938  1.00  0.00    -0.177 NA
HETATM    4  N   UNL     1      -8.591   5.429 -33.663  1.00  0.00    -0.256 N 
HETATM    5  H   UNL     1      -9.065   6.325 -33.655  1.00  0.00     0.191 HD
HETATM    6  C   UNL     1      -9.114   4.197 -33.439  1.00  0.00     0.175 A 
HETATM    7  C   UNL     1      -8.081   3.301 -33.537  1.00  0.00     0.034 A 
HETATM    8  C   UNL     1      -8.351   1.846 -33.371  1.00  0.00     0.109 A 
HETATM    9  C   UNL     1      -9.820   1.599 -33.020  1.00  0.00     0.081 A 
HETATM   10  C   UNL     1     -10.215   0.241 -32.834  1.00  0.00     0.100 C 
HETATM   11  N   UNL     1     -10.560  -0.861 -32.717  1.00  0.00    -0.191 NA
HETATM   12  C   UNL     1     -10.738   2.603 -32.946  1.00  0.00     0.140 A 
HETATM   13  O   UNL     1     -10.390   3.951 -33.168  1.00  0.00    -0.279 OA
ENDROOT
BRANCH   8  14
HETATM   14  C   UNL     1      -7.329   1.281 -32.376  1.00  0.00     0.000 A 
HETATM   15  C   UNL     1      -7.323   1.838 -31.068  1.00  0.00     0.076 A 
HETATM   16  C   UNL     1      -6.431   1.373 -30.103  1.00  0.00     0.038 A 
HETATM   17  C   UNL     1      -5.512   0.380 -30.420  1.00  0.00     0.015 A 
HETATM   18  C   UNL     1      -5.463  -0.176 -31.700  1.00  0.00    -0.025 A 
HETATM   19  C   UNL     1      -6.366   0.260 -32.706  1.00  0.00    -0.016 A 
HETATM   20  C   UNL     1      -4.505  -1.169 -31.966  1.00  0.00     0.012 A 
HETATM   21  C   UNL     1      -6.227  -0.367 -33.971  1.00  0.00     0.013 A 
HETATM   22  C   UNL     1      -5.269  -1.353 -34.227  1.00  0.00     0.001 A 
HETATM   23  C   UNL     1      -4.407  -1.757 -33.222  1.00  0.00     0.001 A 
BRANCH  15  24
HETATM   24  O   UNL     1      -8.254   2.814 -30.806  1.00  0.00    -0.355 OA
HETATM   25  C   UNL     1      -7.884   3.835 -29.886  1.00  0.00     0.210 C 
ENDBRANCH  15  24
ENDBRANCH   8  14
BRANCH  12  26
HETATM   26  N   UNL     1     -12.075   2.446 -32.657  1.00  0.00    -0.282 NA
HETATM   27  H   UNL     1     -12.453   1.516 -32.821  1.00  0.00     0.126 HD
HETATM   28  H   UNL     1     -12.643   3.186 -33.063  1.00  0.00     0.126 HD
ENDBRANCH  12  26
TORSDOF 3
ENDMDL
MODEL 2
REMARK VINA RESULT:      -7.8      2.823      4.616
REMARK  3 active torsions:
REMARK  status: ('A' for Active; 'I' for Inactive)
REMARK    1  A    between atoms: C_8  and  C_9 
REMARK    2  A    between atoms: C_10  and  O_11 
REMARK    3  A    between atoms: C_24  and  N_25 
ROOT
HETATM    1  C   UNL     1      -6.547   5.880 -32.954  1.00  0.00     0.073 C 
HETATM    2  C   UNL     1      -5.309   5.065 -33.013  1.00  0.00     0.062 A 
HETATM    3  N   UNL     1      -4.284   5.446 -33.795  1.00  0.00    -0.177 NA
HETATM    4  N   UNL     1      -3.342   4.502 -33.594  1.00  0.00    -0.256 N 
HETATM    5  H   UNL     1      -2.461   4.577 -34.088  1.00  0.00     0.191 HD
HETATM    6  C   UNL     1      -3.732   3.554 -32.705  1.00  0.00     0.175 A 
HETATM    7  C   UNL     1      -5.012   3.866 -32.323  1.00  0.00     0.034 A 
HETATM    8  C   UNL     1      -5.706   3.017 -31.316  1.00  0.00     0.109 A 
HETATM    9  C   UNL     1      -4.839   1.821 -30.917  1.00  0.00     0.081 A 
HETATM   10  C   UNL     1      -5.389   0.924 -29.954  1.00  0.00     0.100 C 
HETATM   11  N   UNL     1      -5.806   0.206 -29.144  1.00  0.00    -0.191 NA
HETATM   12  C   UNL     1      -3.577   1.635 -31.396  1.00  0.00     0.140 A 
HETATM   13  O   UNL     1      -2.987   2.527 -32.313  1.00  0.00    -0.279 OA
ENDROOT
BRANCH   8  14
HETATM   14  C   UNL     1      -7.098   2.672 -31.862  1.00  0.00     0.000 A 
HETATM   15  C   UNL     1      -8.217   3.215 -31.173  1.00  0.00     0.076 A 
HETATM   16  C   UNL     1      -9.515   2.955 -31.611  1.00  0.00     0.038 A 
HETATM   17  C   UNL     1      -9.731   2.134 -32.711  1.00  0.00     0.015 A 
HETATM   18  C   UNL     1      -8.664   1.556 -33.402  1.00  0.00    -0.025 A 
HETATM   19  C   UNL     1      -7.326   1.809 -32.995  1.00  0.00    -0.016 A 
HETATM   20  C   UNL     1      -8.943   0.725 -34.500  1.00  0.00     0.012 A 
HETATM   21  C   UNL     1      -6.318   1.170 -33.763  1.00  0.00     0.013 A 
HETATM   22  C   UNL     1      -6.607   0.343 -34.853  1.00  0.00     0.001 A 
HETATM   23  C   UNL     1      -7.922   0.121 -35.224  1.00  0.00     0.001 A 
BRANCH  15  24
HETATM   24  O   UNL     1      -7.947   4.022 -30.095  1.00  0.00    -0.355 OA
HETATM   25  C   UNL     1      -8.773   5.169 -29.918  1.00  0.00     0.210 C 
ENDBRANCH  15  24
ENDBRANCH   8  14
BRANCH  12  26
HETATM   26  N   UNL     1      -2.739   0.595 -31.060  1.00  0.00    -0.282 NA
HETATM   27  H   UNL     1      -1.751   0.749 -31.248  1.00  0.00     0.126 HD
HETATM   28  H   UNL     1      -3.078  -0.298 -31.411  1.00  0.00     0.126 HD
ENDBRANCH  12  26
TORSDOF 3
ENDMDL
MODEL 3
REMARK VINA RESULT:      -7.7      2.857      4.492
REMARK  3 active torsions:
REMARK  status: ('A' for Active; 'I' for Inactive)
REMARK    1  A    between atoms: C_8  and  C_9 
REMARK    2  A    between atoms: C_10  and  O_11 
REMARK    3  A    between atoms: C_24  and  N_25 
ROOT
HETATM    1  C   UNL     1      -4.233   4.904 -35.070  1.00  0.00     0.073 C 
HETATM    2  C   UNL     1      -3.877   5.219 -33.664  1.00  0.00     0.062 A 
HETATM    3  N   UNL     1      -2.734   5.868 -33.385  1.00  0.00    -0.177 NA
HETATM    4  N   UNL     1      -2.742   5.997 -32.043  1.00  0.00    -0.256 N 
HETATM    5  H   UNL     1      -1.965   6.464 -31.591  1.00  0.00     0.191 HD
HETATM    6  C   UNL     1      -3.854   5.468 -31.473  1.00  0.00     0.175 A 
HETATM    7  C   UNL     1      -4.605   4.930 -32.486  1.00  0.00     0.034 A 
HETATM    8  C   UNL     1      -5.916   4.297 -32.173  1.00  0.00     0.109 A 
HETATM    9  C   UNL     1      -6.175   4.291 -30.665  1.00  0.00     0.081 A 
HETATM   10  C   UNL     1      -7.403   3.712 -30.228  1.00  0.00     0.100 C 
HETATM   11  N   UNL     1      -8.414   3.278 -29.860  1.00  0.00    -0.191 NA
HETATM   12  C   UNL     1      -5.321   4.860 -29.770  1.00  0.00     0.140 A 
HETATM   13  O   UNL     1      -4.121   5.481 -30.172  1.00  0.00    -0.279 OA
ENDROOT
BRANCH   8  14
HETATM   14  C   UNL     1      -5.959   2.924 -32.858  1.00  0.00     0.000 A 
HETATM   15  C   UNL     1      -6.963   2.724 -33.844  1.00  0.00     0.076 A 
HETATM   16  C   UNL     1      -7.063   1.507 -34.518  1.00  0.00     0.038 A 
HETATM   17  C   UNL     1      -6.200   0.463 -34.209  1.00  0.00     0.015 A 
HETATM   18  C   UNL     1      -5.217   0.605 -33.228  1.00  0.00    -0.025 A 
HETATM   19  C   UNL     1      -5.074   1.835 -32.530  1.00  0.00    -0.016 A 
HETATM   20  C   UNL     1      -4.380  -0.488 -32.949  1.00  0.00     0.012 A 
HETATM   21  C   UNL     1      -4.047   1.871 -31.551  1.00  0.00     0.013 A 
HETATM   22  C   UNL     1      -3.220   0.775 -31.280  1.00  0.00     0.001 A 
HETATM   23  C   UNL     1      -3.386  -0.407 -31.981  1.00  0.00     0.001 A 
BRANCH  15  24
HETATM   24  O   UNL     1      -7.787   3.789 -34.114  1.00  0.00    -0.355 OA
HETATM   25  C   UNL     1      -9.174   3.627 -33.831  1.00  0.00     0.210 C 
ENDBRANCH  15  24
ENDBRANCH   8  14
BRANCH  12  26
HETATM   26  N   UNL     1      -5.505   4.908 -28.406  1.00  0.00    -0.282 NA
HETATM   27  H   UNL     1      -6.303   5.454 -28.090  1.00  0.00     0.126 HD
HETATM   28  H   UNL     1      -4.645   5.133 -27.911  1.00  0.00     0.126 HD
ENDBRANCH  12  26
TORSDOF 3
ENDMDL
MODEL 4
REMARK VINA RESULT:      -7.4      2.457      5.368
REMARK  3 active torsions:
REMARK  status: ('A' for Active; 'I' for Inactive)
REMARK    1  A    between atoms: C_8  and  C_9 
REMARK    2  A    between atoms: C_10  and  O_11 
REMARK    3  A    between atoms: C_24  and  N_25 
ROOT
HETATM    1  C   UNL     1      -6.795   0.578 -35.857  1.00  0.00     0.073 C 
HETATM    2  C   UNL     1      -6.502  -0.084 -34.561  1.00  0.00     0.062 A 
HETATM    3  N   UNL     1      -6.123  -1.373 -34.531  1.00  0.00    -0.177 NA
HETATM    4  N   UNL     1      -5.930  -1.633 -33.221  1.00  0.00    -0.256 N 
HETATM    5  H   UNL     1      -5.635  -2.562 -32.945  1.00  0.00     0.191 HD
HETATM    6  C   UNL     1      -6.159  -0.552 -32.434  1.00  0.00     0.175 A 
HETATM    7  C   UNL     1      -6.557   0.468 -33.260  1.00  0.00     0.034 A 
HETATM    8  C   UNL     1      -6.853   1.808 -32.683  1.00  0.00     0.109 A 
HETATM    9  C   UNL     1      -6.725   1.789 -31.158  1.00  0.00     0.081 A 
HETATM   10  C   UNL     1      -6.982   3.016 -30.478  1.00  0.00     0.100 C 
HETATM   11  N   UNL     1      -7.151   4.015 -29.913  1.00  0.00    -0.191 NA
HETATM   12  C   UNL     1      -6.326   0.684 -30.468  1.00  0.00     0.140 A 
HETATM   13  O   UNL     1      -6.021  -0.531 -31.113  1.00  0.00    -0.279 OA
ENDROOT
BRANCH   8  14
HETATM   14  C   UNL     1      -8.210   2.273 -33.228  1.00  0.00     0.000 A 
HETATM   15  C   UNL     1      -8.286   3.601 -33.732  1.00  0.00     0.076 A 
HETATM   16  C   UNL     1      -9.481   4.096 -34.251  1.00  0.00     0.038 A 
HETATM   17  C   UNL     1     -10.623   3.306 -34.253  1.00  0.00     0.015 A 
HETATM   18  C   UNL     1     -10.604   2.006 -33.743  1.00  0.00    -0.025 A 
HETATM   19  C   UNL     1      -9.401   1.460 -33.218  1.00  0.00    -0.016 A 
HETATM   20  C   UNL     1     -11.792   1.257 -33.761  1.00  0.00     0.012 A 
HETATM   21  C   UNL     1      -9.492   0.134 -32.722  1.00  0.00     0.013 A 
HETATM   22  C   UNL     1     -10.681  -0.602 -32.742  1.00  0.00     0.001 A 
HETATM   23  C   UNL     1     -11.834  -0.041 -33.264  1.00  0.00     0.001 A 
BRANCH  15  24
HETATM   24  O   UNL     1      -7.126   4.338 -33.709  1.00  0.00    -0.355 OA
HETATM   25  C   UNL     1      -7.205   5.659 -33.184  1.00  0.00     0.210 C 
ENDBRANCH  15  24
ENDBRANCH   8  14
BRANCH  12  26
HETATM   26  N   UNL     1      -6.170   0.607 -29.102  1.00  0.00    -0.282 NA
HETATM   27  H   UNL     1      -5.284   0.223 -28.782  1.00  0.00     0.126 HD
HETATM   28  H   UNL     1      -6.977   0.184 -28.648  1.00  0.00     0.126 HD
ENDBRANCH  12  26
TORSDOF 3
ENDMDL
MODEL 5
REMARK VINA RESULT:      -7.4      2.306      4.213
REMARK  3 active torsions:
REMARK  status: ('A' for Active; 'I' for Inactive)
REMARK    1  A    between atoms: C_8  and  C_9 
REMARK    2  A    between atoms: C_10  and  O_11 
REMARK    3  A    between atoms: C_24  and  N_25 
ROOT
HETATM    1  C   UNL     1      -6.109   1.689 -29.363  1.00  0.00     0.073 C 
HETATM    2  C   UNL     1      -7.116   2.509 -30.082  1.00  0.00     0.062 A 
HETATM    3  N   UNL     1      -8.353   2.657 -29.578  1.00  0.00    -0.177 NA
HETATM    4  N   UNL     1      -8.980   3.458 -30.463  1.00  0.00    -0.256 N 
HETATM    5  H   UNL     1      -9.945   3.715 -30.293  1.00  0.00     0.191 HD
HETATM    6  C   UNL     1      -8.179   3.829 -31.493  1.00  0.00     0.175 A 
HETATM    7  C   UNL     1      -6.968   3.214 -31.299  1.00  0.00     0.034 A 
HETATM    8  C   UNL     1      -5.858   3.458 -32.261  1.00  0.00     0.109 A 
HETATM    9  C   UNL     1      -6.319   4.350 -33.416  1.00  0.00     0.081 A 
HETATM   10  C   UNL     1      -5.348   4.663 -34.411  1.00  0.00     0.100 C 
HETATM   11  N   UNL     1      -4.558   4.957 -35.210  1.00  0.00    -0.191 NA
HETATM   12  C   UNL     1      -7.572   4.882 -33.479  1.00  0.00     0.140 A 
HETATM   13  O   UNL     1      -8.542   4.630 -32.488  1.00  0.00    -0.279 OA
ENDROOT
BRANCH   8  14
HETATM   14  C   UNL     1      -5.273   2.099 -32.668  1.00  0.00     0.000 A 
HETATM   15  C   UNL     1      -3.936   1.824 -32.269  1.00  0.00     0.076 A 
HETATM   16  C   UNL     1      -3.335   0.609 -32.592  1.00  0.00     0.038 A 
HETATM   17  C   UNL     1      -4.026  -0.338 -33.338  1.00  0.00     0.015 A 
HETATM   18  C   UNL     1      -5.331  -0.100 -33.775  1.00  0.00    -0.025 A 
HETATM   19  C   UNL     1      -5.983   1.120 -33.453  1.00  0.00    -0.016 A 
HETATM   20  C   UNL     1      -5.977  -1.089 -34.536  1.00  0.00     0.012 A 
HETATM   21  C   UNL     1      -7.305   1.261 -33.950  1.00  0.00     0.013 A 
HETATM   22  C   UNL     1      -7.939   0.271 -34.709  1.00  0.00     0.001 A 
HETATM   23  C   UNL     1      -7.275  -0.907 -35.001  1.00  0.00     0.001 A 
BRANCH  15  24
HETATM   24  O   UNL     1      -3.299   2.792 -31.531  1.00  0.00    -0.355 OA
HETATM   25  C   UNL     1      -2.538   3.760 -32.247  1.00  0.00     0.210 C 
ENDBRANCH  15  24
ENDBRANCH   8  14
BRANCH  12  26
HETATM   26  N   UNL     1      -8.041   5.708 -34.476  1.00  0.00    -0.282 NA
HETATM   27  H   UNL     1      -8.929   5.435 -34.890  1.00  0.00     0.126 HD
HETATM   28  H   UNL     1      -7.325   5.917 -35.168  1.00  0.00     0.126 HD
ENDBRANCH  12  26
TORSDOF 3
ENDMDL
MODEL 6
REMARK VINA RESULT:      -7.4      2.700      4.259
REMARK  3 active torsions:
REMARK  status: ('A' for Active; 'I' for Inactive)
REMARK    1  A    between atoms: C_8  and  C_9 
REMARK    2  A    between atoms: C_10  and  O_11 
REMARK    3  A    between atoms: C_24  and  N_25 
ROOT
HETATM    1  C   UNL     1      -3.350   1.525 -32.430  1.00  0.00     0.073 C 
HETATM    2  C   UNL     1      -3.461   2.954 -32.047  1.00  0.00     0.062 A 
HETATM    3  N   UNL     1      -2.484   3.541 -31.335  1.00  0.00    -0.177 NA
HETATM    4  N   UNL     1      -2.900   4.815 -31.185  1.00  0.00    -0.256 N 
HETATM    5  H   UNL     1      -2.316   5.463 -30.669  1.00  0.00     0.191 HD
HETATM    6  C   UNL     1      -4.092   5.051 -31.788  1.00  0.00     0.175 A 
HETATM    7  C   UNL     1      -4.504   3.864 -32.338  1.00  0.00     0.034 A 
HETATM    8  C   UNL     1      -5.779   3.813 -33.105  1.00  0.00     0.109 A 
HETATM    9  C   UNL     1      -6.491   5.167 -33.077  1.00  0.00     0.081 A 
HETATM   10  C   UNL     1      -7.729   5.255 -33.777  1.00  0.00     0.100 C 
HETATM   11  N   UNL     1      -8.720   5.353 -34.374  1.00  0.00    -0.191 NA
HETATM   12  C   UNL     1      -5.957   6.266 -32.472  1.00  0.00     0.140 A 
HETATM   13  O   UNL     1      -4.714   6.225 -31.810  1.00  0.00    -0.279 OA
ENDROOT
BRANCH   8  14
HETATM   14  C   UNL     1      -6.600   2.623 -32.587  1.00  0.00     0.000 A 
HETATM   15  C   UNL     1      -7.002   2.659 -31.224  1.00  0.00     0.076 A 
HETATM   16  C   UNL     1      -7.756   1.621 -30.679  1.00  0.00     0.038 A 
HETATM   17  C   UNL     1      -8.098   0.521 -31.457  1.00  0.00     0.015 A 
HETATM   18  C   UNL     1      -7.701   0.430 -32.793  1.00  0.00    -0.025 A 
HETATM   19  C   UNL     1      -6.944   1.475 -33.388  1.00  0.00    -0.016 A 
HETATM   20  C   UNL     1      -8.065  -0.710 -33.528  1.00  0.00     0.012 A 
HETATM   21  C   UNL     1      -6.590   1.280 -34.748  1.00  0.00     0.013 A 
HETATM   22  C   UNL     1      -6.956   0.140 -35.471  1.00  0.00     0.001 A 
HETATM   23  C   UNL     1      -7.696  -0.857 -34.860  1.00  0.00     0.001 A 
BRANCH  15  24
HETATM   24  O   UNL     1      -6.641   3.770 -30.501  1.00  0.00    -0.355 OA
HETATM   25  C   UNL     1      -7.604   4.297 -29.594  1.00  0.00     0.210 C 
ENDBRANCH  15  24
ENDBRANCH   8  14
BRANCH  12  26
HETATM   26  N   UNL     1      -6.534   7.515 -32.430  1.00  0.00    -0.282 NA
HETATM   27  H   UNL     1      -5.966   8.274 -32.800  1.00  0.00     0.126 HD
HETATM   28  H   UNL     1      -6.932   7.722 -31.517  1.00  0.00     0.126 HD
ENDBRANCH  12  26
TORSDOF 3
ENDMDL
MODEL 7
REMARK VINA RESULT:      -7.3      3.088      6.279
REMARK  3 active torsions:
REMARK  status: ('A' for Active; 'I' for Inactive)
REMARK    1  A    between atoms: C_8  and  C_9 
REMARK    2  A    between atoms: C_10  and  O_11 
REMARK    3  A    between atoms: C_24  and  N_25 
ROOT
HETATM    1  C   UNL     1      -6.021  -0.865 -32.391  1.00  0.00     0.073 C 
HETATM    2  C   UNL     1      -4.878  -0.069 -31.877  1.00  0.00     0.062 A 
HETATM    3  N   UNL     1      -4.023  -0.608 -30.991  1.00  0.00    -0.177 NA
HETATM    4  N   UNL     1      -3.122   0.368 -30.762  1.00  0.00    -0.256 N 
HETATM    5  H   UNL     1      -2.364   0.192 -30.112  1.00  0.00     0.191 HD
HETATM    6  C   UNL     1      -3.372   1.491 -31.482  1.00  0.00     0.175 A 
HETATM    7  C   UNL     1      -4.517   1.259 -32.199  1.00  0.00     0.034 A 
HETATM    8  C   UNL     1      -5.032   2.310 -33.121  1.00  0.00     0.109 A 
HETATM    9  C   UNL     1      -4.176   3.576 -33.041  1.00  0.00     0.081 A 
HETATM   10  C   UNL     1      -4.562   4.664 -33.878  1.00  0.00     0.100 C 
HETATM   11  N   UNL     1      -4.841   5.545 -34.580  1.00  0.00    -0.191 NA
HETATM   12  C   UNL     1      -3.061   3.662 -32.263  1.00  0.00     0.140 A 
HETATM   13  O   UNL     1      -2.626   2.590 -31.458  1.00  0.00    -0.279 OA
ENDROOT
BRANCH   8  14
HETATM   14  C   UNL     1      -6.527   2.502 -32.837  1.00  0.00     0.000 A 
HETATM   15  C   UNL     1      -7.439   2.025 -33.818  1.00  0.00     0.076 A 
HETATM   16  C   UNL     1      -8.814   2.155 -33.632  1.00  0.00     0.038 A 
HETATM   17  C   UNL     1      -9.311   2.781 -32.495  1.00  0.00     0.015 A 
HETATM   18  C   UNL     1      -8.452   3.289 -31.518  1.00  0.00    -0.025 A 
HETATM   19  C   UNL     1      -7.044   3.164 -31.665  1.00  0.00    -0.016 A 
HETATM   20  C   UNL     1      -9.010   3.924 -30.395  1.00  0.00     0.012 A 
HETATM   21  C   UNL     1      -6.264   3.718 -30.618  1.00  0.00     0.013 A 
HETATM   22  C   UNL     1      -6.829   4.349 -29.504  1.00  0.00     0.001 A 
HETATM   23  C   UNL     1      -8.205   4.451 -29.392  1.00  0.00     0.001 A 
BRANCH  15  24
HETATM   24  O   UNL     1      -6.896   1.411 -34.921  1.00  0.00    -0.355 OA
HETATM   25  C   UNL     1      -7.523   0.215 -35.374  1.00  0.00     0.210 C 
ENDBRANCH  15  24
ENDBRANCH   8  14
BRANCH  12  26
HETATM   26  N   UNL     1      -2.238   4.762 -32.163  1.00  0.00    -0.282 NA
HETATM   27  H   UNL     1      -1.402   4.635 -31.597  1.00  0.00     0.126 HD
HETATM   28  H   UNL     1      -2.755   5.606 -31.929  1.00  0.00     0.126 HD
ENDBRANCH  12  26
TORSDOF 3
ENDMDL
MODEL 8
REMARK VINA RESULT:      -7.3      4.106      6.220
REMARK  3 active torsions:
REMARK  status: ('A' for Active; 'I' for Inactive)
REMARK    1  A    between atoms: C_8  and  C_9 
REMARK    2  A    between atoms: C_10  and  O_11 
REMARK    3  A    between atoms: C_24  and  N_25 
ROOT
HETATM    1  C   UNL     1      -3.997   5.115 -35.422  1.00  0.00     0.073 C 
HETATM    2  C   UNL     1      -2.902   5.295 -34.436  1.00  0.00     0.062 A 
HETATM    3  N   UNL     1      -1.619   5.203 -34.826  1.00  0.00    -0.177 NA
HETATM    4  N   UNL     1      -0.911   5.431 -33.701  1.00  0.00    -0.256 N 
HETATM    5  H   UNL     1       0.101   5.411 -33.747  1.00  0.00     0.191 HD
HETATM    6  C   UNL     1      -1.702   5.677 -32.626  1.00  0.00     0.175 A 
HETATM    7  C   UNL     1      -3.001   5.573 -33.053  1.00  0.00     0.034 A 
HETATM    8  C   UNL     1      -4.112   5.825 -32.094  1.00  0.00     0.109 A 
HETATM    9  C   UNL     1      -3.572   6.099 -30.689  1.00  0.00     0.081 A 
HETATM   10  C   UNL     1      -4.536   6.358 -29.671  1.00  0.00     0.100 C 
HETATM   11  N   UNL     1      -5.306   6.608 -28.840  1.00  0.00    -0.191 NA
HETATM   12  C   UNL     1      -2.239   6.159 -30.413  1.00  0.00     0.140 A 
HETATM   13  O   UNL     1      -1.260   5.952 -31.405  1.00  0.00    -0.279 OA
ENDROOT
BRANCH   8  14
HETATM   14  C   UNL     1      -5.110   4.665 -32.205  1.00  0.00     0.000 A 
HETATM   15  C   UNL     1      -6.443   4.991 -32.578  1.00  0.00     0.076 A 
HETATM   16  C   UNL     1      -7.408   3.994 -32.709  1.00  0.00     0.038 A 
HETATM   17  C   UNL     1      -7.084   2.669 -32.445  1.00  0.00     0.015 A 
HETATM   18  C   UNL     1      -5.796   2.305 -32.048  1.00  0.00    -0.025 A 
HETATM   19  C   UNL     1      -4.781   3.291 -31.918  1.00  0.00    -0.016 A 
HETATM   20  C   UNL     1      -5.529   0.951 -31.783  1.00  0.00     0.012 A 
HETATM   21  C   UNL     1      -3.509   2.815 -31.506  1.00  0.00     0.013 A 
HETATM   22  C   UNL     1      -3.255   1.465 -31.242  1.00  0.00     0.001 A 
HETATM   23  C   UNL     1      -4.266   0.531 -31.382  1.00  0.00     0.001 A 
BRANCH  15  24
HETATM   24  O   UNL     1      -6.708   6.315 -32.832  1.00  0.00    -0.355 OA
HETATM   25  C   UNL     1      -7.681   6.953 -32.011  1.00  0.00     0.210 C 
ENDBRANCH  15  24
ENDBRANCH   8  14
BRANCH  12  26
HETATM   26  N   UNL     1      -1.689   6.422 -29.178  1.00  0.00    -0.282 NA
HETATM   27  H   UNL     1      -2.175   7.120 -28.620  1.00  0.00     0.126 HD
HETATM   28  H   UNL     1      -0.685   6.581 -29.232  1.00  0.00     0.126 HD
ENDBRANCH  12  26
TORSDOF 3
ENDMDL
MODEL 9
REMARK VINA RESULT:      -7.2      2.329      4.410
REMARK  3 active torsions:
REMARK  status: ('A' for Active; 'I' for Inactive)
REMARK    1  A    between atoms: C_8  and  C_9 
REMARK    2  A    between atoms: C_10  and  O_11 
REMARK    3  A    between atoms: C_24  and  N_25 
ROOT
HETATM    1  C   UNL     1      -6.297   0.585 -30.107  1.00  0.00     0.073 C 
HETATM    2  C   UNL     1      -6.552   2.047 -30.122  1.00  0.00     0.062 A 
HETATM    3  N   UNL     1      -7.117   2.645 -29.059  1.00  0.00    -0.177 NA
HETATM    4  N   UNL     1      -7.183   3.947 -29.405  1.00  0.00    -0.256 N 
HETATM    5  H   UNL     1      -7.581   4.608 -28.750  1.00  0.00     0.191 HD
HETATM    6  C   UNL     1      -6.666   4.188 -30.637  1.00  0.00     0.175 A 
HETATM    7  C   UNL     1      -6.269   2.979 -31.147  1.00  0.00     0.034 A 
HETATM    8  C   UNL     1      -5.626   2.923 -32.489  1.00  0.00     0.109 A 
HETATM    9  C   UNL     1      -5.588   4.309 -33.137  1.00  0.00     0.081 A 
HETATM   10  C   UNL     1      -4.994   4.396 -34.430  1.00  0.00     0.100 C 
HETATM   11  N   UNL     1      -4.480   4.490 -35.466  1.00  0.00    -0.191 NA
HETATM   12  C   UNL     1      -6.037   5.429 -32.504  1.00  0.00     0.140 A 
HETATM   13  O   UNL     1      -6.589   5.384 -31.208  1.00  0.00    -0.279 OA
ENDROOT
BRANCH   8  14
HETATM   14  C   UNL     1      -6.323   1.828 -33.308  1.00  0.00     0.000 A 
HETATM   15  C   UNL     1      -7.620   2.123 -33.812  1.00  0.00     0.076 A 
HETATM   16  C   UNL     1      -8.316   1.185 -34.571  1.00  0.00     0.038 A 
HETATM   17  C   UNL     1      -7.762  -0.065 -34.819  1.00  0.00     0.015 A 
HETATM   18  C   UNL     1      -6.504  -0.409 -34.321  1.00  0.00    -0.025 A 
HETATM   19  C   UNL     1      -5.756   0.526 -33.555  1.00  0.00    -0.016 A 
HETATM   20  C   UNL     1      -5.999  -1.692 -34.594  1.00  0.00     0.012 A 
HETATM   21  C   UNL     1      -4.493   0.073 -33.094  1.00  0.00     0.013 A 
HETATM   22  C   UNL     1      -4.000  -1.207 -33.369  1.00  0.00     0.001 A 
HETATM   23  C   UNL     1      -4.754  -2.091 -34.122  1.00  0.00     0.001 A 
BRANCH  15  24
HETATM   24  O   UNL     1      -8.119   3.374 -33.541  1.00  0.00    -0.355 OA
HETATM   25  C   UNL     1      -9.459   3.451 -33.066  1.00  0.00     0.210 C 
ENDBRANCH  15  24
ENDBRANCH   8  14
BRANCH  12  26
HETATM   26  N   UNL     1      -6.012   6.705 -33.021  1.00  0.00    -0.282 NA
HETATM   27  H   UNL     1      -6.921   7.127 -33.194  1.00  0.00     0.126 HD
HETATM   28  H   UNL     1      -5.377   6.784 -33.812  1.00  0.00     0.126 HD
ENDBRANCH  12  26
TORSDOF 3
ENDMDL
MODEL 10
REMARK VINA RESULT:      -7.2      3.006      5.683
REMARK  3 active torsions:
REMARK  status: ('A' for Active; 'I' for Inactive)
REMARK    1  A    between atoms: C_8  and  C_9 
REMARK    2  A    between atoms: C_10  and  O_11 
REMARK    3  A    between atoms: C_24  and  N_25 
ROOT
HETATM    1  C   UNL     1      -6.025  -0.781 -32.188  1.00  0.00     0.073 C 
HETATM    2  C   UNL     1      -4.832   0.003 -31.781  1.00  0.00     0.062 A 
HETATM    3  N   UNL     1      -3.812  -0.599 -31.146  1.00  0.00    -0.177 NA
HETATM    4  N   UNL     1      -2.915   0.387 -30.947  1.00  0.00    -0.256 N 
HETATM    5  H   UNL     1      -2.045   0.170 -30.475  1.00  0.00     0.191 HD
HETATM    6  C   UNL     1      -3.328   1.579 -31.446  1.00  0.00     0.175 A 
HETATM    7  C   UNL     1      -4.578   1.381 -31.973  1.00  0.00     0.034 A 
HETATM    8  C   UNL     1      -5.287   2.513 -32.631  1.00  0.00     0.109 A 
HETATM    9  C   UNL     1      -4.471   3.804 -32.528  1.00  0.00     0.081 A 
HETATM   10  C   UNL     1      -5.039   4.969 -33.122  1.00  0.00     0.100 C 
HETATM   11  N   UNL     1      -5.470   5.918 -33.633  1.00  0.00    -0.191 NA
HETATM   12  C   UNL     1      -3.235   3.849 -31.958  1.00  0.00     0.140 A 
HETATM   13  O   UNL     1      -2.626   2.706 -31.403  1.00  0.00    -0.279 OA
ENDROOT
BRANCH   8  14
HETATM   14  C   UNL     1      -6.710   2.582 -32.060  1.00  0.00     0.000 A 
HETATM   15  C   UNL     1      -6.851   3.067 -30.731  1.00  0.00     0.076 A 
HETATM   16  C   UNL     1      -8.111   3.167 -30.143  1.00  0.00     0.038 A 
HETATM   17  C   UNL     1      -9.243   2.764 -30.840  1.00  0.00     0.015 A 
HETATM   18  C   UNL     1      -9.149   2.256 -32.137  1.00  0.00    -0.025 A 
HETATM   19  C   UNL     1      -7.884   2.151 -32.777  1.00  0.00    -0.016 A 
HETATM   20  C   UNL     1     -10.327   1.852 -32.790  1.00  0.00     0.012 A 
HETATM   21  C   UNL     1      -7.901   1.618 -34.091  1.00  0.00     0.013 A 
HETATM   22  C   UNL     1      -9.079   1.217 -34.731  1.00  0.00     0.001 A 
HETATM   23  C   UNL     1     -10.295   1.336 -34.080  1.00  0.00     0.001 A 
BRANCH  15  24
HETATM   24  O   UNL     1      -5.701   3.455 -30.088  1.00  0.00    -0.355 OA
HETATM   25  C   UNL     1      -5.774   4.620 -29.272  1.00  0.00     0.210 C 
ENDBRANCH  15  24
ENDBRANCH   8  14
BRANCH  12  26
HETATM   26  N   UNL     1      -2.442   4.970 -31.854  1.00  0.00    -0.282 NA
HETATM   27  H   UNL     1      -1.441   4.797 -31.803  1.00  0.00     0.126 HD
HETATM   28  H   UNL     1      -2.774   5.608 -31.134  1.00  0.00     0.126 HD
ENDBRANCH  12  26
TORSDOF 3
ENDMDL
