MODEL 1
REMARK VINA RESULT:      -8.1      0.000      0.000
REMARK  6 active torsions:
REMARK  status: ('A' for Active; 'I' for Inactive)
REMARK    1  A    between atoms: C_2  and  N_3 
REMARK    2  A    between atoms: C_2  and  C_21 
REMARK       I    between atoms: N_3  and  C_4 
REMARK       I    between atoms: C_4  and  N_5 
REMARK    3  A    between atoms: N_5  and  C_6 
REMARK    4  A    between atoms: C_9  and  O_10 
REMARK    5  A    between atoms: O_10  and  C_11 
REMARK    6  A    between atoms: C_11  and  C_12 
ROOT
HETATM    1  C   UNL     1      -3.820   2.728 -32.127  1.00  0.00     0.036 A 
HETATM    2  C   UNL     1      -4.975   2.620 -32.903  1.00  0.00     0.032 A 
HETATM    3  C   UNL     1      -5.649   1.396 -33.017  1.00  0.00     0.039 A 
HETATM    4  C   UNL     1      -5.182   0.271 -32.344  1.00  0.00     0.068 A 
HETATM    5  C   UNL     1      -4.006   0.362 -31.599  1.00  0.00     0.039 A 
HETATM    6  C   UNL     1      -3.331   1.582 -31.489  1.00  0.00     0.032 A 
ENDROOT
BRANCH   1   7
HETATM    7  N   UNL     1      -3.119   3.933 -31.914  1.00  0.00    -0.309 N 
HETATM    8  C   UNL     1      -3.505   5.004 -31.157  1.00  0.00     0.321 C 
HETATM    9  N   UNL     1      -2.574   5.979 -30.987  1.00  0.00    -0.332 N 
HETATM   10  O   UNL     1      -4.593   5.155 -30.610  1.00  0.00    -0.247 OA
HETATM   11  H   UNL     1      -2.895   6.744 -30.403  1.00  0.00     0.165 HD
HETATM   12  H   UNL     1      -2.233   4.005 -32.384  1.00  0.00     0.170 HD
BRANCH   9  13
HETATM   13  C   UNL     1      -1.196   6.087 -31.458  1.00  0.00     0.155 C 
HETATM   14  C   UNL     1      -0.881   7.524 -31.861  1.00  0.00     0.041 C 
BRANCH  13  15
HETATM   15  C   UNL     1      -0.279   5.608 -30.368  1.00  0.00     0.169 A 
HETATM   16  N   UNL     1       0.382   4.442 -30.427  1.00  0.00    -0.156 NA
HETATM   17  N   UNL     1       1.018   4.433 -29.242  1.00  0.00    -0.270 N 
HETATM   18  H   UNL     1       1.606   3.644 -28.998  1.00  0.00     0.190 HD
HETATM   19  C   UNL     1       0.744   5.555 -28.528  1.00  0.00     0.227 A 
HETATM   20  N   UNL     1      -0.070   6.324 -29.210  1.00  0.00    -0.223 NA
ENDBRANCH  13  15
ENDBRANCH   9  13
ENDBRANCH   1   7
BRANCH   4  21
HETATM   21  O   UNL     1      -5.775  -0.961 -32.344  1.00  0.00    -0.351 OA
BRANCH  21  22
HETATM   22  C   UNL     1      -4.920  -2.075 -32.615  1.00  0.00     0.180 C 
BRANCH  22  23
HETATM   23  C   UNL     1      -4.759  -2.219 -34.140  1.00  0.00     0.010 C 
HETATM   24  C   UNL     1      -4.044  -3.525 -34.532  1.00  0.00     0.007 C 
HETATM   25  C   UNL     1      -4.912  -4.765 -34.320  1.00  0.00     0.000 C 
HETATM   26  C   UNL     1      -6.256  -4.639 -35.031  1.00  0.00     0.000 C 
HETATM   27  C   UNL     1      -6.989  -3.356 -34.651  1.00  0.00     0.000 C 
HETATM   28  C   UNL     1      -6.114  -2.120 -34.857  1.00  0.00     0.007 C 
ENDBRANCH  22  23
ENDBRANCH  21  22
ENDBRANCH   4  21
TORSDOF 6
ENDMDL
MODEL 2
REMARK VINA RESULT:      -7.9      1.621      2.206
REMARK  6 active torsions:
REMARK  status: ('A' for Active; 'I' for Inactive)
REMARK    1  A    between atoms: C_2  and  N_3 
REMARK    2  A    between atoms: C_2  and  C_21 
REMARK       I    between atoms: N_3  and  C_4 
REMARK       I    between atoms: C_4  and  N_5 
REMARK    3  A    between atoms: N_5  and  C_6 
REMARK    4  A    between atoms: C_9  and  O_10 
REMARK    5  A    between atoms: O_10  and  C_11 
REMARK    6  A    between atoms: C_11  and  C_12 
ROOT
HETATM    1  C   UNL     1      -3.412   3.772 -32.070  1.00  0.00     0.036 A 
HETATM    2  C   UNL     1      -3.199   2.590 -31.360  1.00  0.00     0.032 A 
HETATM    3  C   UNL     1      -4.202   1.612 -31.283  1.00  0.00     0.039 A 
HETATM    4  C   UNL     1      -5.422   1.803 -31.926  1.00  0.00     0.068 A 
HETATM    5  C   UNL     1      -5.653   3.000 -32.603  1.00  0.00     0.039 A 
HETATM    6  C   UNL     1      -4.656   3.977 -32.677  1.00  0.00     0.032 A 
ENDROOT
BRANCH   1   7
HETATM    7  N   UNL     1      -2.436   4.776 -32.244  1.00  0.00    -0.309 N 
HETATM    8  C   UNL     1      -1.821   5.154 -33.405  1.00  0.00     0.321 C 
HETATM    9  N   UNL     1      -1.033   6.258 -33.329  1.00  0.00    -0.332 N 
HETATM   10  O   UNL     1      -1.929   4.606 -34.498  1.00  0.00    -0.247 OA
HETATM   11  H   UNL     1      -0.614   6.514 -34.218  1.00  0.00     0.165 HD
HETATM   12  H   UNL     1      -2.164   5.262 -31.407  1.00  0.00     0.170 HD
BRANCH   9  13
HETATM   13  C   UNL     1      -0.730   7.150 -32.213  1.00  0.00     0.155 C 
HETATM   14  C   UNL     1      -1.913   8.071 -31.929  1.00  0.00     0.041 C 
BRANCH  13  15
HETATM   15  C   UNL     1      -0.384   6.313 -31.013  1.00  0.00     0.169 A 
HETATM   16  N   UNL     1      -1.049   6.390 -29.851  1.00  0.00    -0.156 NA
HETATM   17  N   UNL     1      -0.368   5.513 -29.094  1.00  0.00    -0.270 N 
HETATM   18  H   UNL     1      -0.649   5.363 -28.131  1.00  0.00     0.190 HD
HETATM   19  C   UNL     1       0.647   4.942 -29.792  1.00  0.00     0.227 A 
HETATM   20  N   UNL     1       0.666   5.422 -31.012  1.00  0.00    -0.223 NA
ENDBRANCH  13  15
ENDBRANCH   9  13
ENDBRANCH   1   7
BRANCH   4  21
HETATM   21  O   UNL     1      -6.454   0.908 -31.958  1.00  0.00    -0.351 OA
BRANCH  21  22
HETATM   22  C   UNL     1      -6.115  -0.436 -32.313  1.00  0.00     0.180 C 
BRANCH  22  23
HETATM   23  C   UNL     1      -5.584  -0.450 -33.758  1.00  0.00     0.010 C 
HETATM   24  C   UNL     1      -4.239  -1.191 -33.881  1.00  0.00     0.007 C 
HETATM   25  C   UNL     1      -4.378  -2.705 -33.722  1.00  0.00     0.000 C 
HETATM   26  C   UNL     1      -5.413  -3.280 -34.684  1.00  0.00     0.000 C 
HETATM   27  C   UNL     1      -6.758  -2.567 -34.575  1.00  0.00     0.000 C 
HETATM   28  C   UNL     1      -6.612  -1.053 -34.727  1.00  0.00     0.007 C 
ENDBRANCH  22  23
ENDBRANCH  21  22
ENDBRANCH   4  21
TORSDOF 6
ENDMDL
MODEL 3
REMARK VINA RESULT:      -7.9      2.130      3.311
REMARK  6 active torsions:
REMARK  status: ('A' for Active; 'I' for Inactive)
REMARK    1  A    between atoms: C_2  and  N_3 
REMARK    2  A    between atoms: C_2  and  C_21 
REMARK       I    between atoms: N_3  and  C_4 
REMARK       I    between atoms: C_4  and  N_5 
REMARK    3  A    between atoms: N_5  and  C_6 
REMARK    4  A    between atoms: C_9  and  O_10 
REMARK    5  A    between atoms: O_10  and  C_11 
REMARK    6  A    between atoms: C_11  and  C_12 
ROOT
HETATM    1  C   UNL     1      -5.355   1.774 -32.411  1.00  0.00     0.036 A 
HETATM    2  C   UNL     1      -5.714   0.682 -31.619  1.00  0.00     0.032 A 
HETATM    3  C   UNL     1      -6.475  -0.369 -32.152  1.00  0.00     0.039 A 
HETATM    4  C   UNL     1      -6.871  -0.344 -33.486  1.00  0.00     0.068 A 
HETATM    5  C   UNL     1      -6.549   0.762 -34.271  1.00  0.00     0.039 A 
HETATM    6  C   UNL     1      -5.795   1.813 -33.739  1.00  0.00     0.032 A 
ENDROOT
BRANCH   1   7
HETATM    7  N   UNL     1      -4.545   2.840 -31.968  1.00  0.00    -0.309 N 
HETATM    8  C   UNL     1      -3.321   2.766 -31.361  1.00  0.00     0.321 C 
HETATM    9  N   UNL     1      -2.676   3.947 -31.178  1.00  0.00    -0.332 N 
HETATM   10  O   UNL     1      -2.753   1.744 -30.990  1.00  0.00    -0.247 OA
HETATM   11  H   UNL     1      -1.765   3.844 -30.743  1.00  0.00     0.165 HD
HETATM   12  H   UNL     1      -4.923   3.759 -32.116  1.00  0.00     0.170 HD
BRANCH   9  13
HETATM   13  C   UNL     1      -3.048   5.313 -31.535  1.00  0.00     0.155 C 
HETATM   14  C   UNL     1      -2.398   6.311 -30.581  1.00  0.00     0.041 C 
BRANCH  13  15
HETATM   15  C   UNL     1      -2.635   5.565 -32.958  1.00  0.00     0.169 A 
HETATM   16  N   UNL     1      -3.474   6.035 -33.893  1.00  0.00    -0.156 NA
HETATM   17  N   UNL     1      -2.684   6.051 -34.980  1.00  0.00    -0.270 N 
HETATM   18  H   UNL     1      -3.064   6.364 -35.867  1.00  0.00     0.190 HD
HETATM   19  C   UNL     1      -1.432   5.616 -34.687  1.00  0.00     0.227 A 
HETATM   20  N   UNL     1      -1.362   5.302 -33.415  1.00  0.00    -0.223 NA
ENDBRANCH  13  15
ENDBRANCH   9  13
ENDBRANCH   1   7
BRANCH   4  21
HETATM   21  O   UNL     1      -7.574  -1.326 -34.126  1.00  0.00    -0.351 OA
BRANCH  21  22
HETATM   22  C   UNL     1      -7.045  -2.652 -34.024  1.00  0.00     0.180 C 
BRANCH  22  23
HETATM   23  C   UNL     1      -5.929  -2.825 -35.070  1.00  0.00     0.010 C 
HETATM   24  C   UNL     1      -4.558  -2.357 -34.546  1.00  0.00     0.007 C 
HETATM   25  C   UNL     1      -3.971  -3.298 -33.494  1.00  0.00     0.000 C 
HETATM   26  C   UNL     1      -3.906  -4.736 -33.999  1.00  0.00     0.000 C 
HETATM   27  C   UNL     1      -5.256  -5.226 -34.515  1.00  0.00     0.000 C 
HETATM   28  C   UNL     1      -5.842  -4.278 -35.561  1.00  0.00     0.007 C 
ENDBRANCH  22  23
ENDBRANCH  21  22
ENDBRANCH   4  21
TORSDOF 6
ENDMDL
MODEL 4
REMARK VINA RESULT:      -7.5      2.435      3.286
REMARK  6 active torsions:
REMARK  status: ('A' for Active; 'I' for Inactive)
REMARK    1  A    between atoms: C_2  and  N_3 
REMARK    2  A    between atoms: C_2  and  C_21 
REMARK       I    between atoms: N_3  and  C_4 
REMARK       I    between atoms: C_4  and  N_5 
REMARK    3  A    between atoms: N_5  and  C_6 
REMARK    4  A    between atoms: C_9  and  O_10 
REMARK    5  A    between atoms: O_10  and  C_11 
REMARK    6  A    between atoms: C_11  and  C_12 
ROOT
HETATM    1  C   UNL     1      -3.369   3.735 -31.463  1.00  0.00     0.036 A 
HETATM    2  C   UNL     1      -3.202   2.349 -31.457  1.00  0.00     0.032 A 
HETATM    3  C   UNL     1      -4.285   1.499 -31.192  1.00  0.00     0.039 A 
HETATM    4  C   UNL     1      -5.549   2.027 -30.943  1.00  0.00     0.068 A 
HETATM    5  C   UNL     1      -5.713   3.412 -30.907  1.00  0.00     0.039 A 
HETATM    6  C   UNL     1      -4.632   4.260 -31.168  1.00  0.00     0.032 A 
ENDROOT
BRANCH   1   7
HETATM    7  N   UNL     1      -2.346   4.653 -31.777  1.00  0.00    -0.309 N 
HETATM    8  C   UNL     1      -1.827   4.940 -33.010  1.00  0.00     0.321 C 
HETATM    9  N   UNL     1      -0.958   5.982 -33.062  1.00  0.00    -0.332 N 
HETATM   10  O   UNL     1      -2.086   4.361 -34.061  1.00  0.00    -0.247 OA
HETATM   11  H   UNL     1      -0.614   6.172 -33.998  1.00  0.00     0.165 HD
HETATM   12  H   UNL     1      -1.955   5.148 -30.995  1.00  0.00     0.170 HD
BRANCH   9  13
HETATM   13  C   UNL     1      -0.478   6.889 -32.023  1.00  0.00     0.155 C 
HETATM   14  C   UNL     1      -1.549   7.917 -31.675  1.00  0.00     0.041 C 
BRANCH  13  15
HETATM   15  C   UNL     1      -0.087   6.075 -30.821  1.00  0.00     0.169 A 
HETATM   16  N   UNL     1      -0.577   6.301 -29.593  1.00  0.00    -0.156 NA
HETATM   17  N   UNL     1       0.078   5.378 -28.868  1.00  0.00    -0.270 N 
HETATM   18  H   UNL     1      -0.089   5.316 -27.870  1.00  0.00     0.190 HD
HETATM   19  C   UNL     1       0.910   4.639 -29.647  1.00  0.00     0.227 A 
HETATM   20  N   UNL     1       0.829   5.048 -30.890  1.00  0.00    -0.223 NA
ENDBRANCH  13  15
ENDBRANCH   9  13
ENDBRANCH   1   7
BRANCH   4  21
HETATM   21  O   UNL     1      -6.685   1.302 -30.715  1.00  0.00    -0.351 OA
BRANCH  21  22
HETATM   22  C   UNL     1      -7.741   1.466 -31.666  1.00  0.00     0.180 C 
BRANCH  22  23
HETATM   23  C   UNL     1      -8.065   0.097 -32.292  1.00  0.00     0.010 C 
HETATM   24  C   UNL     1      -9.149   0.193 -33.382  1.00  0.00     0.007 C 
HETATM   25  C   UNL     1      -8.648   0.866 -34.660  1.00  0.00     0.000 C 
HETATM   26  C   UNL     1      -7.388   0.191 -35.195  1.00  0.00     0.000 C 
HETATM   27  C   UNL     1      -6.295   0.093 -34.134  1.00  0.00     0.000 C 
HETATM   28  C   UNL     1      -6.803  -0.574 -32.856  1.00  0.00     0.007 C 
ENDBRANCH  22  23
ENDBRANCH  21  22
ENDBRANCH   4  21
TORSDOF 6
ENDMDL
MODEL 5
REMARK VINA RESULT:      -7.5      1.684      2.362
REMARK  6 active torsions:
REMARK  status: ('A' for Active; 'I' for Inactive)
REMARK    1  A    between atoms: C_2  and  N_3 
REMARK    2  A    between atoms: C_2  and  C_21 
REMARK       I    between atoms: N_3  and  C_4 
REMARK       I    between atoms: C_4  and  N_5 
REMARK    3  A    between atoms: N_5  and  C_6 
REMARK    4  A    between atoms: C_9  and  O_10 
REMARK    5  A    between atoms: O_10  and  C_11 
REMARK    6  A    between atoms: C_11  and  C_12 
ROOT
HETATM    1  C   UNL     1      -3.555   2.959 -31.716  1.00  0.00     0.036 A 
HETATM    2  C   UNL     1      -4.732   3.164 -32.437  1.00  0.00     0.032 A 
HETATM    3  C   UNL     1      -5.614   2.101 -32.685  1.00  0.00     0.039 A 
HETATM    4  C   UNL     1      -5.332   0.827 -32.201  1.00  0.00     0.068 A 
HETATM    5  C   UNL     1      -4.139   0.608 -31.514  1.00  0.00     0.039 A 
HETATM    6  C   UNL     1      -3.257   1.666 -31.271  1.00  0.00     0.032 A 
ENDROOT
BRANCH   1   7
HETATM    7  N   UNL     1      -2.648   3.984 -31.375  1.00  0.00    -0.309 N 
HETATM    8  C   UNL     1      -1.870   4.728 -32.219  1.00  0.00     0.321 C 
HETATM    9  N   UNL     1      -1.199   5.764 -31.650  1.00  0.00    -0.332 N 
HETATM   10  O   UNL     1      -1.739   4.559 -33.427  1.00  0.00    -0.247 OA
HETATM   11  H   UNL     1      -0.651   6.300 -32.315  1.00  0.00     0.165 HD
HETATM   12  H   UNL     1      -2.568   4.180 -30.393  1.00  0.00     0.170 HD
BRANCH   9  13
HETATM   13  C   UNL     1      -1.171   6.254 -30.275  1.00  0.00     0.155 C 
HETATM   14  C   UNL     1       0.240   6.157 -29.703  1.00  0.00     0.041 C 
BRANCH  13  15
HETATM   15  C   UNL     1      -1.673   7.671 -30.262  1.00  0.00     0.169 A 
HETATM   16  N   UNL     1      -1.989   8.345 -31.377  1.00  0.00    -0.156 NA
HETATM   17  N   UNL     1      -2.335   9.544 -30.877  1.00  0.00    -0.270 N 
HETATM   18  H   UNL     1      -2.621  10.284 -31.509  1.00  0.00     0.190 HD
HETATM   19  C   UNL     1      -2.232   9.562 -29.523  1.00  0.00     0.227 A 
HETATM   20  N   UNL     1      -1.819   8.392 -29.098  1.00  0.00    -0.223 NA
ENDBRANCH  13  15
ENDBRANCH   9  13
ENDBRANCH   1   7
BRANCH   4  21
HETATM   21  O   UNL     1      -6.132  -0.273 -32.340  1.00  0.00    -0.351 OA
BRANCH  21  22
HETATM   22  C   UNL     1      -5.467  -1.506 -32.628  1.00  0.00     0.180 C 
BRANCH  22  23
HETATM   23  C   UNL     1      -5.349  -1.664 -34.155  1.00  0.00     0.010 C 
HETATM   24  C   UNL     1      -4.232  -2.644 -34.559  1.00  0.00     0.007 C 
HETATM   25  C   UNL     1      -4.580  -4.100 -34.250  1.00  0.00     0.000 C 
HETATM   26  C   UNL     1      -5.916  -4.504 -34.867  1.00  0.00     0.000 C 
HETATM   27  C   UNL     1      -7.041  -3.551 -34.474  1.00  0.00     0.000 C 
HETATM   28  C   UNL     1      -6.685  -2.096 -34.778  1.00  0.00     0.007 C 
ENDBRANCH  22  23
ENDBRANCH  21  22
ENDBRANCH   4  21
TORSDOF 6
ENDMDL
MODEL 6
REMARK VINA RESULT:      -7.3      6.504      8.725
REMARK  6 active torsions:
REMARK  status: ('A' for Active; 'I' for Inactive)
REMARK    1  A    between atoms: C_2  and  N_3 
REMARK    2  A    between atoms: C_2  and  C_21 
REMARK       I    between atoms: N_3  and  C_4 
REMARK       I    between atoms: C_4  and  N_5 
REMARK    3  A    between atoms: N_5  and  C_6 
REMARK    4  A    between atoms: C_9  and  O_10 
REMARK    5  A    between atoms: O_10  and  C_11 
REMARK    6  A    between atoms: C_11  and  C_12 
ROOT
HETATM    1  C   UNL     1      -9.532   1.720 -33.063  1.00  0.00     0.036 A 
HETATM    2  C   UNL     1      -9.158   1.087 -31.877  1.00  0.00     0.032 A 
HETATM    3  C   UNL     1      -7.917   0.443 -31.770  1.00  0.00     0.039 A 
HETATM    4  C   UNL     1      -7.031   0.440 -32.844  1.00  0.00     0.068 A 
HETATM    5  C   UNL     1      -7.416   1.037 -34.044  1.00  0.00     0.039 A 
HETATM    6  C   UNL     1      -8.656   1.675 -34.153  1.00  0.00     0.032 A 
ENDROOT
BRANCH   1   7
HETATM    7  N   UNL     1     -10.735   2.438 -33.232  1.00  0.00    -0.309 N 
HETATM    8  C   UNL     1     -11.126   3.579 -32.588  1.00  0.00     0.321 C 
HETATM    9  N   UNL     1     -12.264   4.161 -33.049  1.00  0.00    -0.332 N 
HETATM   10  O   UNL     1     -10.543   4.127 -31.658  1.00  0.00    -0.247 OA
HETATM   11  H   UNL     1     -12.506   5.015 -32.556  1.00  0.00     0.165 HD
HETATM   12  H   UNL     1     -11.375   2.054 -33.904  1.00  0.00     0.170 HD
BRANCH   9  13
HETATM   13  C   UNL     1     -13.157   3.795 -34.145  1.00  0.00     0.155 C 
HETATM   14  C   UNL     1     -12.459   3.986 -35.488  1.00  0.00     0.041 C 
BRANCH  13  15
HETATM   15  C   UNL     1     -13.594   2.370 -33.950  1.00  0.00     0.169 A 
HETATM   16  N   UNL     1     -14.252   1.949 -32.860  1.00  0.00    -0.156 NA
HETATM   17  N   UNL     1     -14.383   0.636 -33.116  1.00  0.00    -0.270 N 
HETATM   18  H   UNL     1     -14.849   0.040 -32.440  1.00  0.00     0.190 HD
HETATM   19  C   UNL     1     -13.831   0.310 -34.313  1.00  0.00     0.227 A 
HETATM   20  N   UNL     1     -13.326   1.382 -34.872  1.00  0.00    -0.223 NA
ENDBRANCH  13  15
ENDBRANCH   9  13
ENDBRANCH   1   7
BRANCH   4  21
HETATM   21  O   UNL     1      -5.782  -0.114 -32.844  1.00  0.00    -0.351 OA
BRANCH  21  22
HETATM   22  C   UNL     1      -5.722  -1.537 -32.984  1.00  0.00     0.180 C 
BRANCH  22  23
HETATM   23  C   UNL     1      -5.488  -1.882 -34.466  1.00  0.00     0.010 C 
HETATM   24  C   UNL     1      -4.250  -2.775 -34.671  1.00  0.00     0.007 C 
HETATM   25  C   UNL     1      -4.462  -4.207 -34.180  1.00  0.00     0.000 C 
HETATM   26  C   UNL     1      -5.704  -4.837 -34.802  1.00  0.00     0.000 C 
HETATM   27  C   UNL     1      -6.947  -3.975 -34.604  1.00  0.00     0.000 C 
HETATM   28  C   UNL     1      -6.727  -2.542 -35.090  1.00  0.00     0.007 C 
ENDBRANCH  22  23
ENDBRANCH  21  22
ENDBRANCH   4  21
TORSDOF 6
ENDMDL
MODEL 7
REMARK VINA RESULT:      -7.3      6.922      9.354
REMARK  6 active torsions:
REMARK  status: ('A' for Active; 'I' for Inactive)
REMARK    1  A    between atoms: C_2  and  N_3 
REMARK    2  A    between atoms: C_2  and  C_21 
REMARK       I    between atoms: N_3  and  C_4 
REMARK       I    between atoms: C_4  and  N_5 
REMARK    3  A    between atoms: N_5  and  C_6 
REMARK    4  A    between atoms: C_9  and  O_10 
REMARK    5  A    between atoms: O_10  and  C_11 
REMARK    6  A    between atoms: C_11  and  C_12 
ROOT
HETATM    1  C   UNL     1      -9.907   1.581 -32.687  1.00  0.00     0.036 A 
HETATM    2  C   UNL     1      -9.690   1.015 -33.944  1.00  0.00     0.032 A 
HETATM    3  C   UNL     1      -8.597   0.165 -34.167  1.00  0.00     0.039 A 
HETATM    4  C   UNL     1      -7.718  -0.136 -33.130  1.00  0.00     0.068 A 
HETATM    5  C   UNL     1      -7.906   0.459 -31.883  1.00  0.00     0.039 A 
HETATM    6  C   UNL     1      -8.994   1.309 -31.662  1.00  0.00     0.032 A 
ENDROOT
BRANCH   1   7
HETATM    7  N   UNL     1     -11.013   2.396 -32.367  1.00  0.00    -0.309 N 
HETATM    8  C   UNL     1     -11.539   3.421 -33.104  1.00  0.00     0.321 C 
HETATM    9  N   UNL     1     -12.707   3.944 -32.646  1.00  0.00    -0.332 N 
HETATM   10  O   UNL     1     -11.070   3.891 -34.135  1.00  0.00    -0.247 OA
HETATM   11  H   UNL     1     -13.071   4.687 -33.233  1.00  0.00     0.165 HD
HETATM   12  H   UNL     1     -11.457   2.195 -31.488  1.00  0.00     0.170 HD
BRANCH   9  13
HETATM   13  C   UNL     1     -13.534   3.592 -31.495  1.00  0.00     0.155 C 
HETATM   14  C   UNL     1     -13.660   4.779 -30.545  1.00  0.00     0.041 C 
BRANCH  13  15
HETATM   15  C   UNL     1     -14.879   3.141 -31.993  1.00  0.00     0.169 A 
HETATM   16  N   UNL     1     -15.058   2.015 -32.700  1.00  0.00    -0.156 NA
HETATM   17  N   UNL     1     -16.379   2.060 -32.947  1.00  0.00    -0.270 N 
HETATM   18  H   UNL     1     -16.810   1.319 -33.487  1.00  0.00     0.190 HD
HETATM   19  C   UNL     1     -16.946   3.165 -32.397  1.00  0.00     0.227 A 
HETATM   20  N   UNL     1     -16.028   3.872 -31.783  1.00  0.00    -0.223 NA
ENDBRANCH  13  15
ENDBRANCH   9  13
ENDBRANCH   1   7
BRANCH   4  21
HETATM   21  O   UNL     1      -6.646  -0.981 -33.215  1.00  0.00    -0.351 OA
BRANCH  21  22
HETATM   22  C   UNL     1      -6.864  -2.209 -33.916  1.00  0.00     0.180 C 
BRANCH  22  23
HETATM   23  C   UNL     1      -5.704  -2.431 -34.903  1.00  0.00     0.010 C 
HETATM   24  C   UNL     1      -4.329  -2.172 -34.259  1.00  0.00     0.007 C 
HETATM   25  C   UNL     1      -3.928  -3.255 -33.258  1.00  0.00     0.000 C 
HETATM   26  C   UNL     1      -3.991  -4.647 -33.879  1.00  0.00     0.000 C 
HETATM   27  C   UNL     1      -5.348  -4.931 -34.516  1.00  0.00     0.000 C 
HETATM   28  C   UNL     1      -5.748  -3.841 -35.511  1.00  0.00     0.007 C 
ENDBRANCH  22  23
ENDBRANCH  21  22
ENDBRANCH   4  21
TORSDOF 6
ENDMDL
MODEL 8
REMARK VINA RESULT:      -7.3      3.310      9.269
REMARK  6 active torsions:
REMARK  status: ('A' for Active; 'I' for Inactive)
REMARK    1  A    between atoms: C_2  and  N_3 
REMARK    2  A    between atoms: C_2  and  C_21 
REMARK       I    between atoms: N_3  and  C_4 
REMARK       I    between atoms: C_4  and  N_5 
REMARK    3  A    between atoms: N_5  and  C_6 
REMARK    4  A    between atoms: C_9  and  O_10 
REMARK    5  A    between atoms: O_10  and  C_11 
REMARK    6  A    between atoms: C_11  and  C_12 
ROOT
HETATM    1  C   UNL     1      -4.459   3.067 -32.275  1.00  0.00     0.036 A 
HETATM    2  C   UNL     1      -5.047   4.166 -31.647  1.00  0.00     0.032 A 
HETATM    3  C   UNL     1      -4.317   5.344 -31.433  1.00  0.00     0.039 A 
HETATM    4  C   UNL     1      -2.994   5.438 -31.858  1.00  0.00     0.068 A 
HETATM    5  C   UNL     1      -2.389   4.330 -32.450  1.00  0.00     0.039 A 
HETATM    6  C   UNL     1      -3.116   3.154 -32.660  1.00  0.00     0.032 A 
ENDROOT
BRANCH   1   7
HETATM    7  N   UNL     1      -5.141   1.871 -32.579  1.00  0.00    -0.309 N 
HETATM    8  C   UNL     1      -5.304   0.773 -31.780  1.00  0.00     0.321 C 
HETATM    9  N   UNL     1      -6.141  -0.187 -32.252  1.00  0.00    -0.332 N 
HETATM   10  O   UNL     1      -4.784   0.587 -30.685  1.00  0.00    -0.247 OA
HETATM   11  H   UNL     1      -6.247  -0.973 -31.619  1.00  0.00     0.165 HD
HETATM   12  H   UNL     1      -5.549   1.829 -33.497  1.00  0.00     0.170 HD
BRANCH   9  13
HETATM   13  C   UNL     1      -6.936  -0.256 -33.475  1.00  0.00     0.155 C 
HETATM   14  C   UNL     1      -6.970  -1.684 -34.010  1.00  0.00     0.041 C 
BRANCH  13  15
HETATM   15  C   UNL     1      -8.318   0.252 -33.176  1.00  0.00     0.169 A 
HETATM   16  N   UNL     1      -8.793   0.392 -31.930  1.00  0.00    -0.156 NA
HETATM   17  N   UNL     1     -10.045   0.821 -32.166  1.00  0.00    -0.270 N 
HETATM   18  H   UNL     1     -10.663   1.010 -31.384  1.00  0.00     0.190 HD
HETATM   19  C   UNL     1     -10.285   0.934 -33.498  1.00  0.00     0.227 A 
HETATM   20  N   UNL     1      -9.214   0.586 -34.169  1.00  0.00    -0.223 NA
ENDBRANCH  13  15
ENDBRANCH   9  13
ENDBRANCH   1   7
BRANCH   4  21
HETATM   21  O   UNL     1      -2.198   6.543 -31.744  1.00  0.00    -0.351 OA
BRANCH  21  22
HETATM   22  C   UNL     1      -1.877   6.956 -30.413  1.00  0.00     0.180 C 
BRANCH  22  23
HETATM   23  C   UNL     1      -0.380   7.312 -30.349  1.00  0.00     0.010 C 
HETATM   24  C   UNL     1       0.115   7.503 -28.903  1.00  0.00     0.007 C 
HETATM   25  C   UNL     1       0.206   6.189 -28.128  1.00  0.00     0.000 C 
HETATM   26  C   UNL     1       1.050   5.155 -28.867  1.00  0.00     0.000 C 
HETATM   27  C   UNL     1       0.573   4.941 -30.301  1.00  0.00     0.000 C 
HETATM   28  C   UNL     1       0.476   6.260 -31.069  1.00  0.00     0.007 C 
ENDBRANCH  22  23
ENDBRANCH  21  22
ENDBRANCH   4  21
TORSDOF 6
ENDMDL
MODEL 9
REMARK VINA RESULT:      -7.2      1.950      3.315
REMARK  6 active torsions:
REMARK  status: ('A' for Active; 'I' for Inactive)
REMARK    1  A    between atoms: C_2  and  N_3 
REMARK    2  A    between atoms: C_2  and  C_21 
REMARK       I    between atoms: N_3  and  C_4 
REMARK       I    between atoms: C_4  and  N_5 
REMARK    3  A    between atoms: N_5  and  C_6 
REMARK    4  A    between atoms: C_9  and  O_10 
REMARK    5  A    between atoms: O_10  and  C_11 
REMARK    6  A    between atoms: C_11  and  C_12 
ROOT
HETATM    1  C   UNL     1      -3.326   4.668 -31.102  1.00  0.00     0.036 A 
HETATM    2  C   UNL     1      -4.632   5.087 -30.846  1.00  0.00     0.032 A 
HETATM    3  C   UNL     1      -5.723   4.427 -31.430  1.00  0.00     0.039 A 
HETATM    4  C   UNL     1      -5.517   3.332 -32.265  1.00  0.00     0.068 A 
HETATM    5  C   UNL     1      -4.212   2.935 -32.556  1.00  0.00     0.039 A 
HETATM    6  C   UNL     1      -3.124   3.596 -31.978  1.00  0.00     0.032 A 
ENDROOT
BRANCH   1   7
HETATM    7  N   UNL     1      -2.181   5.241 -30.509  1.00  0.00    -0.309 N 
HETATM    8  C   UNL     1      -1.636   6.470 -30.757  1.00  0.00     0.321 C 
HETATM    9  N   UNL     1      -0.623   6.848 -29.934  1.00  0.00    -0.332 N 
HETATM   10  O   UNL     1      -1.984   7.259 -31.629  1.00  0.00    -0.247 OA
HETATM   11  H   UNL     1      -0.261   7.774 -30.141  1.00  0.00     0.165 HD
HETATM   12  H   UNL     1      -1.716   4.667 -29.827  1.00  0.00     0.170 HD
BRANCH   9  13
HETATM   13  C   UNL     1      -0.007   6.176 -28.793  1.00  0.00     0.155 C 
HETATM   14  C   UNL     1       0.895   5.040 -29.265  1.00  0.00     0.041 C 
BRANCH  13  15
HETATM   15  C   UNL     1       0.761   7.193 -27.996  1.00  0.00     0.169 A 
HETATM   16  N   UNL     1       1.285   8.303 -28.538  1.00  0.00    -0.156 NA
HETATM   17  N   UNL     1       1.894   8.858 -27.476  1.00  0.00    -0.270 N 
HETATM   18  H   UNL     1       2.397   9.732 -27.589  1.00  0.00     0.190 HD
HETATM   19  C   UNL     1       1.722   8.105 -26.359  1.00  0.00     0.227 A 
HETATM   20  N   UNL     1       1.007   7.045 -26.649  1.00  0.00    -0.223 NA
ENDBRANCH  13  15
ENDBRANCH   9  13
ENDBRANCH   1   7
BRANCH   4  21
HETATM   21  O   UNL     1      -6.497   2.585 -32.855  1.00  0.00    -0.351 OA
BRANCH  21  22
HETATM   22  C   UNL     1      -6.065   1.413 -33.554  1.00  0.00     0.180 C 
BRANCH  22  23
HETATM   23  C   UNL     1      -6.574   0.169 -32.802  1.00  0.00     0.010 C 
HETATM   24  C   UNL     1      -7.603  -0.630 -33.622  1.00  0.00     0.007 C 
HETATM   25  C   UNL     1      -6.976  -1.372 -34.802  1.00  0.00     0.000 C 
HETATM   26  C   UNL     1      -5.817  -2.260 -34.357  1.00  0.00     0.000 C 
HETATM   27  C   UNL     1      -4.778  -1.488 -33.550  1.00  0.00     0.000 C 
HETATM   28  C   UNL     1      -5.412  -0.741 -32.376  1.00  0.00     0.007 C 
ENDBRANCH  22  23
ENDBRANCH  21  22
ENDBRANCH   4  21
TORSDOF 6
ENDMDL
MODEL 10
REMARK VINA RESULT:      -7.2      5.670     10.042
REMARK  6 active torsions:
REMARK  status: ('A' for Active; 'I' for Inactive)
REMARK    1  A    between atoms: C_2  and  N_3 
REMARK    2  A    between atoms: C_2  and  C_21 
REMARK       I    between atoms: N_3  and  C_4 
REMARK       I    between atoms: C_4  and  N_5 
REMARK    3  A    between atoms: N_5  and  C_6 
REMARK    4  A    between atoms: C_9  and  O_10 
REMARK    5  A    between atoms: O_10  and  C_11 
REMARK    6  A    between atoms: C_11  and  C_12 
ROOT
HETATM    1  C   UNL     1      -7.735   3.299 -32.870  1.00  0.00     0.036 A 
HETATM    2  C   UNL     1      -7.338   2.749 -31.651  1.00  0.00     0.032 A 
HETATM    3  C   UNL     1      -6.192   3.220 -30.993  1.00  0.00     0.039 A 
HETATM    4  C   UNL     1      -5.441   4.256 -31.543  1.00  0.00     0.068 A 
HETATM    5  C   UNL     1      -5.811   4.781 -32.781  1.00  0.00     0.039 A 
HETATM    6  C   UNL     1      -6.950   4.308 -33.439  1.00  0.00     0.032 A 
ENDROOT
BRANCH   1   7
HETATM    7  N   UNL     1      -8.904   2.922 -33.564  1.00  0.00    -0.309 N 
HETATM    8  C   UNL     1      -9.091   1.821 -34.354  1.00  0.00     0.321 C 
HETATM    9  N   UNL     1     -10.362   1.604 -34.780  1.00  0.00    -0.332 N 
HETATM   10  O   UNL     1      -8.231   1.014 -34.693  1.00  0.00    -0.247 OA
HETATM   11  H   UNL     1     -10.459   0.766 -35.346  1.00  0.00     0.165 HD
HETATM   12  H   UNL     1      -9.685   3.546 -33.463  1.00  0.00     0.170 HD
BRANCH   9  13
HETATM   13  C   UNL     1     -11.601   2.335 -34.527  1.00  0.00     0.155 C 
HETATM   14  C   UNL     1     -11.942   3.233 -35.712  1.00  0.00     0.041 C 
BRANCH  13  15
HETATM   15  C   UNL     1     -12.696   1.341 -34.257  1.00  0.00     0.169 A 
HETATM   16  N   UNL     1     -12.492   0.185 -33.607  1.00  0.00    -0.156 NA
HETATM   17  N   UNL     1     -13.717  -0.365 -33.647  1.00  0.00    -0.270 N 
HETATM   18  H   UNL     1     -13.869  -1.276 -33.228  1.00  0.00     0.190 HD
HETATM   19  C   UNL     1     -14.601   0.443 -34.287  1.00  0.00     0.227 A 
HETATM   20  N   UNL     1     -13.991   1.535 -34.684  1.00  0.00    -0.223 NA
ENDBRANCH  13  15
ENDBRANCH   9  13
ENDBRANCH   1   7
BRANCH   4  21
HETATM   21  O   UNL     1      -4.335   4.825 -30.977  1.00  0.00    -0.351 OA
BRANCH  21  22
HETATM   22  C   UNL     1      -3.860   6.027 -31.590  1.00  0.00     0.180 C 
BRANCH  22  23
HETATM   23  C   UNL     1      -2.324   5.963 -31.688  1.00  0.00     0.010 C 
HETATM   24  C   UNL     1      -1.831   4.624 -32.268  1.00  0.00     0.007 C 
HETATM   25  C   UNL     1      -2.116   4.483 -33.763  1.00  0.00     0.000 C 
HETATM   26  C   UNL     1      -1.564   5.664 -34.556  1.00  0.00     0.000 C 
HETATM   27  C   UNL     1      -2.047   7.003 -34.005  1.00  0.00     0.000 C 
HETATM   28  C   UNL     1      -1.766   7.135 -32.508  1.00  0.00     0.007 C 
ENDBRANCH  22  23
ENDBRANCH  21  22
ENDBRANCH   4  21
TORSDOF 6
ENDMDL
