MODEL 1
REMARK VINA RESULT:      -8.4      0.000      0.000
REMARK  4 active torsions:
REMARK  status: ('A' for Active; 'I' for Inactive)
REMARK    1  A    between atoms: S_2  and  C_3 
REMARK    2  A    between atoms: C_3  and  C_4 
REMARK       I    between atoms: C_4  and  N_5 
REMARK    3  A    between atoms: N_5  and  N_6 
REMARK       I    between atoms: N_6  and  C_7 
REMARK    4  A    between atoms: C_7  and  C_8 
ROOT
HETATM    1  C   UNL     1      -4.130   1.135 -32.612  1.00  0.00     0.103 A 
HETATM    2  N   UNL     1      -5.399   1.278 -33.125  1.00  0.00    -0.351 N 
HETATM    3  H   UNL     1      -5.901   2.157 -33.140  1.00  0.00     0.166 HD
HETATM    4  C   UNL     1      -5.867   0.091 -33.636  1.00  0.00     0.044 A 
HETATM    5  C   UNL     1      -4.873  -0.865 -33.437  1.00  0.00     0.004 A 
HETATM    6  C   UNL     1      -3.792  -0.197 -32.781  1.00  0.00     0.050 A 
HETATM    7  C   UNL     1      -7.084  -0.197 -34.261  1.00  0.00     0.031 A 
HETATM    8  C   UNL     1      -7.294  -1.506 -34.707  1.00  0.00     0.014 A 
HETATM    9  C   UNL     1      -6.326  -2.505 -34.538  1.00  0.00    -0.025 A 
HETATM   10  C   UNL     1      -5.101  -2.197 -33.896  1.00  0.00    -0.013 A 
HETATM   11  C   UNL     1      -6.540  -3.815 -34.997  1.00  0.00     0.012 A 
HETATM   12  C   UNL     1      -5.565  -4.802 -34.828  1.00  0.00     0.001 A 
HETATM   13  C   UNL     1      -4.362  -4.497 -34.195  1.00  0.00     0.001 A 
HETATM   14  C   UNL     1      -4.127  -3.203 -33.729  1.00  0.00     0.013 A 
ENDROOT
BRANCH   1  15
HETATM   15  C   UNL     1      -3.405   2.258 -32.063  1.00  0.00     0.286 C 
HETATM   16  N   UNL     1      -3.531   3.442 -32.760  1.00  0.00    -0.262 N 
HETATM   17  H   UNL     1      -3.935   3.492 -33.691  1.00  0.00     0.190 HD
HETATM   18  O   UNL     1      -2.724   2.174 -31.040  1.00  0.00    -0.264 OA
BRANCH  16  19
HETATM   19  N   UNL     1      -2.837   4.575 -32.314  1.00  0.00    -0.267 N 
HETATM   20  C   UNL     1      -1.887   5.120 -33.154  1.00  0.00     0.245 C 
HETATM   21  O   UNL     1      -1.751   4.752 -34.321  1.00  0.00    -0.271 OA
HETATM   22  H   UNL     1      -2.752   4.691 -31.302  1.00  0.00     0.190 HD
BRANCH  20  23
HETATM   23  C   UNL     1      -1.102   6.284 -32.574  1.00  0.00     0.177 C 
BRANCH  23  24
HETATM   24  S   UNL     1      -1.136   6.343 -30.753  1.00  0.00    -0.164 SA
HETATM   25  C   UNL     1       0.236   5.216 -30.402  1.00  0.00     0.090 C 
ENDBRANCH  23  24
ENDBRANCH  20  23
ENDBRANCH  16  19
ENDBRANCH   1  15
TORSDOF 4
ENDMDL
MODEL 2
REMARK VINA RESULT:      -8.4      5.251      7.354
REMARK  4 active torsions:
REMARK  status: ('A' for Active; 'I' for Inactive)
REMARK    1  A    between atoms: S_2  and  C_3 
REMARK    2  A    between atoms: C_3  and  C_4 
REMARK       I    between atoms: C_4  and  N_5 
REMARK    3  A    between atoms: N_5  and  N_6 
REMARK       I    between atoms: N_6  and  C_7 
REMARK    4  A    between atoms: C_7  and  C_8 
ROOT
HETATM    1  C   UNL     1      -8.111   0.813 -33.715  1.00  0.00     0.103 A 
HETATM    2  N   UNL     1      -6.840   1.109 -33.276  1.00  0.00    -0.351 N 
HETATM    3  H   UNL     1      -6.575   2.006 -32.889  1.00  0.00     0.166 HD
HETATM    4  C   UNL     1      -6.005   0.023 -33.402  1.00  0.00     0.044 A 
HETATM    5  C   UNL     1      -6.755  -1.013 -33.955  1.00  0.00     0.004 A 
HETATM    6  C   UNL     1      -8.073  -0.497 -34.158  1.00  0.00     0.050 A 
HETATM    7  C   UNL     1      -4.657  -0.112 -33.060  1.00  0.00     0.031 A 
HETATM    8  C   UNL     1      -4.050  -1.353 -33.283  1.00  0.00     0.014 A 
HETATM    9  C   UNL     1      -4.758  -2.431 -33.831  1.00  0.00    -0.025 A 
HETATM   10  C   UNL     1      -6.123  -2.273 -34.179  1.00  0.00    -0.013 A 
HETATM   11  C   UNL     1      -4.145  -3.676 -34.043  1.00  0.00     0.012 A 
HETATM   12  C   UNL     1      -4.863  -4.745 -34.586  1.00  0.00     0.001 A 
HETATM   13  C   UNL     1      -6.203  -4.587 -34.928  1.00  0.00     0.001 A 
HETATM   14  C   UNL     1      -6.835  -3.359 -34.728  1.00  0.00     0.013 A 
ENDROOT
BRANCH   1  15
HETATM   15  C   UNL     1      -9.182   1.781 -33.635  1.00  0.00     0.286 C 
HETATM   16  N   UNL     1     -10.239   1.429 -32.822  1.00  0.00    -0.262 N 
HETATM   17  H   UNL     1     -10.364   0.488 -32.459  1.00  0.00     0.190 HD
HETATM   18  O   UNL     1      -9.156   2.852 -34.243  1.00  0.00    -0.264 OA
BRANCH  16  19
HETATM   19  N   UNL     1     -11.334   2.296 -32.711  1.00  0.00    -0.267 N 
HETATM   20  C   UNL     1     -12.478   1.983 -33.417  1.00  0.00     0.245 C 
HETATM   21  O   UNL     1     -12.621   0.906 -33.996  1.00  0.00    -0.271 OA
HETATM   22  H   UNL     1     -11.126   3.270 -32.481  1.00  0.00     0.190 HD
BRANCH  20  23
HETATM   23  C   UNL     1     -13.592   3.012 -33.334  1.00  0.00     0.177 C 
BRANCH  23  24
HETATM   24  S   UNL     1     -14.452   3.017 -31.727  1.00  0.00    -0.164 SA
HETATM   25  C   UNL     1     -16.013   2.253 -32.234  1.00  0.00     0.090 C 
ENDBRANCH  23  24
ENDBRANCH  20  23
ENDBRANCH  16  19
ENDBRANCH   1  15
TORSDOF 4
ENDMDL
MODEL 3
REMARK VINA RESULT:      -8.3      4.764      6.603
REMARK  4 active torsions:
REMARK  status: ('A' for Active; 'I' for Inactive)
REMARK    1  A    between atoms: S_2  and  C_3 
REMARK    2  A    between atoms: C_3  and  C_4 
REMARK       I    between atoms: C_4  and  N_5 
REMARK    3  A    between atoms: N_5  and  N_6 
REMARK       I    between atoms: N_6  and  C_7 
REMARK    4  A    between atoms: C_7  and  C_8 
ROOT
HETATM    1  C   UNL     1      -7.601   0.933 -34.190  1.00  0.00     0.103 A 
HETATM    2  N   UNL     1      -6.346   1.116 -33.653  1.00  0.00    -0.351 N 
HETATM    3  H   UNL     1      -6.018   1.999 -33.283  1.00  0.00     0.166 HD
HETATM    4  C   UNL     1      -5.627  -0.056 -33.657  1.00  0.00     0.044 A 
HETATM    5  C   UNL     1      -6.437  -1.036 -34.231  1.00  0.00     0.004 A 
HETATM    6  C   UNL     1      -7.669  -0.396 -34.571  1.00  0.00     0.050 A 
HETATM    7  C   UNL     1      -4.335  -0.315 -33.192  1.00  0.00     0.031 A 
HETATM    8  C   UNL     1      -3.851  -1.622 -33.307  1.00  0.00     0.014 A 
HETATM    9  C   UNL     1      -4.624  -2.647 -33.869  1.00  0.00    -0.025 A 
HETATM   10  C   UNL     1      -5.930  -2.365 -34.343  1.00  0.00    -0.013 A 
HETATM   11  C   UNL     1      -4.135  -3.959 -33.973  1.00  0.00     0.012 A 
HETATM   12  C   UNL     1      -4.917  -4.974 -34.531  1.00  0.00     0.001 A 
HETATM   13  C   UNL     1      -6.199  -4.694 -34.997  1.00  0.00     0.001 A 
HETATM   14  C   UNL     1      -6.707  -3.397 -34.906  1.00  0.00     0.013 A 
ENDROOT
BRANCH   1  15
HETATM   15  C   UNL     1      -8.562   2.011 -34.247  1.00  0.00     0.286 C 
HETATM   16  N   UNL     1      -9.752   1.710 -34.875  1.00  0.00    -0.262 N 
HETATM   17  H   UNL     1      -9.884   0.870 -35.431  1.00  0.00     0.190 HD
HETATM   18  O   UNL     1      -8.343   3.122 -33.764  1.00  0.00    -0.264 OA
BRANCH  16  19
HETATM   19  N   UNL     1     -10.730   2.706 -35.001  1.00  0.00    -0.267 N 
HETATM   20  C   UNL     1     -11.902   2.553 -34.288  1.00  0.00     0.245 C 
HETATM   21  O   UNL     1     -12.045   1.675 -33.437  1.00  0.00    -0.271 OA
HETATM   22  H   UNL     1     -10.727   3.243 -35.871  1.00  0.00     0.190 HD
BRANCH  20  23
HETATM   23  C   UNL     1     -12.958   3.614 -34.544  1.00  0.00     0.177 C 
BRANCH  23  24
HETATM   24  S   UNL     1     -13.361   4.604 -33.067  1.00  0.00    -0.164 SA
HETATM   25  C   UNL     1     -11.809   5.521 -32.904  1.00  0.00     0.090 C 
ENDBRANCH  23  24
ENDBRANCH  20  23
ENDBRANCH  16  19
ENDBRANCH   1  15
TORSDOF 4
ENDMDL
MODEL 4
REMARK VINA RESULT:      -8.2      1.435      2.387
REMARK  4 active torsions:
REMARK  status: ('A' for Active; 'I' for Inactive)
REMARK    1  A    between atoms: S_2  and  C_3 
REMARK    2  A    between atoms: C_3  and  C_4 
REMARK       I    between atoms: C_4  and  N_5 
REMARK    3  A    between atoms: N_5  and  N_6 
REMARK       I    between atoms: N_6  and  C_7 
REMARK    4  A    between atoms: C_7  and  C_8 
ROOT
HETATM    1  C   UNL     1      -4.245   0.462 -31.951  1.00  0.00     0.103 A 
HETATM    2  N   UNL     1      -3.354  -0.487 -31.501  1.00  0.00    -0.351 N 
HETATM    3  H   UNL     1      -2.657  -0.308 -30.789  1.00  0.00     0.166 HD
HETATM    4  C   UNL     1      -3.564  -1.698 -32.117  1.00  0.00     0.044 A 
HETATM    5  C   UNL     1      -4.620  -1.530 -33.011  1.00  0.00     0.004 A 
HETATM    6  C   UNL     1      -5.029  -0.164 -32.904  1.00  0.00     0.050 A 
HETATM    7  C   UNL     1      -2.905  -2.918 -31.940  1.00  0.00     0.031 A 
HETATM    8  C   UNL     1      -3.342  -4.010 -32.696  1.00  0.00     0.014 A 
HETATM    9  C   UNL     1      -4.404  -3.899 -33.605  1.00  0.00    -0.025 A 
HETATM   10  C   UNL     1      -5.055  -2.652 -33.777  1.00  0.00    -0.013 A 
HETATM   11  C   UNL     1      -4.843  -5.002 -34.354  1.00  0.00     0.012 A 
HETATM   12  C   UNL     1      -5.905  -4.880 -35.254  1.00  0.00     0.001 A 
HETATM   13  C   UNL     1      -6.543  -3.654 -35.422  1.00  0.00     0.001 A 
HETATM   14  C   UNL     1      -6.124  -2.542 -34.690  1.00  0.00     0.013 A 
ENDROOT
BRANCH   1  15
HETATM   15  C   UNL     1      -4.255   1.804 -31.413  1.00  0.00     0.286 C 
HETATM   16  N   UNL     1      -3.079   2.509 -31.557  1.00  0.00    -0.262 N 
HETATM   17  H   UNL     1      -2.206   2.072 -31.837  1.00  0.00     0.190 HD
HETATM   18  O   UNL     1      -5.246   2.292 -30.868  1.00  0.00    -0.264 OA
BRANCH  16  19
HETATM   19  N   UNL     1      -2.993   3.808 -31.037  1.00  0.00    -0.267 N 
HETATM   20  C   UNL     1      -2.237   4.731 -31.730  1.00  0.00     0.245 C 
HETATM   21  O   UNL     1      -1.782   4.500 -32.852  1.00  0.00    -0.271 OA
HETATM   22  H   UNL     1      -3.121   3.906 -30.027  1.00  0.00     0.190 HD
BRANCH  20  23
HETATM   23  C   UNL     1      -2.102   6.089 -31.065  1.00  0.00     0.177 C 
BRANCH  23  24
HETATM   24  S   UNL     1      -0.373   6.629 -30.865  1.00  0.00    -0.164 SA
HETATM   25  C   UNL     1       0.272   5.199 -29.962  1.00  0.00     0.090 C 
ENDBRANCH  23  24
ENDBRANCH  20  23
ENDBRANCH  16  19
ENDBRANCH   1  15
TORSDOF 4
ENDMDL
MODEL 5
REMARK VINA RESULT:      -8.0      3.090      4.117
REMARK  4 active torsions:
REMARK  status: ('A' for Active; 'I' for Inactive)
REMARK    1  A    between atoms: S_2  and  C_3 
REMARK    2  A    between atoms: C_3  and  C_4 
REMARK       I    between atoms: C_4  and  N_5 
REMARK    3  A    between atoms: N_5  and  N_6 
REMARK       I    between atoms: N_6  and  C_7 
REMARK    4  A    between atoms: C_7  and  C_8 
ROOT
HETATM    1  C   UNL     1      -3.839   0.371 -31.779  1.00  0.00     0.103 A 
HETATM    2  N   UNL     1      -3.026  -0.659 -31.362  1.00  0.00    -0.351 N 
HETATM    3  H   UNL     1      -2.315  -0.558 -30.648  1.00  0.00     0.166 HD
HETATM    4  C   UNL     1      -3.333  -1.831 -32.012  1.00  0.00     0.044 A 
HETATM    5  C   UNL     1      -4.375  -1.553 -32.896  1.00  0.00     0.004 A 
HETATM    6  C   UNL     1      -4.673  -0.162 -32.747  1.00  0.00     0.050 A 
HETATM    7  C   UNL     1      -2.773  -3.104 -31.874  1.00  0.00     0.031 A 
HETATM    8  C   UNL     1      -3.297  -4.135 -32.661  1.00  0.00     0.014 A 
HETATM    9  C   UNL     1      -4.349  -3.913 -33.561  1.00  0.00    -0.025 A 
HETATM   10  C   UNL     1      -4.899  -2.614 -33.693  1.00  0.00    -0.013 A 
HETATM   11  C   UNL     1      -4.876  -4.955 -34.340  1.00  0.00     0.012 A 
HETATM   12  C   UNL     1      -5.927  -4.722 -35.231  1.00  0.00     0.001 A 
HETATM   13  C   UNL     1      -6.466  -3.444 -35.360  1.00  0.00     0.001 A 
HETATM   14  C   UNL     1      -5.958  -2.392 -34.597  1.00  0.00     0.013 A 
ENDROOT
BRANCH   1  15
HETATM   15  C   UNL     1      -3.742   1.692 -31.201  1.00  0.00     0.286 C 
HETATM   16  N   UNL     1      -4.899   2.174 -30.627  1.00  0.00    -0.262 N 
HETATM   17  H   UNL     1      -5.806   1.735 -30.764  1.00  0.00     0.190 HD
HETATM   18  O   UNL     1      -2.698   2.345 -31.211  1.00  0.00    -0.264 OA
BRANCH  16  19
HETATM   19  N   UNL     1      -4.901   3.460 -30.070  1.00  0.00    -0.267 N 
HETATM   20  C   UNL     1      -6.122   4.025 -29.758  1.00  0.00     0.245 C 
HETATM   21  O   UNL     1      -7.173   3.385 -29.798  1.00  0.00    -0.271 OA
HETATM   22  H   UNL     1      -4.104   4.058 -30.296  1.00  0.00     0.190 HD
BRANCH  20  23
HETATM   23  C   UNL     1      -6.062   5.455 -29.250  1.00  0.00     0.177 C 
BRANCH  23  24
HETATM   24  S   UNL     1      -7.503   6.457 -29.742  1.00  0.00    -0.164 SA
HETATM   25  C   UNL     1      -8.388   6.482 -28.162  1.00  0.00     0.090 C 
ENDBRANCH  23  24
ENDBRANCH  20  23
ENDBRANCH  16  19
ENDBRANCH   1  15
TORSDOF 4
ENDMDL
MODEL 6
REMARK VINA RESULT:      -8.0      1.772      2.051
REMARK  4 active torsions:
REMARK  status: ('A' for Active; 'I' for Inactive)
REMARK    1  A    between atoms: S_2  and  C_3 
REMARK    2  A    between atoms: C_3  and  C_4 
REMARK       I    between atoms: C_4  and  N_5 
REMARK    3  A    between atoms: N_5  and  N_6 
REMARK       I    between atoms: N_6  and  C_7 
REMARK    4  A    between atoms: C_7  and  C_8 
ROOT
HETATM    1  C   UNL     1      -4.879   2.700 -32.344  1.00  0.00     0.103 A 
HETATM    2  N   UNL     1      -5.985   2.700 -33.163  1.00  0.00    -0.351 N 
HETATM    3  H   UNL     1      -6.546   3.522 -33.347  1.00  0.00     0.166 HD
HETATM    4  C   UNL     1      -6.197   1.458 -33.714  1.00  0.00     0.044 A 
HETATM    5  C   UNL     1      -5.201   0.614 -33.226  1.00  0.00     0.004 A 
HETATM    6  C   UNL     1      -4.388   1.405 -32.357  1.00  0.00     0.050 A 
HETATM    7  C   UNL     1      -7.185   1.032 -34.606  1.00  0.00     0.031 A 
HETATM    8  C   UNL     1      -7.153  -0.303 -35.024  1.00  0.00     0.014 A 
HETATM    9  C   UNL     1      -6.171  -1.193 -34.570  1.00  0.00    -0.025 A 
HETATM   10  C   UNL     1      -5.182  -0.746 -33.659  1.00  0.00    -0.013 A 
HETATM   11  C   UNL     1      -6.141  -2.530 -35.001  1.00  0.00     0.012 A 
HETATM   12  C   UNL     1      -5.153  -3.407 -34.545  1.00  0.00     0.001 A 
HETATM   13  C   UNL     1      -4.183  -2.965 -33.649  1.00  0.00     0.001 A 
HETATM   14  C   UNL     1      -4.193  -1.642 -33.205  1.00  0.00     0.013 A 
ENDROOT
BRANCH   1  15
HETATM   15  C   UNL     1      -4.422   3.905 -31.690  1.00  0.00     0.286 C 
HETATM   16  N   UNL     1      -3.077   3.943 -31.390  1.00  0.00    -0.262 N 
HETATM   17  H   UNL     1      -2.479   3.123 -31.438  1.00  0.00     0.190 HD
HETATM   18  O   UNL     1      -5.177   4.841 -31.422  1.00  0.00    -0.264 OA
BRANCH  16  19
HETATM   19  N   UNL     1      -2.556   5.063 -30.728  1.00  0.00    -0.267 N 
HETATM   20  C   UNL     1      -1.198   5.292 -30.821  1.00  0.00     0.245 C 
HETATM   21  O   UNL     1      -0.473   4.654 -31.585  1.00  0.00    -0.271 OA
HETATM   22  H   UNL     1      -3.076   5.398 -29.914  1.00  0.00     0.190 HD
BRANCH  20  23
HETATM   23  C   UNL     1      -0.681   6.463 -30.002  1.00  0.00     0.177 C 
BRANCH  23  24
HETATM   24  S   UNL     1       0.486   5.969 -28.692  1.00  0.00    -0.164 SA
HETATM   25  C   UNL     1      -0.506   6.409 -27.243  1.00  0.00     0.090 C 
ENDBRANCH  23  24
ENDBRANCH  20  23
ENDBRANCH  16  19
ENDBRANCH   1  15
TORSDOF 4
ENDMDL
MODEL 7
REMARK VINA RESULT:      -7.8      2.577      2.814
REMARK  4 active torsions:
REMARK  status: ('A' for Active; 'I' for Inactive)
REMARK    1  A    between atoms: S_2  and  C_3 
REMARK    2  A    between atoms: C_3  and  C_4 
REMARK       I    between atoms: C_4  and  N_5 
REMARK    3  A    between atoms: N_5  and  N_6 
REMARK       I    between atoms: N_6  and  C_7 
REMARK    4  A    between atoms: C_7  and  C_8 
ROOT
HETATM    1  C   UNL     1      -4.386   1.039 -32.055  1.00  0.00     0.103 A 
HETATM    2  N   UNL     1      -5.510   1.072 -32.850  1.00  0.00    -0.351 N 
HETATM    3  H   UNL     1      -6.077   1.899 -32.985  1.00  0.00     0.166 HD
HETATM    4  C   UNL     1      -5.730  -0.145 -33.451  1.00  0.00     0.044 A 
HETATM    5  C   UNL     1      -4.722  -1.006 -33.022  1.00  0.00     0.004 A 
HETATM    6  C   UNL     1      -3.892  -0.251 -32.136  1.00  0.00     0.050 A 
HETATM    7  C   UNL     1      -6.735  -0.535 -34.340  1.00  0.00     0.031 A 
HETATM    8  C   UNL     1      -6.709  -1.849 -34.818  1.00  0.00     0.014 A 
HETATM    9  C   UNL     1      -5.715  -2.755 -34.425  1.00  0.00    -0.025 A 
HETATM   10  C   UNL     1      -4.708  -2.345 -33.516  1.00  0.00    -0.013 A 
HETATM   11  C   UNL     1      -5.690  -4.071 -34.916  1.00  0.00     0.012 A 
HETATM   12  C   UNL     1      -4.691  -4.964 -34.520  1.00  0.00     0.001 A 
HETATM   13  C   UNL     1      -3.703  -4.559 -33.626  1.00  0.00     0.001 A 
HETATM   14  C   UNL     1      -3.707  -3.257 -33.123  1.00  0.00     0.013 A 
ENDROOT
BRANCH   1  15
HETATM   15  C   UNL     1      -3.919   2.216 -31.357  1.00  0.00     0.286 C 
HETATM   16  N   UNL     1      -4.898   2.965 -30.738  1.00  0.00    -0.262 N 
HETATM   17  H   UNL     1      -5.890   2.826 -30.912  1.00  0.00     0.190 HD
HETATM   18  O   UNL     1      -2.730   2.531 -31.309  1.00  0.00    -0.264 OA
BRANCH  16  19
HETATM   19  N   UNL     1      -4.537   4.138 -30.064  1.00  0.00    -0.267 N 
HETATM   20  C   UNL     1      -5.536   5.040 -29.758  1.00  0.00     0.245 C 
HETATM   21  O   UNL     1      -6.730   4.775 -29.908  1.00  0.00    -0.271 OA
HETATM   22  H   UNL     1      -3.577   4.464 -30.194  1.00  0.00     0.190 HD
BRANCH  20  23
HETATM   23  C   UNL     1      -5.067   6.334 -29.117  1.00  0.00     0.177 C 
BRANCH  23  24
HETATM   24  S   UNL     1      -5.067   6.280 -27.295  1.00  0.00    -0.164 SA
HETATM   25  C   UNL     1      -3.480   7.092 -26.983  1.00  0.00     0.090 C 
ENDBRANCH  23  24
ENDBRANCH  20  23
ENDBRANCH  16  19
ENDBRANCH   1  15
TORSDOF 4
ENDMDL
MODEL 8
REMARK VINA RESULT:      -7.8      2.125      3.351
REMARK  4 active torsions:
REMARK  status: ('A' for Active; 'I' for Inactive)
REMARK    1  A    between atoms: S_2  and  C_3 
REMARK    2  A    between atoms: C_3  and  C_4 
REMARK       I    between atoms: C_4  and  N_5 
REMARK    3  A    between atoms: N_5  and  N_6 
REMARK       I    between atoms: N_6  and  C_7 
REMARK    4  A    between atoms: C_7  and  C_8 
ROOT
HETATM    1  C   UNL     1      -3.760   3.037 -31.841  1.00  0.00     0.103 A 
HETATM    2  N   UNL     1      -3.221   1.865 -31.360  1.00  0.00    -0.351 N 
HETATM    3  H   UNL     1      -2.488   1.830 -30.663  1.00  0.00     0.166 HD
HETATM    4  C   UNL     1      -3.832   0.769 -31.921  1.00  0.00     0.044 A 
HETATM    5  C   UNL     1      -4.795   1.242 -32.811  1.00  0.00     0.004 A 
HETATM    6  C   UNL     1      -4.729   2.669 -32.758  1.00  0.00     0.050 A 
HETATM    7  C   UNL     1      -3.607  -0.593 -31.699  1.00  0.00     0.031 A 
HETATM    8  C   UNL     1      -4.397  -1.507 -32.403  1.00  0.00     0.014 A 
HETATM    9  C   UNL     1      -5.384  -1.086 -33.305  1.00  0.00    -0.025 A 
HETATM   10  C   UNL     1      -5.593   0.298 -33.524  1.00  0.00    -0.013 A 
HETATM   11  C   UNL     1      -6.179  -2.011 -34.002  1.00  0.00     0.012 A 
HETATM   12  C   UNL     1      -7.163  -1.579 -34.895  1.00  0.00     0.001 A 
HETATM   13  C   UNL     1      -7.366  -0.217 -35.109  1.00  0.00     0.001 A 
HETATM   14  C   UNL     1      -6.587   0.720 -34.430  1.00  0.00     0.013 A 
ENDROOT
BRANCH   1  15
HETATM   15  C   UNL     1      -3.317   4.326 -31.360  1.00  0.00     0.286 C 
HETATM   16  N   UNL     1      -2.001   4.385 -30.951  1.00  0.00    -0.262 N 
HETATM   17  H   UNL     1      -1.432   3.555 -30.806  1.00  0.00     0.190 HD
HETATM   18  O   UNL     1      -4.056   5.310 -31.323  1.00  0.00    -0.264 OA
BRANCH  16  19
HETATM   19  N   UNL     1      -1.497   5.589 -30.443  1.00  0.00    -0.267 N 
HETATM   20  C   UNL     1      -0.129   5.706 -30.302  1.00  0.00     0.245 C 
HETATM   21  O   UNL     1       0.654   4.869 -30.752  1.00  0.00    -0.271 OA
HETATM   22  H   UNL     1      -2.121   6.129 -29.840  1.00  0.00     0.190 HD
BRANCH  20  23
HETATM   23  C   UNL     1       0.347   6.996 -29.655  1.00  0.00     0.177 C 
BRANCH  23  24
HETATM   24  S   UNL     1       0.657   6.835 -27.866  1.00  0.00    -0.164 SA
HETATM   25  C   UNL     1       1.528   8.397 -27.584  1.00  0.00     0.090 C 
ENDBRANCH  23  24
ENDBRANCH  20  23
ENDBRANCH  16  19
ENDBRANCH   1  15
TORSDOF 4
ENDMDL
MODEL 9
REMARK VINA RESULT:      -7.7      4.590      5.946
REMARK  4 active torsions:
REMARK  status: ('A' for Active; 'I' for Inactive)
REMARK    1  A    between atoms: S_2  and  C_3 
REMARK    2  A    between atoms: C_3  and  C_4 
REMARK       I    between atoms: C_4  and  N_5 
REMARK    3  A    between atoms: N_5  and  N_6 
REMARK       I    between atoms: N_6  and  C_7 
REMARK    4  A    between atoms: C_7  and  C_8 
ROOT
HETATM    1  C   UNL     1      -8.191   0.851 -33.704  1.00  0.00     0.103 A 
HETATM    2  N   UNL     1      -6.905   1.168 -33.325  1.00  0.00    -0.351 N 
HETATM    3  H   UNL     1      -6.634   2.075 -32.966  1.00  0.00     0.166 HD
HETATM    4  C   UNL     1      -6.065   0.089 -33.467  1.00  0.00     0.044 A 
HETATM    5  C   UNL     1      -6.826  -0.965 -33.969  1.00  0.00     0.004 A 
HETATM    6  C   UNL     1      -8.157  -0.467 -34.124  1.00  0.00     0.050 A 
HETATM    7  C   UNL     1      -4.702  -0.026 -33.180  1.00  0.00     0.031 A 
HETATM    8  C   UNL     1      -4.091  -1.264 -33.407  1.00  0.00     0.014 A 
HETATM    9  C   UNL     1      -4.810  -2.360 -33.904  1.00  0.00    -0.025 A 
HETATM   10  C   UNL     1      -6.190  -2.222 -34.197  1.00  0.00    -0.013 A 
HETATM   11  C   UNL     1      -4.192  -3.602 -34.120  1.00  0.00     0.012 A 
HETATM   12  C   UNL     1      -4.920  -4.688 -34.613  1.00  0.00     0.001 A 
HETATM   13  C   UNL     1      -6.276  -4.550 -34.900  1.00  0.00     0.001 A 
HETATM   14  C   UNL     1      -6.912  -3.325 -34.695  1.00  0.00     0.013 A 
ENDROOT
BRANCH   1  15
HETATM   15  C   UNL     1      -9.268   1.809 -33.596  1.00  0.00     0.286 C 
HETATM   16  N   UNL     1      -9.494   2.576 -34.720  1.00  0.00    -0.262 N 
HETATM   17  H   UNL     1      -8.842   2.617 -35.498  1.00  0.00     0.190 HD
HETATM   18  O   UNL     1      -9.946   1.932 -32.576  1.00  0.00    -0.264 OA
BRANCH  16  19
HETATM   19  N   UNL     1     -10.500   3.550 -34.691  1.00  0.00    -0.267 N 
HETATM   20  C   UNL     1     -10.114   4.874 -34.637  1.00  0.00     0.245 C 
HETATM   21  O   UNL     1      -8.941   5.224 -34.777  1.00  0.00    -0.271 OA
HETATM   22  H   UNL     1     -11.403   3.265 -34.306  1.00  0.00     0.190 HD
BRANCH  20  23
HETATM   23  C   UNL     1     -11.249   5.875 -34.509  1.00  0.00     0.177 C 
BRANCH  23  24
HETATM   24  S   UNL     1     -10.688   7.550 -34.060  1.00  0.00    -0.164 SA
HETATM   25  C   UNL     1     -10.846   8.349 -35.677  1.00  0.00     0.090 C 
ENDBRANCH  23  24
ENDBRANCH  20  23
ENDBRANCH  16  19
ENDBRANCH   1  15
TORSDOF 4
ENDMDL
MODEL 10
REMARK VINA RESULT:      -7.5      3.275      3.478
REMARK  4 active torsions:
REMARK  status: ('A' for Active; 'I' for Inactive)
REMARK    1  A    between atoms: S_2  and  C_3 
REMARK    2  A    between atoms: C_3  and  C_4 
REMARK       I    between atoms: C_4  and  N_5 
REMARK    3  A    between atoms: N_5  and  N_6 
REMARK       I    between atoms: N_6  and  C_7 
REMARK    4  A    between atoms: C_7  and  C_8 
ROOT
HETATM    1  C   UNL     1      -6.575   1.747 -30.991  1.00  0.00     0.103 A 
HETATM    2  N   UNL     1      -7.468   1.667 -32.036  1.00  0.00    -0.351 N 
HETATM    3  H   UNL     1      -8.235   2.314 -32.168  1.00  0.00     0.166 HD
HETATM    4  C   UNL     1      -7.157   0.626 -32.878  1.00  0.00     0.044 A 
HETATM    5  C   UNL     1      -6.028  -0.004 -32.356  1.00  0.00     0.004 A 
HETATM    6  C   UNL     1      -5.682   0.704 -31.164  1.00  0.00     0.050 A 
HETATM    7  C   UNL     1      -7.784   0.208 -34.055  1.00  0.00     0.031 A 
HETATM    8  C   UNL     1      -7.237  -0.887 -34.731  1.00  0.00     0.014 A 
HETATM    9  C   UNL     1      -6.100  -1.554 -34.255  1.00  0.00    -0.025 A 
HETATM   10  C   UNL     1      -5.482  -1.122 -33.056  1.00  0.00    -0.013 A 
HETATM   11  C   UNL     1      -5.552  -2.647 -34.945  1.00  0.00     0.012 A 
HETATM   12  C   UNL     1      -4.415  -3.301 -34.463  1.00  0.00     0.001 A 
HETATM   13  C   UNL     1      -3.809  -2.876 -33.283  1.00  0.00     0.001 A 
HETATM   14  C   UNL     1      -4.337  -1.792 -32.579  1.00  0.00     0.013 A 
ENDROOT
BRANCH   1  15
HETATM   15  C   UNL     1      -6.665   2.795 -29.999  1.00  0.00     0.286 C 
HETATM   16  N   UNL     1      -5.459   3.308 -29.569  1.00  0.00    -0.262 N 
HETATM   17  H   UNL     1      -4.568   2.865 -29.773  1.00  0.00     0.190 HD
HETATM   18  O   UNL     1      -7.741   3.211 -29.569  1.00  0.00    -0.264 OA
BRANCH  16  19
HETATM   19  N   UNL     1      -5.453   4.307 -28.587  1.00  0.00    -0.267 N 
HETATM   20  C   UNL     1      -5.254   5.611 -28.994  1.00  0.00     0.245 C 
HETATM   21  O   UNL     1      -5.247   5.936 -30.182  1.00  0.00    -0.271 OA
HETATM   22  H   UNL     1      -5.185   4.020 -27.643  1.00  0.00     0.190 HD
BRANCH  20  23
HETATM   23  C   UNL     1      -5.160   6.632 -27.874  1.00  0.00     0.177 C 
BRANCH  23  24
HETATM   24  S   UNL     1      -3.580   7.542 -27.856  1.00  0.00    -0.164 SA
HETATM   25  C   UNL     1      -2.880   6.871 -26.328  1.00  0.00     0.090 C 
ENDBRANCH  23  24
ENDBRANCH  20  23
ENDBRANCH  16  19
ENDBRANCH   1  15
TORSDOF 4
ENDMDL
