MODEL 1
REMARK VINA RESULT:      -8.0      0.000      0.000
REMARK  7 active torsions:
REMARK  status: ('A' for Active; 'I' for Inactive)
REMARK    1  A    between atoms: C_3  and  C_4 
REMARK    2  A    between atoms: C_4  and  N_5 
REMARK    3  A    between atoms: N_5  and  C_6 
REMARK    4  A    between atoms: C_13  and  C_14 
REMARK       I    between atoms: C_14  and  N_15 
REMARK    5  A    between atoms: C_19  and  O_20 
REMARK    6  A    between atoms: O_20  and  C_21 
REMARK    7  A    between atoms: C_21  and  C_22 
ROOT
HETATM    1  C   UNL     1      -4.245   0.179 -31.307  1.00  0.00     0.029 A 
HETATM    2  C   UNL     1      -3.487   1.294 -31.710  1.00  0.00     0.045 A 
HETATM    3  C   UNL     1      -3.836   2.592 -31.287  1.00  0.00     0.030 A 
HETATM    4  C   UNL     1      -4.950   2.750 -30.475  1.00  0.00     0.063 A 
HETATM    5  N   UNL     1      -5.034   4.092 -30.232  1.00  0.00    -0.277 N 
HETATM    6  H   UNL     1      -5.730   4.570 -29.671  1.00  0.00     0.189 HD
HETATM    7  N   UNL     1      -4.081   4.828 -30.829  1.00  0.00    -0.168 NA
HETATM    8  C   UNL     1      -3.333   3.912 -31.487  1.00  0.00     0.156 A 
HETATM    9  C   UNL     1      -5.748   1.681 -30.070  1.00  0.00     0.034 A 
HETATM   10  C   UNL     1      -5.380   0.402 -30.519  1.00  0.00     0.031 A 
ENDROOT
BRANCH   1  11
HETATM   11  N   UNL     1      -3.894  -1.066 -31.819  1.00  0.00    -0.386 N 
HETATM   12  H   UNL     1      -4.244  -1.854 -31.285  1.00  0.00     0.160 HD
BRANCH  11  13
HETATM   13  C   UNL     1      -3.711  -1.333 -33.242  1.00  0.00     0.161 C 
BRANCH  13  14
HETATM   14  C   UNL     1      -4.649  -2.384 -33.804  1.00  0.00    -0.007 A 
HETATM   15  C   UNL     1      -4.219  -3.708 -34.011  1.00  0.00     0.011 A 
HETATM   16  C   UNL     1      -5.070  -4.660 -34.568  1.00  0.00     0.001 A 
HETATM   17  C   UNL     1      -6.360  -4.302 -34.946  1.00  0.00     0.003 A 
HETATM   18  C   UNL     1      -6.801  -2.989 -34.767  1.00  0.00     0.037 A 
HETATM   19  C   UNL     1      -5.957  -2.029 -34.196  1.00  0.00     0.076 A 
BRANCH  19  20
HETATM   20  O   UNL     1      -6.305  -0.718 -34.008  1.00  0.00    -0.350 OA
BRANCH  20  21
HETATM   21  C   UNL     1      -7.668  -0.358 -34.222  1.00  0.00     0.180 C 
BRANCH  21  22
HETATM   22  C   UNL     1      -8.307  -0.184 -32.878  1.00  0.00     0.010 A 
HETATM   23  C   UNL     1      -8.694   1.185 -32.377  1.00  0.00     0.007 A 
HETATM   24  C   UNL     1      -9.762   0.200 -32.771  1.00  0.00     0.007 A 
ENDBRANCH  21  22
ENDBRANCH  20  21
ENDBRANCH  19  20
ENDBRANCH  13  14
ENDBRANCH  11  13
ENDBRANCH   1  11
BRANCH   8  25
HETATM   25  C   UNL     1      -2.170   4.310 -32.292  1.00  0.00     0.270 C 
HETATM   26  N   UNL     1      -2.412   4.356 -33.638  1.00  0.00    -0.365 N 
HETATM   27  H   UNL     1      -3.338   4.111 -33.971  1.00  0.00     0.159 HD
HETATM   28  H   UNL     1      -1.671   4.599 -34.274  1.00  0.00     0.159 HD
HETATM   29  O   UNL     1      -1.063   4.580 -31.835  1.00  0.00    -0.266 OA
ENDBRANCH   8  25
TORSDOF 7
ENDMDL
MODEL 2
REMARK VINA RESULT:      -7.9      3.326      5.975
REMARK  7 active torsions:
REMARK  status: ('A' for Active; 'I' for Inactive)
REMARK    1  A    between atoms: C_3  and  C_4 
REMARK    2  A    between atoms: C_4  and  N_5 
REMARK    3  A    between atoms: N_5  and  C_6 
REMARK    4  A    between atoms: C_13  and  C_14 
REMARK       I    between atoms: C_14  and  N_15 
REMARK    5  A    between atoms: C_19  and  O_20 
REMARK    6  A    between atoms: O_20  and  C_21 
REMARK    7  A    between atoms: C_21  and  C_22 
ROOT
HETATM    1  C   UNL     1      -7.946   0.493 -32.807  1.00  0.00     0.029 A 
HETATM    2  C   UNL     1      -9.259   0.472 -33.313  1.00  0.00     0.045 A 
HETATM    3  C   UNL     1     -10.146   1.537 -33.056  1.00  0.00     0.030 A 
HETATM    4  C   UNL     1      -9.703   2.601 -32.283  1.00  0.00     0.063 A 
HETATM    5  N   UNL     1     -10.761   3.462 -32.209  1.00  0.00    -0.277 N 
HETATM    6  H   UNL     1     -10.794   4.350 -31.723  1.00  0.00     0.189 HD
HETATM    7  N   UNL     1     -11.864   3.045 -32.853  1.00  0.00    -0.168 NA
HETATM    8  C   UNL     1     -11.499   1.853 -33.380  1.00  0.00     0.156 A 
HETATM    9  C   UNL     1      -8.420   2.656 -31.739  1.00  0.00     0.034 A 
HETATM   10  C   UNL     1      -7.565   1.574 -32.004  1.00  0.00     0.031 A 
ENDROOT
BRANCH   1  11
HETATM   11  N   UNL     1      -7.144  -0.621 -33.033  1.00  0.00    -0.386 N 
HETATM   12  H   UNL     1      -7.403  -1.441 -32.494  1.00  0.00     0.160 HD
BRANCH  11  13
HETATM   13  C   UNL     1      -6.508  -0.915 -34.313  1.00  0.00     0.161 C 
BRANCH  13  14
HETATM   14  C   UNL     1      -5.961  -2.324 -34.428  1.00  0.00    -0.007 A 
HETATM   15  C   UNL     1      -6.754  -3.374 -34.928  1.00  0.00     0.011 A 
HETATM   16  C   UNL     1      -6.262  -4.676 -34.992  1.00  0.00     0.001 A 
HETATM   17  C   UNL     1      -4.977  -4.956 -34.540  1.00  0.00     0.003 A 
HETATM   18  C   UNL     1      -4.180  -3.932 -34.023  1.00  0.00     0.037 A 
HETATM   19  C   UNL     1      -4.661  -2.619 -33.967  1.00  0.00     0.076 A 
BRANCH  19  20
HETATM   20  O   UNL     1      -3.953  -1.564 -33.454  1.00  0.00    -0.350 OA
BRANCH  20  21
HETATM   21  C   UNL     1      -3.385  -1.719 -32.155  1.00  0.00     0.180 C 
BRANCH  21  22
HETATM   22  C   UNL     1      -3.186  -0.350 -31.582  1.00  0.00     0.010 A 
HETATM   23  C   UNL     1      -3.887   0.847 -32.173  1.00  0.00     0.007 A 
HETATM   24  C   UNL     1      -4.299   0.327 -30.823  1.00  0.00     0.007 A 
ENDBRANCH  21  22
ENDBRANCH  20  21
ENDBRANCH  19  20
ENDBRANCH  13  14
ENDBRANCH  11  13
ENDBRANCH   1  11
BRANCH   8  25
HETATM   25  C   UNL     1     -12.439   1.044 -34.167  1.00  0.00     0.270 C 
HETATM   26  N   UNL     1     -12.992  -0.000 -33.475  1.00  0.00    -0.365 N 
HETATM   27  H   UNL     1     -12.715  -0.141 -32.510  1.00  0.00     0.159 HD
HETATM   28  H   UNL     1     -13.633  -0.624 -33.936  1.00  0.00     0.159 HD
HETATM   29  O   UNL     1     -12.726   1.251 -35.342  1.00  0.00    -0.266 OA
ENDBRANCH   8  25
TORSDOF 7
ENDMDL
MODEL 3
REMARK VINA RESULT:      -7.8      4.241      7.036
REMARK  7 active torsions:
REMARK  status: ('A' for Active; 'I' for Inactive)
REMARK    1  A    between atoms: C_3  and  C_4 
REMARK    2  A    between atoms: C_4  and  N_5 
REMARK    3  A    between atoms: N_5  and  C_6 
REMARK    4  A    between atoms: C_13  and  C_14 
REMARK       I    between atoms: C_14  and  N_15 
REMARK    5  A    between atoms: C_19  and  O_20 
REMARK    6  A    between atoms: O_20  and  C_21 
REMARK    7  A    between atoms: C_21  and  C_22 
ROOT
HETATM    1  C   UNL     1      -9.567   1.021 -33.342  1.00  0.00     0.029 A 
HETATM    2  C   UNL     1     -10.909   0.680 -33.598  1.00  0.00     0.045 A 
HETATM    3  C   UNL     1     -11.939   1.623 -33.412  1.00  0.00     0.030 A 
HETATM    4  C   UNL     1     -11.605   2.892 -32.962  1.00  0.00     0.063 A 
HETATM    5  N   UNL     1     -12.788   3.571 -32.882  1.00  0.00    -0.277 N 
HETATM    6  H   UNL     1     -12.923   4.532 -32.589  1.00  0.00     0.189 HD
HETATM    7  N   UNL     1     -13.869   2.851 -33.225  1.00  0.00    -0.168 NA
HETATM    8  C   UNL     1     -13.359   1.642 -33.554  1.00  0.00     0.156 A 
HETATM    9  C   UNL     1     -10.295   3.271 -32.671  1.00  0.00     0.034 A 
HETATM   10  C   UNL     1      -9.294   2.303 -32.854  1.00  0.00     0.031 A 
ENDROOT
BRANCH   1  11
HETATM   11  N   UNL     1      -8.607   0.023 -33.472  1.00  0.00    -0.386 N 
HETATM   12  H   UNL     1      -8.784  -0.806 -32.916  1.00  0.00     0.160 HD
BRANCH  11  13
HETATM   13  C   UNL     1      -7.854  -0.221 -34.698  1.00  0.00     0.161 C 
BRANCH  13  14
HETATM   14  C   UNL     1      -6.614  -1.074 -34.509  1.00  0.00    -0.007 A 
HETATM   15  C   UNL     1      -6.595  -2.426 -34.900  1.00  0.00     0.011 A 
HETATM   16  C   UNL     1      -5.469  -3.218 -34.686  1.00  0.00     0.001 A 
HETATM   17  C   UNL     1      -4.350  -2.679 -34.060  1.00  0.00     0.003 A 
HETATM   18  C   UNL     1      -4.355  -1.345 -33.647  1.00  0.00     0.037 A 
HETATM   19  C   UNL     1      -5.477  -0.539 -33.870  1.00  0.00     0.076 A 
BRANCH  19  20
HETATM   20  O   UNL     1      -5.571   0.770 -33.476  1.00  0.00    -0.350 OA
BRANCH  20  21
HETATM   21  C   UNL     1      -4.971   1.131 -32.233  1.00  0.00     0.180 C 
BRANCH  21  22
HETATM   22  C   UNL     1      -6.056   1.170 -31.201  1.00  0.00     0.010 A 
HETATM   23  C   UNL     1      -6.589  -0.100 -30.589  1.00  0.00     0.007 A 
HETATM   24  C   UNL     1      -5.751   0.836 -29.762  1.00  0.00     0.007 A 
ENDBRANCH  21  22
ENDBRANCH  20  21
ENDBRANCH  19  20
ENDBRANCH  13  14
ENDBRANCH  11  13
ENDBRANCH   1  11
BRANCH   8  25
HETATM   25  C   UNL     1     -14.225   0.536 -33.985  1.00  0.00     0.270 C 
HETATM   26  N   UNL     1     -13.922  -0.667 -33.408  1.00  0.00    -0.365 N 
HETATM   27  H   UNL     1     -13.145  -0.710 -32.759  1.00  0.00     0.159 HD
HETATM   28  H   UNL     1     -14.448  -1.490 -33.656  1.00  0.00     0.159 HD
HETATM   29  O   UNL     1     -15.145   0.642 -34.790  1.00  0.00    -0.266 OA
ENDBRANCH   8  25
TORSDOF 7
ENDMDL
MODEL 4
REMARK VINA RESULT:      -7.8      2.708      4.667
REMARK  7 active torsions:
REMARK  status: ('A' for Active; 'I' for Inactive)
REMARK    1  A    between atoms: C_3  and  C_4 
REMARK    2  A    between atoms: C_4  and  N_5 
REMARK    3  A    between atoms: N_5  and  C_6 
REMARK    4  A    between atoms: C_13  and  C_14 
REMARK       I    between atoms: C_14  and  N_15 
REMARK    5  A    between atoms: C_19  and  O_20 
REMARK    6  A    between atoms: O_20  and  C_21 
REMARK    7  A    between atoms: C_21  and  C_22 
ROOT
HETATM    1  C   UNL     1      -7.722   0.196 -32.899  1.00  0.00     0.029 A 
HETATM    2  C   UNL     1      -7.584   1.206 -31.929  1.00  0.00     0.045 A 
HETATM    3  C   UNL     1      -8.658   2.068 -31.630  1.00  0.00     0.030 A 
HETATM    4  C   UNL     1      -9.851   1.909 -32.320  1.00  0.00     0.063 A 
HETATM    5  N   UNL     1     -10.689   2.867 -31.823  1.00  0.00    -0.277 N 
HETATM    6  H   UNL     1     -11.648   3.042 -32.097  1.00  0.00     0.189 HD
HETATM    7  N   UNL     1     -10.141   3.651 -30.879  1.00  0.00    -0.168 NA
HETATM    8  C   UNL     1      -8.883   3.169 -30.750  1.00  0.00     0.156 A 
HETATM    9  C   UNL     1     -10.029   0.940 -33.307  1.00  0.00     0.034 A 
HETATM   10  C   UNL     1      -8.936   0.106 -33.590  1.00  0.00     0.031 A 
ENDROOT
BRANCH   1  11
HETATM   11  N   UNL     1      -6.603  -0.572 -33.202  1.00  0.00    -0.386 N 
HETATM   12  H   UNL     1      -6.275  -1.156 -32.440  1.00  0.00     0.160 HD
BRANCH  11  13
HETATM   13  C   UNL     1      -6.318  -1.099 -34.532  1.00  0.00     0.161 C 
BRANCH  13  14
HETATM   14  C   UNL     1      -5.747  -2.504 -34.537  1.00  0.00    -0.007 A 
HETATM   15  C   UNL     1      -6.477  -3.584 -35.067  1.00  0.00     0.011 A 
HETATM   16  C   UNL     1      -5.967  -4.881 -35.030  1.00  0.00     0.001 A 
HETATM   17  C   UNL     1      -4.727  -5.123 -34.448  1.00  0.00     0.003 A 
HETATM   18  C   UNL     1      -3.995  -4.068 -33.900  1.00  0.00     0.037 A 
HETATM   19  C   UNL     1      -4.494  -2.761 -33.944  1.00  0.00     0.076 A 
BRANCH  19  20
HETATM   20  O   UNL     1      -3.849  -1.676 -33.410  1.00  0.00    -0.350 OA
BRANCH  20  21
HETATM   21  C   UNL     1      -3.339  -1.798 -32.083  1.00  0.00     0.180 C 
BRANCH  21  22
HETATM   22  C   UNL     1      -2.990  -0.422 -31.604  1.00  0.00     0.010 A 
HETATM   23  C   UNL     1      -3.592   0.799 -32.252  1.00  0.00     0.007 A 
HETATM   24  C   UNL     1      -4.009   0.406 -30.861  1.00  0.00     0.007 A 
ENDBRANCH  21  22
ENDBRANCH  20  21
ENDBRANCH  19  20
ENDBRANCH  13  14
ENDBRANCH  11  13
ENDBRANCH   1  11
BRANCH   8  25
HETATM   25  C   UNL     1      -7.927   3.766 -29.807  1.00  0.00     0.270 C 
HETATM   26  N   UNL     1      -7.125   2.855 -29.175  1.00  0.00    -0.365 N 
HETATM   27  H   UNL     1      -7.251   1.871 -29.386  1.00  0.00     0.159 HD
HETATM   28  H   UNL     1      -6.451   3.166 -28.495  1.00  0.00     0.159 HD
HETATM   29  O   UNL     1      -7.829   4.967 -29.578  1.00  0.00    -0.266 OA
ENDBRANCH   8  25
TORSDOF 7
ENDMDL
MODEL 5
REMARK VINA RESULT:      -7.5      2.192      4.285
REMARK  7 active torsions:
REMARK  status: ('A' for Active; 'I' for Inactive)
REMARK    1  A    between atoms: C_3  and  C_4 
REMARK    2  A    between atoms: C_4  and  N_5 
REMARK    3  A    between atoms: N_5  and  C_6 
REMARK    4  A    between atoms: C_13  and  C_14 
REMARK       I    between atoms: C_14  and  N_15 
REMARK    5  A    between atoms: C_19  and  O_20 
REMARK    6  A    between atoms: O_20  and  C_21 
REMARK    7  A    between atoms: C_21  and  C_22 
ROOT
HETATM    1  C   UNL     1      -4.652   3.649 -32.991  1.00  0.00     0.029 A 
HETATM    2  C   UNL     1      -3.446   4.120 -32.439  1.00  0.00     0.045 A 
HETATM    3  C   UNL     1      -2.699   5.123 -33.089  1.00  0.00     0.030 A 
HETATM    4  C   UNL     1      -3.171   5.629 -34.291  1.00  0.00     0.063 A 
HETATM    5  N   UNL     1      -2.256   6.568 -34.674  1.00  0.00    -0.277 N 
HETATM    6  H   UNL     1      -2.282   7.143 -35.509  1.00  0.00     0.189 HD
HETATM    7  N   UNL     1      -1.217   6.708 -33.834  1.00  0.00    -0.168 NA
HETATM    8  C   UNL     1      -1.476   5.818 -32.849  1.00  0.00     0.156 A 
HETATM    9  C   UNL     1      -4.347   5.179 -34.891  1.00  0.00     0.034 A 
HETATM   10  C   UNL     1      -5.061   4.170 -34.224  1.00  0.00     0.031 A 
ENDROOT
BRANCH   1  11
HETATM   11  N   UNL     1      -5.302   2.607 -32.339  1.00  0.00    -0.386 N 
HETATM   12  H   UNL     1      -5.982   2.902 -31.647  1.00  0.00     0.160 HD
BRANCH  11  13
HETATM   13  C   UNL     1      -5.595   1.320 -32.963  1.00  0.00     0.161 C 
BRANCH  13  14
HETATM   14  C   UNL     1      -4.658   0.201 -32.552  1.00  0.00    -0.007 A 
HETATM   15  C   UNL     1      -3.479   0.466 -31.830  1.00  0.00     0.011 A 
HETATM   16  C   UNL     1      -2.599  -0.560 -31.492  1.00  0.00     0.001 A 
HETATM   17  C   UNL     1      -2.871  -1.865 -31.885  1.00  0.00     0.003 A 
HETATM   18  C   UNL     1      -4.025  -2.148 -32.619  1.00  0.00     0.037 A 
HETATM   19  C   UNL     1      -4.921  -1.126 -32.952  1.00  0.00     0.076 A 
BRANCH  19  20
HETATM   20  O   UNL     1      -6.062  -1.316 -33.686  1.00  0.00    -0.350 OA
BRANCH  20  21
HETATM   21  C   UNL     1      -5.956  -2.082 -34.885  1.00  0.00     0.180 C 
BRANCH  21  22
HETATM   22  C   UNL     1      -6.599  -3.411 -34.631  1.00  0.00     0.010 A 
HETATM   23  C   UNL     1      -6.713  -4.437 -35.730  1.00  0.00     0.007 A 
HETATM   24  C   UNL     1      -5.762  -4.665 -34.586  1.00  0.00     0.007 A 
ENDBRANCH  21  22
ENDBRANCH  20  21
ENDBRANCH  19  20
ENDBRANCH  13  14
ENDBRANCH  11  13
ENDBRANCH   1  11
BRANCH   8  25
HETATM   25  C   UNL     1      -0.560   5.642 -31.714  1.00  0.00     0.270 C 
HETATM   26  N   UNL     1       0.258   6.715 -31.486  1.00  0.00    -0.365 N 
HETATM   27  H   UNL     1       0.183   7.519 -32.100  1.00  0.00     0.159 HD
HETATM   28  H   UNL     1       0.934   6.682 -30.741  1.00  0.00     0.159 HD
HETATM   29  O   UNL     1      -0.502   4.637 -31.012  1.00  0.00    -0.266 OA
ENDBRANCH   8  25
TORSDOF 7
ENDMDL
MODEL 6
REMARK VINA RESULT:      -7.5      2.627      7.673
REMARK  7 active torsions:
REMARK  status: ('A' for Active; 'I' for Inactive)
REMARK    1  A    between atoms: C_3  and  C_4 
REMARK    2  A    between atoms: C_4  and  N_5 
REMARK    3  A    between atoms: N_5  and  C_6 
REMARK    4  A    between atoms: C_13  and  C_14 
REMARK       I    between atoms: C_14  and  N_15 
REMARK    5  A    between atoms: C_19  and  O_20 
REMARK    6  A    between atoms: O_20  and  C_21 
REMARK    7  A    between atoms: C_21  and  C_22 
ROOT
HETATM    1  C   UNL     1      -4.377   2.203 -31.333  1.00  0.00     0.029 A 
HETATM    2  C   UNL     1      -5.754   1.990 -31.531  1.00  0.00     0.045 A 
HETATM    3  C   UNL     1      -6.212   0.879 -32.267  1.00  0.00     0.030 A 
HETATM    4  C   UNL     1      -5.277   0.005 -32.803  1.00  0.00     0.063 A 
HETATM    5  N   UNL     1      -6.004  -0.954 -33.448  1.00  0.00    -0.277 N 
HETATM    6  H   UNL     1      -5.646  -1.757 -33.954  1.00  0.00     0.189 HD
HETATM    7  N   UNL     1      -7.335  -0.775 -33.395  1.00  0.00    -0.168 NA
HETATM    8  C   UNL     1      -7.478   0.358 -32.669  1.00  0.00     0.156 A 
HETATM    9  C   UNL     1      -3.902   0.187 -32.655  1.00  0.00     0.034 A 
HETATM   10  C   UNL     1      -3.479   1.310 -31.927  1.00  0.00     0.031 A 
ENDROOT
BRANCH   1  11
HETATM   11  N   UNL     1      -3.988   3.358 -30.662  1.00  0.00    -0.386 N 
HETATM   12  H   UNL     1      -3.191   3.238 -30.046  1.00  0.00     0.160 HD
BRANCH  11  13
HETATM   13  C   UNL     1      -4.128   4.701 -31.215  1.00  0.00     0.161 C 
BRANCH  13  14
HETATM   14  C   UNL     1      -3.397   4.915 -32.526  1.00  0.00    -0.007 A 
HETATM   15  C   UNL     1      -4.102   5.113 -33.728  1.00  0.00     0.011 A 
HETATM   16  C   UNL     1      -3.427   5.265 -34.938  1.00  0.00     0.001 A 
HETATM   17  C   UNL     1      -2.038   5.204 -34.971  1.00  0.00     0.003 A 
HETATM   18  C   UNL     1      -1.320   4.990 -33.792  1.00  0.00     0.037 A 
HETATM   19  C   UNL     1      -1.989   4.849 -32.571  1.00  0.00     0.076 A 
BRANCH  19  20
HETATM   20  O   UNL     1      -1.361   4.614 -31.376  1.00  0.00    -0.350 OA
BRANCH  20  21
HETATM   21  C   UNL     1      -0.079   5.205 -31.176  1.00  0.00     0.180 C 
BRANCH  21  22
HETATM   22  C   UNL     1      -0.295   6.625 -30.750  1.00  0.00     0.010 A 
HETATM   23  C   UNL     1      -1.106   6.948 -29.520  1.00  0.00     0.007 A 
HETATM   24  C   UNL     1       0.384   7.161 -29.515  1.00  0.00     0.007 A 
ENDBRANCH  21  22
ENDBRANCH  20  21
ENDBRANCH  19  20
ENDBRANCH  13  14
ENDBRANCH  11  13
ENDBRANCH   1  11
BRANCH   8  25
HETATM   25  C   UNL     1      -8.805   0.921 -32.381  1.00  0.00     0.270 C 
HETATM   26  N   UNL     1      -9.366   0.461 -31.221  1.00  0.00    -0.365 N 
HETATM   27  H   UNL     1      -8.851  -0.217 -30.671  1.00  0.00     0.159 HD
HETATM   28  H   UNL     1     -10.283   0.774 -30.949  1.00  0.00     0.159 HD
HETATM   29  O   UNL     1      -9.390   1.730 -33.094  1.00  0.00    -0.266 OA
ENDBRANCH   8  25
TORSDOF 7
ENDMDL
MODEL 7
REMARK VINA RESULT:      -7.4      2.308      4.620
REMARK  7 active torsions:
REMARK  status: ('A' for Active; 'I' for Inactive)
REMARK    1  A    between atoms: C_3  and  C_4 
REMARK    2  A    between atoms: C_4  and  N_5 
REMARK    3  A    between atoms: N_5  and  C_6 
REMARK    4  A    between atoms: C_13  and  C_14 
REMARK       I    between atoms: C_14  and  N_15 
REMARK    5  A    between atoms: C_19  and  O_20 
REMARK    6  A    between atoms: O_20  and  C_21 
REMARK    7  A    between atoms: C_21  and  C_22 
ROOT
HETATM    1  C   UNL     1      -3.567   3.714 -32.717  1.00  0.00     0.029 A 
HETATM    2  C   UNL     1      -2.427   3.954 -31.927  1.00  0.00     0.045 A 
HETATM    3  C   UNL     1      -1.690   5.146 -32.071  1.00  0.00     0.030 A 
HETATM    4  C   UNL     1      -2.104   6.074 -33.016  1.00  0.00     0.063 A 
HETATM    5  N   UNL     1      -1.214   7.106 -32.925  1.00  0.00    -0.277 N 
HETATM    6  H   UNL     1      -1.212   7.962 -33.468  1.00  0.00     0.189 HD
HETATM    7  N   UNL     1      -0.243   6.926 -32.014  1.00  0.00    -0.168 NA
HETATM    8  C   UNL     1      -0.524   5.716 -31.478  1.00  0.00     0.156 A 
HETATM    9  C   UNL     1      -3.212   5.872 -33.839  1.00  0.00     0.034 A 
HETATM   10  C   UNL     1      -3.917   4.668 -33.679  1.00  0.00     0.031 A 
ENDROOT
BRANCH   1  11
HETATM   11  N   UNL     1      -4.206   2.486 -32.579  1.00  0.00    -0.386 N 
HETATM   12  H   UNL     1      -3.707   1.814 -32.007  1.00  0.00     0.160 HD
BRANCH  11  13
HETATM   13  C   UNL     1      -5.657   2.325 -32.574  1.00  0.00     0.161 C 
BRANCH  13  14
HETATM   14  C   UNL     1      -6.167   1.240 -33.502  1.00  0.00    -0.007 A 
HETATM   15  C   UNL     1      -7.310   1.441 -34.298  1.00  0.00     0.011 A 
HETATM   16  C   UNL     1      -7.801   0.426 -35.118  1.00  0.00     0.001 A 
HETATM   17  C   UNL     1      -7.171  -0.813 -35.141  1.00  0.00     0.003 A 
HETATM   18  C   UNL     1      -6.046  -1.040 -34.344  1.00  0.00     0.037 A 
HETATM   19  C   UNL     1      -5.539  -0.023 -33.529  1.00  0.00     0.076 A 
BRANCH  19  20
HETATM   20  O   UNL     1      -4.456  -0.171 -32.702  1.00  0.00    -0.350 OA
BRANCH  20  21
HETATM   21  C   UNL     1      -4.408  -1.336 -31.879  1.00  0.00     0.180 C 
BRANCH  21  22
HETATM   22  C   UNL     1      -3.289  -2.198 -32.379  1.00  0.00     0.010 A 
HETATM   23  C   UNL     1      -2.920  -3.475 -31.669  1.00  0.00     0.007 A 
HETATM   24  C   UNL     1      -3.583  -3.532 -33.018  1.00  0.00     0.007 A 
ENDBRANCH  21  22
ENDBRANCH  20  21
ENDBRANCH  19  20
ENDBRANCH  13  14
ENDBRANCH  11  13
ENDBRANCH   1  11
BRANCH   8  25
HETATM   25  C   UNL     1       0.320   5.128 -30.429  1.00  0.00     0.270 C 
HETATM   26  N   UNL     1      -0.082   5.427 -29.156  1.00  0.00    -0.365 N 
HETATM   27  H   UNL     1      -0.896   6.020 -29.033  1.00  0.00     0.159 HD
HETATM   28  H   UNL     1       0.445   5.086 -28.369  1.00  0.00     0.159 HD
HETATM   29  O   UNL     1       1.307   4.428 -30.637  1.00  0.00    -0.266 OA
ENDBRANCH   8  25
TORSDOF 7
ENDMDL
MODEL 8
REMARK VINA RESULT:      -7.3      1.921      2.319
REMARK  7 active torsions:
REMARK  status: ('A' for Active; 'I' for Inactive)
REMARK    1  A    between atoms: C_3  and  C_4 
REMARK    2  A    between atoms: C_4  and  N_5 
REMARK    3  A    between atoms: N_5  and  C_6 
REMARK    4  A    between atoms: C_13  and  C_14 
REMARK       I    between atoms: C_14  and  N_15 
REMARK    5  A    between atoms: C_19  and  O_20 
REMARK    6  A    between atoms: O_20  and  C_21 
REMARK    7  A    between atoms: C_21  and  C_22 
ROOT
HETATM    1  C   UNL     1      -3.897   1.927 -31.699  1.00  0.00     0.029 A 
HETATM    2  C   UNL     1      -3.691   2.898 -32.697  1.00  0.00     0.045 A 
HETATM    3  C   UNL     1      -4.235   4.191 -32.568  1.00  0.00     0.030 A 
HETATM    4  C   UNL     1      -4.989   4.485 -31.441  1.00  0.00     0.063 A 
HETATM    5  N   UNL     1      -5.374   5.787 -31.591  1.00  0.00    -0.277 N 
HETATM    6  H   UNL     1      -5.937   6.337 -30.952  1.00  0.00     0.189 HD
HETATM    7  N   UNL     1      -4.951   6.366 -32.728  1.00  0.00    -0.168 NA
HETATM    8  C   UNL     1      -4.247   5.388 -33.344  1.00  0.00     0.156 A 
HETATM    9  C   UNL     1      -5.242   3.552 -30.436  1.00  0.00     0.034 A 
HETATM   10  C   UNL     1      -4.696   2.269 -30.602  1.00  0.00     0.031 A 
ENDROOT
BRANCH   1  11
HETATM   11  N   UNL     1      -3.397   0.649 -31.921  1.00  0.00    -0.386 N 
HETATM   12  H   UNL     1      -2.385   0.583 -31.897  1.00  0.00     0.160 HD
BRANCH  11  13
HETATM   13  C   UNL     1      -4.092  -0.572 -31.525  1.00  0.00     0.161 C 
BRANCH  13  14
HETATM   14  C   UNL     1      -4.898  -1.218 -32.635  1.00  0.00    -0.007 A 
HETATM   15  C   UNL     1      -4.313  -2.154 -33.509  1.00  0.00     0.011 A 
HETATM   16  C   UNL     1      -5.045  -2.713 -34.555  1.00  0.00     0.001 A 
HETATM   17  C   UNL     1      -6.367  -2.333 -34.758  1.00  0.00     0.003 A 
HETATM   18  C   UNL     1      -6.961  -1.392 -33.914  1.00  0.00     0.037 A 
HETATM   19  C   UNL     1      -6.237  -0.835 -32.853  1.00  0.00     0.076 A 
BRANCH  19  20
HETATM   20  O   UNL     1      -6.738   0.109 -31.995  1.00  0.00    -0.350 OA
BRANCH  20  21
HETATM   21  C   UNL     1      -8.077   0.553 -32.211  1.00  0.00     0.180 C 
BRANCH  21  22
HETATM   22  C   UNL     1      -8.019   2.006 -32.572  1.00  0.00     0.010 A 
HETATM   23  C   UNL     1      -7.228   2.476 -33.765  1.00  0.00     0.007 A 
HETATM   24  C   UNL     1      -8.732   2.514 -33.800  1.00  0.00     0.007 A 
ENDBRANCH  21  22
ENDBRANCH  20  21
ENDBRANCH  19  20
ENDBRANCH  13  14
ENDBRANCH  11  13
ENDBRANCH   1  11
BRANCH   8  25
HETATM   25  C   UNL     1      -3.611   5.609 -34.650  1.00  0.00     0.270 C 
HETATM   26  N   UNL     1      -2.444   6.321 -34.589  1.00  0.00    -0.365 N 
HETATM   27  H   UNL     1      -2.121   6.643 -33.684  1.00  0.00     0.159 HD
HETATM   28  H   UNL     1      -1.945   6.540 -35.435  1.00  0.00     0.159 HD
HETATM   29  O   UNL     1      -4.057   5.209 -35.721  1.00  0.00    -0.266 OA
ENDBRANCH   8  25
TORSDOF 7
ENDMDL
MODEL 9
REMARK VINA RESULT:      -7.3      2.597      7.766
REMARK  7 active torsions:
REMARK  status: ('A' for Active; 'I' for Inactive)
REMARK    1  A    between atoms: C_3  and  C_4 
REMARK    2  A    between atoms: C_4  and  N_5 
REMARK    3  A    between atoms: N_5  and  C_6 
REMARK    4  A    between atoms: C_13  and  C_14 
REMARK       I    between atoms: C_14  and  N_15 
REMARK    5  A    between atoms: C_19  and  O_20 
REMARK    6  A    between atoms: O_20  and  C_21 
REMARK    7  A    between atoms: C_21  and  C_22 
ROOT
HETATM    1  C   UNL     1      -4.732   0.499 -32.840  1.00  0.00     0.029 A 
HETATM    2  C   UNL     1      -4.217  -0.809 -32.914  1.00  0.00     0.045 A 
HETATM    3  C   UNL     1      -4.899  -1.811 -33.633  1.00  0.00     0.030 A 
HETATM    4  C   UNL     1      -6.095  -1.485 -34.257  1.00  0.00     0.063 A 
HETATM    5  N   UNL     1      -6.512  -2.636 -34.864  1.00  0.00    -0.277 N 
HETATM    6  H   UNL     1      -7.352  -2.767 -35.415  1.00  0.00     0.189 HD
HETATM    7  N   UNL     1      -5.701  -3.691 -34.676  1.00  0.00    -0.168 NA
HETATM    8  C   UNL     1      -4.699  -3.196 -33.914  1.00  0.00     0.156 A 
HETATM    9  C   UNL     1      -6.658  -0.211 -34.193  1.00  0.00     0.034 A 
HETATM   10  C   UNL     1      -5.961   0.761 -33.458  1.00  0.00     0.031 A 
ENDROOT
BRANCH   1  11
HETATM   11  N   UNL     1      -4.052   1.422 -32.053  1.00  0.00    -0.386 N 
HETATM   12  H   UNL     1      -3.045   1.299 -32.036  1.00  0.00     0.160 HD
BRANCH  11  13
HETATM   13  C   UNL     1      -4.496   2.798 -31.853  1.00  0.00     0.161 C 
BRANCH  13  14
HETATM   14  C   UNL     1      -4.035   3.765 -32.927  1.00  0.00    -0.007 A 
HETATM   15  C   UNL     1      -4.869   4.102 -34.009  1.00  0.00     0.011 A 
HETATM   16  C   UNL     1      -4.426   4.956 -35.017  1.00  0.00     0.001 A 
HETATM   17  C   UNL     1      -3.136   5.473 -34.971  1.00  0.00     0.003 A 
HETATM   18  C   UNL     1      -2.285   5.136 -33.916  1.00  0.00     0.037 A 
HETATM   19  C   UNL     1      -2.726   4.289 -32.893  1.00  0.00     0.076 A 
BRANCH  19  20
HETATM   20  O   UNL     1      -1.948   3.893 -31.837  1.00  0.00    -0.350 OA
BRANCH  20  21
HETATM   21  C   UNL     1      -1.489   4.902 -30.939  1.00  0.00     0.180 C 
BRANCH  21  22
HETATM   22  C   UNL     1      -0.063   5.202 -31.285  1.00  0.00     0.010 A 
HETATM   23  C   UNL     1       0.533   6.558 -31.004  1.00  0.00     0.007 A 
HETATM   24  C   UNL     1       0.967   5.365 -30.195  1.00  0.00     0.007 A 
ENDBRANCH  21  22
ENDBRANCH  20  21
ENDBRANCH  19  20
ENDBRANCH  13  14
ENDBRANCH  11  13
ENDBRANCH   1  11
BRANCH   8  25
HETATM   25  C   UNL     1      -3.586  -4.044 -33.466  1.00  0.00     0.270 C 
HETATM   26  N   UNL     1      -3.126  -3.744 -32.212  1.00  0.00    -0.365 N 
HETATM   27  H   UNL     1      -3.562  -2.981 -31.707  1.00  0.00     0.159 HD
HETATM   28  H   UNL     1      -2.351  -4.258 -31.826  1.00  0.00     0.159 HD
HETATM   29  O   UNL     1      -3.085  -4.946 -34.129  1.00  0.00    -0.266 OA
ENDBRANCH   8  25
TORSDOF 7
ENDMDL
MODEL 10
REMARK VINA RESULT:      -7.2      2.153      3.542
REMARK  7 active torsions:
REMARK  status: ('A' for Active; 'I' for Inactive)
REMARK    1  A    between atoms: C_3  and  C_4 
REMARK    2  A    between atoms: C_4  and  N_5 
REMARK    3  A    between atoms: N_5  and  C_6 
REMARK    4  A    between atoms: C_13  and  C_14 
REMARK       I    between atoms: C_14  and  N_15 
REMARK    5  A    between atoms: C_19  and  O_20 
REMARK    6  A    between atoms: O_20  and  C_21 
REMARK    7  A    between atoms: C_21  and  C_22 
ROOT
HETATM    1  C   UNL     1      -4.331   3.516 -32.907  1.00  0.00     0.029 A 
HETATM    2  C   UNL     1      -3.121   4.033 -32.407  1.00  0.00     0.045 A 
HETATM    3  C   UNL     1      -2.490   5.124 -33.036  1.00  0.00     0.030 A 
HETATM    4  C   UNL     1      -3.080   5.673 -34.166  1.00  0.00     0.063 A 
HETATM    5  N   UNL     1      -2.257   6.696 -34.544  1.00  0.00    -0.277 N 
HETATM    6  H   UNL     1      -2.380   7.319 -35.334  1.00  0.00     0.189 HD
HETATM    7  N   UNL     1      -1.171   6.853 -33.769  1.00  0.00    -0.168 NA
HETATM    8  C   UNL     1      -1.300   5.886 -32.832  1.00  0.00     0.156 A 
HETATM    9  C   UNL     1      -4.264   5.181 -34.715  1.00  0.00     0.034 A 
HETATM   10  C   UNL     1      -4.860   4.085 -34.071  1.00  0.00     0.031 A 
ENDROOT
BRANCH   1  11
HETATM   11  N   UNL     1      -4.864   2.391 -32.287  1.00  0.00    -0.386 N 
HETATM   12  H   UNL     1      -4.651   2.316 -31.298  1.00  0.00     0.160 HD
BRANCH  11  13
HETATM   13  C   UNL     1      -6.122   1.767 -32.683  1.00  0.00     0.161 C 
BRANCH  13  14
HETATM   14  C   UNL     1      -5.974   0.365 -33.241  1.00  0.00    -0.007 A 
HETATM   15  C   UNL     1      -4.736  -0.303 -33.211  1.00  0.00     0.011 A 
HETATM   16  C   UNL     1      -4.594  -1.575 -33.763  1.00  0.00     0.001 A 
HETATM   17  C   UNL     1      -5.681  -2.193 -34.371  1.00  0.00     0.003 A 
HETATM   18  C   UNL     1      -6.914  -1.540 -34.428  1.00  0.00     0.037 A 
HETATM   19  C   UNL     1      -7.069  -0.268 -33.865  1.00  0.00     0.076 A 
BRANCH  19  20
HETATM   20  O   UNL     1      -8.237   0.448 -33.898  1.00  0.00    -0.350 OA
BRANCH  20  21
HETATM   21  C   UNL     1      -9.309   0.002 -33.070  1.00  0.00     0.180 C 
BRANCH  21  22
HETATM   22  C   UNL     1     -10.370   1.059 -33.093  1.00  0.00     0.010 A 
HETATM   23  C   UNL     1     -10.842   1.653 -34.395  1.00  0.00     0.007 A 
HETATM   24  C   UNL     1     -11.749   0.743 -33.613  1.00  0.00     0.007 A 
ENDBRANCH  21  22
ENDBRANCH  20  21
ENDBRANCH  19  20
ENDBRANCH  13  14
ENDBRANCH  11  13
ENDBRANCH   1  11
BRANCH   8  25
HETATM   25  C   UNL     1      -0.295   5.702 -31.777  1.00  0.00     0.270 C 
HETATM   26  N   UNL     1       0.314   6.861 -31.379  1.00  0.00    -0.365 N 
HETATM   27  H   UNL     1       0.047   7.728 -31.832  1.00  0.00     0.159 HD
HETATM   28  H   UNL     1       1.032   6.834 -30.673  1.00  0.00     0.159 HD
HETATM   29  O   UNL     1       0.001   4.622 -31.274  1.00  0.00    -0.266 OA
ENDBRANCH   8  25
TORSDOF 7
ENDMDL
