MODEL 1
REMARK VINA RESULT:      -9.4      0.000      0.000
REMARK  6 active torsions:
REMARK  status: ('A' for Active; 'I' for Inactive)
REMARK    1  A    between atoms: C_3  and  C_4 
REMARK    2  A    between atoms: C_4  and  C_5 
REMARK    3  A    between atoms: N_8  and  C_10 
REMARK    4  A    between atoms: C_10  and  C_11 
REMARK    5  A    between atoms: N_24  and  C_25 
REMARK    6  A    between atoms: C_25  and  C_26 
ROOT
HETATM    1  C   UNL     1      -5.918   1.244 -32.633  1.00  0.00     0.164 C 
HETATM    2  N   UNL     1      -5.721   2.303 -33.606  1.00  0.00    -0.319 N 
HETATM    3  C   UNL     1      -6.757   3.207 -33.639  1.00  0.00     0.326 C 
HETATM    4  O   UNL     1      -6.710   4.270 -34.227  1.00  0.00    -0.247 OA
HETATM    5  N   UNL     1      -7.752   2.739 -32.835  1.00  0.00    -0.265 N 
HETATM    6  C   UNL     1      -7.381   1.556 -32.266  1.00  0.00     0.263 C 
HETATM    7  O   UNL     1      -8.082   0.900 -31.505  1.00  0.00    -0.270 OA
HETATM    8  H   UNL     1      -4.883   2.437 -34.161  1.00  0.00     0.166 HD
ENDROOT
BRANCH   1   9
HETATM    9  C   UNL     1      -5.753  -0.124 -33.298  1.00  0.00     0.072 A 
HETATM   10  C   UNL     1      -6.605  -0.567 -34.313  1.00  0.00     0.030 A 
HETATM   11  C   UNL     1      -6.387  -1.817 -34.892  1.00  0.00     0.003 A 
HETATM   12  C   UNL     1      -5.315  -2.590 -34.470  1.00  0.00     0.019 A 
HETATM   13  C   UNL     1      -4.495  -2.077 -33.484  1.00  0.00     0.117 A 
HETATM   14  N   UNL     1      -4.689  -0.873 -32.898  1.00  0.00    -0.262 NA
ENDBRANCH   1   9
BRANCH   1  15
HETATM   15  C   UNL     1      -4.929   1.466 -31.414  1.00  0.00     0.033 C 
HETATM   16  C   UNL     1      -5.371   2.514 -30.373  1.00  0.00     0.036 C 
HETATM   17  C   UNL     1      -4.993   3.961 -30.667  1.00  0.00     0.235 C 
HETATM   18  N   UNL     1      -3.546   4.093 -31.073  1.00  0.00    -0.067 N 
HETATM   19  H   UNL     1      -2.977   3.916 -30.232  1.00  0.00     0.280 HD
HETATM   20  C   UNL     1      -3.101   3.126 -32.134  1.00  0.00     0.235 C 
HETATM   21  C   UNL     1      -3.442   1.701 -31.747  1.00  0.00     0.036 C 
BRANCH  18  22
HETATM   22  C   UNL     1      -3.210   5.514 -31.522  1.00  0.00     0.278 C 
BRANCH  22  23
HETATM   23  C   UNL     1      -1.987   6.124 -30.909  1.00  0.00     0.028 A 
HETATM   24  C   UNL     1      -2.011   6.850 -29.712  1.00  0.00     0.045 A 
HETATM   25 CL   UNL     1      -3.496   7.140 -28.880  1.00  0.00    -0.084 Cl
HETATM   26  C   UNL     1      -0.833   7.374 -29.173  1.00  0.00     0.024 A 
HETATM   27  C   UNL     1       0.387   7.176 -29.824  1.00  0.00     0.005 A 
HETATM   28  C   UNL     1       0.425   6.459 -31.015  1.00  0.00     0.043 A 
HETATM   29  C   UNL     1      -0.752   5.941 -31.541  1.00  0.00     0.126 A 
HETATM   30  F   UNL     1      -0.699   5.258 -32.692  1.00  0.00    -0.205 F 
ENDBRANCH  22  23
ENDBRANCH  18  22
ENDBRANCH   1  15
BRANCH   5  31
HETATM   31  C   UNL     1      -9.039   3.388 -32.629  1.00  0.00     0.168 C 
BRANCH  31  32
HETATM   32  C   UNL     1      -9.937   3.321 -33.876  1.00  0.00     0.140 C 
HETATM   33  O   UNL     1     -11.254   3.778 -33.533  1.00  0.00    -0.384 OA
HETATM   34  C   UNL     1     -12.064   2.638 -33.194  1.00  0.00     0.168 C 
HETATM   35  C   UNL     1     -11.241   1.393 -33.466  1.00  0.00     0.029 C 
HETATM   36  C   UNL     1     -10.146   1.901 -34.372  1.00  0.00     0.036 C 
ENDBRANCH  31  32
ENDBRANCH   5  31
TORSDOF 6
ENDMDL
MODEL 2
REMARK VINA RESULT:      -9.3      3.878      8.542
REMARK  6 active torsions:
REMARK  status: ('A' for Active; 'I' for Inactive)
REMARK    1  A    between atoms: C_3  and  C_4 
REMARK    2  A    between atoms: C_4  and  C_5 
REMARK    3  A    between atoms: N_8  and  C_10 
REMARK    4  A    between atoms: C_10  and  C_11 
REMARK    5  A    between atoms: N_24  and  C_25 
REMARK    6  A    between atoms: C_25  and  C_26 
ROOT
HETATM    1  C   UNL     1      -6.632   1.174 -32.626  1.00  0.00     0.164 C 
HETATM    2  N   UNL     1      -7.157   1.285 -33.975  1.00  0.00    -0.319 N 
HETATM    3  C   UNL     1      -7.351   0.066 -34.582  1.00  0.00     0.326 C 
HETATM    4  O   UNL     1      -7.963  -0.082 -35.623  1.00  0.00    -0.247 OA
HETATM    5  N   UNL     1      -6.836  -0.898 -33.770  1.00  0.00    -0.265 N 
HETATM    6  C   UNL     1      -6.324  -0.336 -32.637  1.00  0.00     0.263 C 
HETATM    7  O   UNL     1      -5.786  -0.962 -31.732  1.00  0.00    -0.270 OA
HETATM    8  H   UNL     1      -7.437   2.151 -34.423  1.00  0.00     0.166 HD
ENDROOT
BRANCH   1   9
HETATM    9  C   UNL     1      -5.376   2.034 -32.472  1.00  0.00     0.072 A 
HETATM   10  C   UNL     1      -5.160   3.182 -33.240  1.00  0.00     0.030 A 
HETATM   11  C   UNL     1      -4.003   3.932 -33.035  1.00  0.00     0.003 A 
HETATM   12  C   UNL     1      -3.098   3.545 -32.057  1.00  0.00     0.019 A 
HETATM   13  C   UNL     1      -3.390   2.417 -31.316  1.00  0.00     0.117 A 
HETATM   14  N   UNL     1      -4.499   1.664 -31.500  1.00  0.00    -0.262 NA
ENDBRANCH   1   9
BRANCH   1  15
HETATM   15  C   UNL     1      -7.773   1.548 -31.592  1.00  0.00     0.033 C 
HETATM   16  C   UNL     1      -8.978   0.588 -31.542  1.00  0.00     0.036 C 
HETATM   17  C   UNL     1     -10.095   0.851 -32.544  1.00  0.00     0.235 C 
HETATM   18  N   UNL     1     -10.492   2.306 -32.575  1.00  0.00    -0.067 N 
HETATM   19  H   UNL     1     -10.980   2.507 -31.690  1.00  0.00     0.280 HD
HETATM   20  C   UNL     1      -9.341   3.267 -32.688  1.00  0.00     0.235 C 
HETATM   21  C   UNL     1      -8.301   2.996 -31.619  1.00  0.00     0.036 C 
BRANCH  18  22
HETATM   22  C   UNL     1     -11.495   2.597 -33.690  1.00  0.00     0.278 C 
BRANCH  22  23
HETATM   23  C   UNL     1     -12.931   2.316 -33.370  1.00  0.00     0.028 A 
HETATM   24  C   UNL     1     -13.637   2.985 -32.364  1.00  0.00     0.045 A 
HETATM   25 CL   UNL     1     -12.860   4.165 -31.371  1.00  0.00    -0.084 Cl
HETATM   26  C   UNL     1     -14.985   2.700 -32.128  1.00  0.00     0.024 A 
HETATM   27  C   UNL     1     -15.645   1.740 -32.899  1.00  0.00     0.005 A 
HETATM   28  C   UNL     1     -14.955   1.065 -33.901  1.00  0.00     0.043 A 
HETATM   29  C   UNL     1     -13.616   1.359 -34.127  1.00  0.00     0.126 A 
HETATM   30  F   UNL     1     -12.964   0.696 -35.092  1.00  0.00    -0.205 F 
ENDBRANCH  22  23
ENDBRANCH  18  22
ENDBRANCH   1  15
BRANCH   5  31
HETATM   31  C   UNL     1      -6.810  -2.323 -34.071  1.00  0.00     0.168 C 
BRANCH  31  32
HETATM   32  C   UNL     1      -5.693  -2.691 -35.063  1.00  0.00     0.140 C 
HETATM   33  O   UNL     1      -5.867  -4.053 -35.481  1.00  0.00    -0.384 OA
HETATM   34  C   UNL     1      -5.061  -4.901 -34.643  1.00  0.00     0.168 C 
HETATM   35  C   UNL     1      -4.241  -4.002 -33.736  1.00  0.00     0.029 C 
HETATM   36  C   UNL     1      -4.313  -2.663 -34.429  1.00  0.00     0.036 C 
ENDBRANCH  31  32
ENDBRANCH   5  31
TORSDOF 6
ENDMDL
MODEL 3
REMARK VINA RESULT:      -9.2      3.631      7.773
REMARK  6 active torsions:
REMARK  status: ('A' for Active; 'I' for Inactive)
REMARK    1  A    between atoms: C_3  and  C_4 
REMARK    2  A    between atoms: C_4  and  C_5 
REMARK    3  A    between atoms: N_8  and  C_10 
REMARK    4  A    between atoms: C_10  and  C_11 
REMARK    5  A    between atoms: N_24  and  C_25 
REMARK    6  A    between atoms: C_25  and  C_26 
ROOT
HETATM    1  C   UNL     1      -5.042  -0.610 -32.961  1.00  0.00     0.164 C 
HETATM    2  N   UNL     1      -5.801  -0.444 -31.735  1.00  0.00    -0.319 N 
HETATM    3  C   UNL     1      -5.431   0.668 -31.016  1.00  0.00     0.326 C 
HETATM    4  O   UNL     1      -6.063   1.106 -30.073  1.00  0.00    -0.247 OA
HETATM    5  N   UNL     1      -4.332   1.210 -31.609  1.00  0.00    -0.265 N 
HETATM    6  C   UNL     1      -3.986   0.483 -32.711  1.00  0.00     0.263 C 
HETATM    7  O   UNL     1      -3.029   0.731 -33.435  1.00  0.00    -0.270 OA
HETATM    8  H   UNL     1      -6.583  -1.024 -31.449  1.00  0.00     0.166 HD
ENDROOT
BRANCH   1   9
HETATM    9  C   UNL     1      -4.438  -2.014 -33.025  1.00  0.00     0.072 A 
HETATM   10  C   UNL     1      -4.647  -2.867 -34.113  1.00  0.00     0.030 A 
HETATM   11  C   UNL     1      -4.050  -4.127 -34.118  1.00  0.00     0.003 A 
HETATM   12  C   UNL     1      -3.238  -4.505 -33.058  1.00  0.00     0.019 A 
HETATM   13  C   UNL     1      -3.050  -3.601 -32.032  1.00  0.00     0.117 A 
HETATM   14  N   UNL     1      -3.625  -2.376 -31.995  1.00  0.00    -0.262 NA
ENDBRANCH   1   9
BRANCH   1  15
HETATM   15  C   UNL     1      -5.974  -0.276 -34.199  1.00  0.00     0.033 C 
HETATM   16  C   UNL     1      -6.301   1.215 -34.411  1.00  0.00     0.036 C 
HETATM   17  C   UNL     1      -7.494   1.763 -33.638  1.00  0.00     0.235 C 
HETATM   18  N   UNL     1      -8.700   0.863 -33.753  1.00  0.00    -0.067 N 
HETATM   19  H   UNL     1      -9.048   0.943 -34.719  1.00  0.00     0.280 HD
HETATM   20  C   UNL     1      -8.425  -0.591 -33.488  1.00  0.00     0.235 C 
HETATM   21  C   UNL     1      -7.276  -1.090 -34.340  1.00  0.00     0.036 C 
BRANCH  18  22
HETATM   22  C   UNL     1      -9.842   1.326 -32.850  1.00  0.00     0.278 C 
BRANCH  22  23
HETATM   23  C   UNL     1     -11.186   1.447 -33.501  1.00  0.00     0.028 A 
HETATM   24  C   UNL     1     -11.629   2.615 -34.131  1.00  0.00     0.045 A 
HETATM   25 CL   UNL     1     -10.653   4.039 -34.148  1.00  0.00    -0.084 Cl
HETATM   26  C   UNL     1     -12.884   2.661 -34.747  1.00  0.00     0.024 A 
HETATM   27  C   UNL     1     -13.711   1.536 -34.741  1.00  0.00     0.005 A 
HETATM   28  C   UNL     1     -13.284   0.369 -34.116  1.00  0.00     0.043 A 
HETATM   29  C   UNL     1     -12.034   0.334 -33.509  1.00  0.00     0.126 A 
HETATM   30  F   UNL     1     -11.641  -0.796 -32.906  1.00  0.00    -0.205 F 
ENDBRANCH  22  23
ENDBRANCH  18  22
ENDBRANCH   1  15
BRANCH   5  31
HETATM   31  C   UNL     1      -3.610   2.381 -31.130  1.00  0.00     0.168 C 
BRANCH  31  32
HETATM   32  C   UNL     1      -3.714   3.571 -32.099  1.00  0.00     0.140 C 
HETATM   33  O   UNL     1      -2.927   4.659 -31.593  1.00  0.00    -0.384 OA
HETATM   34  C   UNL     1      -3.779   5.529 -30.826  1.00  0.00     0.168 C 
HETATM   35  C   UNL     1      -5.202   5.021 -30.972  1.00  0.00     0.029 C 
HETATM   36  C   UNL     1      -5.123   4.132 -32.189  1.00  0.00     0.036 C 
ENDBRANCH  31  32
ENDBRANCH   5  31
TORSDOF 6
ENDMDL
MODEL 4
REMARK VINA RESULT:      -9.1      3.173      7.667
REMARK  6 active torsions:
REMARK  status: ('A' for Active; 'I' for Inactive)
REMARK    1  A    between atoms: C_3  and  C_4 
REMARK    2  A    between atoms: C_4  and  C_5 
REMARK    3  A    between atoms: N_8  and  C_10 
REMARK    4  A    between atoms: C_10  and  C_11 
REMARK    5  A    between atoms: N_24  and  C_25 
REMARK    6  A    between atoms: C_25  and  C_26 
ROOT
HETATM    1  C   UNL     1      -7.940   3.224 -31.907  1.00  0.00     0.164 C 
HETATM    2  N   UNL     1      -7.546   3.184 -33.303  1.00  0.00    -0.319 N 
HETATM    3  C   UNL     1      -6.342   3.803 -33.544  1.00  0.00     0.326 C 
HETATM    4  O   UNL     1      -5.733   3.713 -34.593  1.00  0.00    -0.247 OA
HETATM    5  N   UNL     1      -5.944   4.416 -32.396  1.00  0.00    -0.265 N 
HETATM    6  C   UNL     1      -6.856   4.197 -31.404  1.00  0.00     0.263 C 
HETATM    7  O   UNL     1      -6.764   4.637 -30.265  1.00  0.00    -0.270 OA
HETATM    8  H   UNL     1      -8.045   2.690 -34.036  1.00  0.00     0.166 HD
ENDROOT
BRANCH   1   9
HETATM    9  C   UNL     1      -9.354   3.792 -31.770  1.00  0.00     0.072 A 
HETATM   10  C   UNL     1      -9.984   4.484 -32.809  1.00  0.00     0.030 A 
HETATM   11  C   UNL     1     -11.282   4.957 -32.626  1.00  0.00     0.003 A 
HETATM   12  C   UNL     1     -11.938   4.715 -31.427  1.00  0.00     0.019 A 
HETATM   13  C   UNL     1     -11.267   3.999 -30.456  1.00  0.00     0.117 A 
HETATM   14  N   UNL     1     -10.004   3.536 -30.602  1.00  0.00    -0.262 NA
ENDBRANCH   1   9
BRANCH   1  15
HETATM   15  C   UNL     1      -7.788   1.776 -31.281  1.00  0.00     0.033 C 
HETATM   16  C   UNL     1      -6.390   1.422 -30.736  1.00  0.00     0.036 C 
HETATM   17  C   UNL     1      -5.394   0.860 -31.742  1.00  0.00     0.235 C 
HETATM   18  N   UNL     1      -6.002  -0.234 -32.585  1.00  0.00    -0.067 N 
HETATM   19  H   UNL     1      -6.134  -1.052 -31.972  1.00  0.00     0.280 HD
HETATM   20  C   UNL     1      -7.338   0.105 -33.184  1.00  0.00     0.235 C 
HETATM   21  C   UNL     1      -8.302   0.589 -32.120  1.00  0.00     0.036 C 
BRANCH  18  22
HETATM   22  C   UNL     1      -5.057  -0.685 -33.698  1.00  0.00     0.278 C 
BRANCH  22  23
HETATM   23  C   UNL     1      -4.691  -2.137 -33.699  1.00  0.00     0.028 A 
HETATM   24  C   UNL     1      -3.694  -2.677 -32.877  1.00  0.00     0.045 A 
HETATM   25 CL   UNL     1      -2.767  -1.666 -31.828  1.00  0.00    -0.084 Cl
HETATM   26  C   UNL     1      -3.414  -4.046 -32.902  1.00  0.00     0.024 A 
HETATM   27  C   UNL     1      -4.130  -4.895 -33.748  1.00  0.00     0.005 A 
HETATM   28  C   UNL     1      -5.122  -4.373 -34.572  1.00  0.00     0.043 A 
HETATM   29  C   UNL     1      -5.393  -3.010 -34.538  1.00  0.00     0.126 A 
HETATM   30  F   UNL     1      -6.347  -2.522 -35.342  1.00  0.00    -0.205 F 
ENDBRANCH  22  23
ENDBRANCH  18  22
ENDBRANCH   1  15
BRANCH   5  31
HETATM   31  C   UNL     1      -4.734   5.212 -32.245  1.00  0.00     0.168 C 
BRANCH  31  32
HETATM   32  C   UNL     1      -3.560   4.394 -31.680  1.00  0.00     0.140 C 
HETATM   33  O   UNL     1      -2.610   5.288 -31.080  1.00  0.00    -0.384 OA
HETATM   34  C   UNL     1      -1.597   5.605 -32.051  1.00  0.00     0.168 C 
HETATM   35  C   UNL     1      -1.863   4.759 -33.283  1.00  0.00     0.029 C 
HETATM   36  C   UNL     1      -2.773   3.675 -32.761  1.00  0.00     0.036 C 
ENDBRANCH  31  32
ENDBRANCH   5  31
TORSDOF 6
ENDMDL
MODEL 5
REMARK VINA RESULT:      -8.8      1.472      1.996
REMARK  6 active torsions:
REMARK  status: ('A' for Active; 'I' for Inactive)
REMARK    1  A    between atoms: C_3  and  C_4 
REMARK    2  A    between atoms: C_4  and  C_5 
REMARK    3  A    between atoms: N_8  and  C_10 
REMARK    4  A    between atoms: C_10  and  C_11 
REMARK    5  A    between atoms: N_24  and  C_25 
REMARK    6  A    between atoms: C_25  and  C_26 
ROOT
HETATM    1  C   UNL     1      -5.979   1.796 -32.755  1.00  0.00     0.164 C 
HETATM    2  N   UNL     1      -5.686   2.824 -33.737  1.00  0.00    -0.319 N 
HETATM    3  C   UNL     1      -6.581   3.867 -33.713  1.00  0.00     0.326 C 
HETATM    4  O   UNL     1      -6.413   4.917 -34.303  1.00  0.00    -0.247 OA
HETATM    5  N   UNL     1      -7.588   3.542 -32.855  1.00  0.00    -0.265 N 
HETATM    6  C   UNL     1      -7.360   2.313 -32.306  1.00  0.00     0.263 C 
HETATM    7  O   UNL     1      -8.105   1.759 -31.508  1.00  0.00    -0.270 OA
HETATM    8  H   UNL     1      -4.869   2.840 -34.338  1.00  0.00     0.166 HD
ENDROOT
BRANCH   1   9
HETATM    9  C   UNL     1      -6.050   0.424 -33.427  1.00  0.00     0.072 A 
HETATM   10  C   UNL     1      -6.961   0.141 -34.449  1.00  0.00     0.030 A 
HETATM   11  C   UNL     1      -6.959  -1.125 -35.035  1.00  0.00     0.003 A 
HETATM   12  C   UNL     1      -6.040  -2.075 -34.612  1.00  0.00     0.019 A 
HETATM   13  C   UNL     1      -5.150  -1.717 -33.619  1.00  0.00     0.117 A 
HETATM   14  N   UNL     1      -5.135  -0.500 -33.026  1.00  0.00    -0.262 NA
ENDBRANCH   1   9
BRANCH   1  15
HETATM   15  C   UNL     1      -4.903   1.865 -31.593  1.00  0.00     0.033 C 
HETATM   16  C   UNL     1      -5.241   2.804 -30.418  1.00  0.00     0.036 C 
HETATM   17  C   UNL     1      -4.843   4.265 -30.583  1.00  0.00     0.235 C 
HETATM   18  N   UNL     1      -3.424   4.409 -31.075  1.00  0.00    -0.067 N 
HETATM   19  H   UNL     1      -2.804   4.130 -30.300  1.00  0.00     0.280 HD
HETATM   20  C   UNL     1      -3.082   3.552 -32.261  1.00  0.00     0.235 C 
HETATM   21  C   UNL     1      -3.437   2.102 -32.004  1.00  0.00     0.036 C 
BRANCH  18  22
HETATM   22  C   UNL     1      -3.078   5.863 -31.394  1.00  0.00     0.278 C 
BRANCH  22  23
HETATM   23  C   UNL     1      -1.846   6.404 -30.735  1.00  0.00     0.028 A 
HETATM   24  C   UNL     1      -1.847   6.964 -29.453  1.00  0.00     0.045 A 
HETATM   25 CL   UNL     1      -3.313   7.119 -28.553  1.00  0.00    -0.084 Cl
HETATM   26  C   UNL     1      -0.661   7.429 -28.878  1.00  0.00     0.024 A 
HETATM   27  C   UNL     1       0.544   7.336 -29.579  1.00  0.00     0.005 A 
HETATM   28  C   UNL     1       0.559   6.785 -30.856  1.00  0.00     0.043 A 
HETATM   29  C   UNL     1      -0.627   6.324 -31.417  1.00  0.00     0.126 A 
HETATM   30  F   UNL     1      -0.596   5.800 -32.650  1.00  0.00    -0.205 F 
ENDBRANCH  22  23
ENDBRANCH  18  22
ENDBRANCH   1  15
BRANCH   5  31
HETATM   31  C   UNL     1      -8.754   4.368 -32.577  1.00  0.00     0.168 C 
BRANCH  31  32
HETATM   32  C   UNL     1      -8.385   5.687 -31.877  1.00  0.00     0.140 C 
HETATM   33  O   UNL     1      -8.016   5.410 -30.518  1.00  0.00    -0.384 OA
HETATM   34  C   UNL     1      -9.174   5.579 -29.681  1.00  0.00     0.168 C 
HETATM   35  C   UNL     1     -10.294   6.116 -30.553  1.00  0.00     0.029 C 
HETATM   36  C   UNL     1      -9.562   6.640 -31.764  1.00  0.00     0.036 C 
ENDBRANCH  31  32
ENDBRANCH   5  31
TORSDOF 6
ENDMDL
MODEL 6
REMARK VINA RESULT:      -8.6     17.078     19.055
REMARK  6 active torsions:
REMARK  status: ('A' for Active; 'I' for Inactive)
REMARK    1  A    between atoms: C_3  and  C_4 
REMARK    2  A    between atoms: C_4  and  C_5 
REMARK    3  A    between atoms: N_8  and  C_10 
REMARK    4  A    between atoms: C_10  and  C_11 
REMARK    5  A    between atoms: N_24  and  C_25 
REMARK    6  A    between atoms: C_25  and  C_26 
ROOT
HETATM    1  C   UNL     1      -7.026 -14.086 -39.275  1.00  0.00     0.164 C 
HETATM    2  N   UNL     1      -6.160 -12.929 -39.140  1.00  0.00    -0.319 N 
HETATM    3  C   UNL     1      -5.509 -12.880 -37.930  1.00  0.00     0.326 C 
HETATM    4  O   UNL     1      -4.593 -12.117 -37.684  1.00  0.00    -0.247 OA
HETATM    5  N   UNL     1      -6.001 -13.876 -37.143  1.00  0.00    -0.265 N 
HETATM    6  C   UNL     1      -6.950 -14.585 -37.820  1.00  0.00     0.263 C 
HETATM    7  O   UNL     1      -7.573 -15.533 -37.356  1.00  0.00    -0.270 OA
HETATM    8  H   UNL     1      -5.970 -12.253 -39.872  1.00  0.00     0.166 HD
ENDROOT
BRANCH   1   9
HETATM    9  C   UNL     1      -8.436 -13.649 -39.679  1.00  0.00     0.072 A 
HETATM   10  C   UNL     1      -8.815 -12.305 -39.726  1.00  0.00     0.030 A 
HETATM   11  C   UNL     1     -10.109 -11.974 -40.123  1.00  0.00     0.003 A 
HETATM   12  C   UNL     1     -10.993 -12.979 -40.488  1.00  0.00     0.019 A 
HETATM   13  C   UNL     1     -10.542 -14.284 -40.447  1.00  0.00     0.117 A 
HETATM   14  N   UNL     1      -9.295 -14.635 -40.056  1.00  0.00    -0.262 NA
ENDBRANCH   1   9
BRANCH   1  15
HETATM   15  C   UNL     1      -6.374 -15.107 -40.297  1.00  0.00     0.033 C 
HETATM   16  C   UNL     1      -5.241 -15.989 -39.737  1.00  0.00     0.036 C 
HETATM   17  C   UNL     1      -3.840 -15.392 -39.770  1.00  0.00     0.235 C 
HETATM   18  N   UNL     1      -3.518 -14.786 -41.114  1.00  0.00    -0.067 N 
HETATM   19  H   UNL     1      -3.407 -15.565 -41.780  1.00  0.00     0.280 HD
HETATM   20  C   UNL     1      -4.578 -13.870 -41.659  1.00  0.00     0.235 C 
HETATM   21  C   UNL     1      -5.932 -14.550 -41.665  1.00  0.00     0.036 C 
BRANCH  18  22
HETATM   22  C   UNL     1      -2.181 -14.047 -41.099  1.00  0.00     0.278 C 
BRANCH  22  23
HETATM   23  C   UNL     1      -1.133 -14.607 -40.186  1.00  0.00     0.028 A 
HETATM   24  C   UNL     1      -0.712 -13.963 -39.017  1.00  0.00     0.045 A 
HETATM   25 CL   UNL     1      -1.351 -12.421 -38.575  1.00  0.00    -0.084 Cl
HETATM   26  C   UNL     1       0.252 -14.547 -38.189  1.00  0.00     0.024 A 
HETATM   27  C   UNL     1       0.805 -15.786 -38.520  1.00  0.00     0.005 A 
HETATM   28  C   UNL     1       0.399 -16.436 -39.681  1.00  0.00     0.043 A 
HETATM   29  C   UNL     1      -0.562 -15.847 -40.495  1.00  0.00     0.126 A 
HETATM   30  F   UNL     1      -0.939 -16.483 -41.612  1.00  0.00    -0.205 F 
ENDBRANCH  22  23
ENDBRANCH  18  22
ENDBRANCH   1  15
BRANCH   5  31
HETATM   31  C   UNL     1      -5.598 -14.137 -35.768  1.00  0.00     0.168 C 
BRANCH  31  32
HETATM   32  C   UNL     1      -6.628 -13.624 -34.748  1.00  0.00     0.140 C 
HETATM   33  O   UNL     1      -5.983 -12.712 -33.846  1.00  0.00    -0.384 OA
HETATM   34  C   UNL     1      -5.559 -13.439 -32.679  1.00  0.00     0.168 C 
HETATM   35  C   UNL     1      -6.084 -14.857 -32.806  1.00  0.00     0.029 C 
HETATM   36  C   UNL     1      -7.164 -14.727 -33.851  1.00  0.00     0.036 C 
ENDBRANCH  31  32
ENDBRANCH   5  31
TORSDOF 6
ENDMDL
MODEL 7
REMARK VINA RESULT:      -8.6      1.812      4.727
REMARK  6 active torsions:
REMARK  status: ('A' for Active; 'I' for Inactive)
REMARK    1  A    between atoms: C_3  and  C_4 
REMARK    2  A    between atoms: C_4  and  C_5 
REMARK    3  A    between atoms: N_8  and  C_10 
REMARK    4  A    between atoms: C_10  and  C_11 
REMARK    5  A    between atoms: N_24  and  C_25 
REMARK    6  A    between atoms: C_25  and  C_26 
ROOT
HETATM    1  C   UNL     1      -7.993   2.231 -33.322  1.00  0.00     0.164 C 
HETATM    2  N   UNL     1      -7.703   1.774 -31.975  1.00  0.00    -0.319 N 
HETATM    3  C   UNL     1      -6.651   0.889 -31.919  1.00  0.00     0.326 C 
HETATM    4  O   UNL     1      -6.115   0.541 -30.884  1.00  0.00    -0.247 OA
HETATM    5  N   UNL     1      -6.286   0.583 -33.194  1.00  0.00    -0.265 N 
HETATM    6  C   UNL     1      -7.068   1.261 -34.083  1.00  0.00     0.263 C 
HETATM    7  O   UNL     1      -6.973   1.172 -35.302  1.00  0.00    -0.270 OA
HETATM    8  H   UNL     1      -8.156   2.114 -31.134  1.00  0.00     0.166 HD
ENDROOT
BRANCH   1   9
HETATM    9  C   UNL     1      -9.472   2.017 -33.648  1.00  0.00     0.072 A 
HETATM   10  C   UNL     1     -10.188   2.890 -34.472  1.00  0.00     0.030 A 
HETATM   11  C   UNL     1     -11.529   2.625 -34.746  1.00  0.00     0.003 A 
HETATM   12  C   UNL     1     -12.126   1.488 -34.220  1.00  0.00     0.019 A 
HETATM   13  C   UNL     1     -11.351   0.654 -33.439  1.00  0.00     0.117 A 
HETATM   14  N   UNL     1     -10.051   0.891 -33.148  1.00  0.00    -0.262 NA
ENDBRANCH   1   9
BRANCH   1  15
HETATM   15  C   UNL     1      -7.535   3.741 -33.470  1.00  0.00     0.033 C 
HETATM   16  C   UNL     1      -6.184   3.968 -34.175  1.00  0.00     0.036 C 
HETATM   17  C   UNL     1      -4.941   3.901 -33.296  1.00  0.00     0.235 C 
HETATM   18  N   UNL     1      -5.101   4.712 -32.033  1.00  0.00    -0.067 N 
HETATM   19  H   UNL     1      -5.086   5.705 -32.306  1.00  0.00     0.280 HD
HETATM   20  C   UNL     1      -6.383   4.465 -31.288  1.00  0.00     0.235 C 
HETATM   21  C   UNL     1      -7.581   4.618 -32.203  1.00  0.00     0.036 C 
BRANCH  18  22
HETATM   22  C   UNL     1      -3.924   4.515 -31.080  1.00  0.00     0.278 C 
BRANCH  22  23
HETATM   23  C   UNL     1      -2.808   5.507 -31.201  1.00  0.00     0.028 A 
HETATM   24  C   UNL     1      -2.777   6.715 -30.496  1.00  0.00     0.045 A 
HETATM   25 CL   UNL     1      -4.082   7.171 -29.460  1.00  0.00    -0.084 Cl
HETATM   26  C   UNL     1      -1.696   7.591 -30.628  1.00  0.00     0.024 A 
HETATM   27  C   UNL     1      -0.628   7.267 -31.469  1.00  0.00     0.005 A 
HETATM   28  C   UNL     1      -0.647   6.071 -32.178  1.00  0.00     0.043 A 
HETATM   29  C   UNL     1      -1.727   5.207 -32.037  1.00  0.00     0.126 A 
HETATM   30  F   UNL     1      -1.732   4.061 -32.732  1.00  0.00    -0.205 F 
ENDBRANCH  22  23
ENDBRANCH  18  22
ENDBRANCH   1  15
BRANCH   5  31
HETATM   31  C   UNL     1      -5.233  -0.352 -33.564  1.00  0.00     0.168 C 
BRANCH  31  32
HETATM   32  C   UNL     1      -5.589  -1.806 -33.210  1.00  0.00     0.140 C 
HETATM   33  O   UNL     1      -4.392  -2.599 -33.222  1.00  0.00    -0.384 OA
HETATM   34  C   UNL     1      -4.256  -3.210 -34.518  1.00  0.00     0.168 C 
HETATM   35  C   UNL     1      -5.506  -2.881 -35.313  1.00  0.00     0.029 C 
HETATM   36  C   UNL     1      -6.487  -2.459 -34.247  1.00  0.00     0.036 C 
ENDBRANCH  31  32
ENDBRANCH   5  31
TORSDOF 6
ENDMDL
MODEL 8
REMARK VINA RESULT:      -8.6      3.287      7.148
REMARK  6 active torsions:
REMARK  status: ('A' for Active; 'I' for Inactive)
REMARK    1  A    between atoms: C_3  and  C_4 
REMARK    2  A    between atoms: C_4  and  C_5 
REMARK    3  A    between atoms: N_8  and  C_10 
REMARK    4  A    between atoms: C_10  and  C_11 
REMARK    5  A    between atoms: N_24  and  C_25 
REMARK    6  A    between atoms: C_25  and  C_26 
ROOT
HETATM    1  C   UNL     1      -6.958  -0.004 -32.819  1.00  0.00     0.164 C 
HETATM    2  N   UNL     1      -6.787   0.014 -31.378  1.00  0.00    -0.319 N 
HETATM    3  C   UNL     1      -6.344   1.226 -30.901  1.00  0.00     0.326 C 
HETATM    4  O   UNL     1      -6.326   1.524 -29.722  1.00  0.00    -0.247 OA
HETATM    5  N   UNL     1      -6.046   2.018 -31.968  1.00  0.00    -0.265 N 
HETATM    6  C   UNL     1      -6.300   1.354 -33.133  1.00  0.00     0.263 C 
HETATM    7  O   UNL     1      -6.115   1.816 -34.252  1.00  0.00    -0.270 OA
HETATM    8  H   UNL     1      -7.035  -0.744 -30.751  1.00  0.00     0.166 HD
ENDROOT
BRANCH   1   9
HETATM    9  C   UNL     1      -6.199  -1.184 -33.429  1.00  0.00     0.072 A 
HETATM   10  C   UNL     1      -6.794  -2.065 -34.337  1.00  0.00     0.030 A 
HETATM   11  C   UNL     1      -6.039  -3.108 -34.871  1.00  0.00     0.003 A 
HETATM   12  C   UNL     1      -4.705  -3.243 -34.515  1.00  0.00     0.019 A 
HETATM   13  C   UNL     1      -4.174  -2.319 -33.637  1.00  0.00     0.117 A 
HETATM   14  N   UNL     1      -4.885  -1.303 -33.094  1.00  0.00    -0.262 NA
ENDBRANCH   1   9
BRANCH   1  15
HETATM   15  C   UNL     1      -8.505  -0.017 -33.159  1.00  0.00     0.033 C 
HETATM   16  C   UNL     1      -8.925   0.775 -34.413  1.00  0.00     0.036 C 
HETATM   17  C   UNL     1      -9.199   2.260 -34.215  1.00  0.00     0.235 C 
HETATM   18  N   UNL     1     -10.088   2.514 -33.022  1.00  0.00    -0.067 N 
HETATM   19  H   UNL     1     -11.030   2.179 -33.268  1.00  0.00     0.280 HD
HETATM   20  C   UNL     1      -9.667   1.804 -31.765  1.00  0.00     0.235 C 
HETATM   21  C   UNL     1      -9.481   0.322 -32.015  1.00  0.00     0.036 C 
BRANCH  18  22
HETATM   22  C   UNL     1     -10.230   4.006 -32.727  1.00  0.00     0.278 C 
BRANCH  22  23
HETATM   23  C   UNL     1     -10.995   4.804 -33.738  1.00  0.00     0.028 A 
HETATM   24  C   UNL     1     -12.382   4.708 -33.900  1.00  0.00     0.045 A 
HETATM   25 CL   UNL     1     -13.309   3.596 -32.959  1.00  0.00    -0.084 Cl
HETATM   26  C   UNL     1     -13.046   5.498 -34.843  1.00  0.00     0.024 A 
HETATM   27  C   UNL     1     -12.330   6.398 -35.635  1.00  0.00     0.005 A 
HETATM   28  C   UNL     1     -10.951   6.503 -35.487  1.00  0.00     0.043 A 
HETATM   29  C   UNL     1     -10.302   5.713 -34.545  1.00  0.00     0.126 A 
HETATM   30  F   UNL     1      -8.972   5.822 -34.419  1.00  0.00    -0.205 F 
ENDBRANCH  22  23
ENDBRANCH  18  22
ENDBRANCH   1  15
BRANCH   5  31
HETATM   31  C   UNL     1      -5.510   3.369 -31.887  1.00  0.00     0.168 C 
BRANCH  31  32
HETATM   32  C   UNL     1      -4.069   3.397 -31.351  1.00  0.00     0.140 C 
HETATM   33  O   UNL     1      -3.701   4.753 -31.059  1.00  0.00    -0.384 OA
HETATM   34  C   UNL     1      -3.023   5.305 -32.202  1.00  0.00     0.168 C 
HETATM   35  C   UNL     1      -2.845   4.186 -33.212  1.00  0.00     0.029 C 
HETATM   36  C   UNL     1      -3.051   2.943 -32.383  1.00  0.00     0.036 C 
ENDBRANCH  31  32
ENDBRANCH   5  31
TORSDOF 6
ENDMDL
MODEL 9
REMARK VINA RESULT:      -8.4      3.729      8.531
REMARK  6 active torsions:
REMARK  status: ('A' for Active; 'I' for Inactive)
REMARK    1  A    between atoms: C_3  and  C_4 
REMARK    2  A    between atoms: C_4  and  C_5 
REMARK    3  A    between atoms: N_8  and  C_10 
REMARK    4  A    between atoms: C_10  and  C_11 
REMARK    5  A    between atoms: N_24  and  C_25 
REMARK    6  A    between atoms: C_25  and  C_26 
ROOT
HETATM    1  C   UNL     1      -6.319   3.844 -31.323  1.00  0.00     0.164 C 
HETATM    2  N   UNL     1      -5.735   4.404 -30.118  1.00  0.00    -0.319 N 
HETATM    3  C   UNL     1      -4.848   5.424 -30.371  1.00  0.00     0.326 C 
HETATM    4  O   UNL     1      -4.401   6.161 -29.512  1.00  0.00    -0.247 OA
HETATM    5  N   UNL     1      -4.666   5.504 -31.718  1.00  0.00    -0.265 N 
HETATM    6  C   UNL     1      -5.428   4.566 -32.352  1.00  0.00     0.263 C 
HETATM    7  O   UNL     1      -5.457   4.398 -33.565  1.00  0.00    -0.270 OA
HETATM    8  H   UNL     1      -5.992   4.147 -29.171  1.00  0.00     0.166 HD
ENDROOT
BRANCH   1   9
HETATM    9  C   UNL     1      -6.139   2.325 -31.345  1.00  0.00     0.072 A 
HETATM   10  C   UNL     1      -6.015   1.572 -30.174  1.00  0.00     0.030 A 
HETATM   11  C   UNL     1      -5.874   0.188 -30.264  1.00  0.00     0.003 A 
HETATM   12  C   UNL     1      -5.883  -0.423 -31.509  1.00  0.00     0.019 A 
HETATM   13  C   UNL     1      -6.040   0.379 -32.622  1.00  0.00     0.117 A 
HETATM   14  N   UNL     1      -6.168   1.725 -32.566  1.00  0.00    -0.262 NA
ENDBRANCH   1   9
BRANCH   1  15
HETATM   15  C   UNL     1      -7.836   4.292 -31.422  1.00  0.00     0.033 C 
HETATM   16  C   UNL     1      -8.861   3.347 -30.763  1.00  0.00     0.036 C 
HETATM   17  C   UNL     1      -9.367   2.194 -31.620  1.00  0.00     0.235 C 
HETATM   18  N   UNL     1      -9.778   2.655 -32.997  1.00  0.00    -0.067 N 
HETATM   19  H   UNL     1     -10.643   3.204 -32.888  1.00  0.00     0.280 HD
HETATM   20  C   UNL     1      -8.771   3.528 -33.692  1.00  0.00     0.235 C 
HETATM   21  C   UNL     1      -8.364   4.693 -32.814  1.00  0.00     0.036 C 
BRANCH  18  22
HETATM   22  C   UNL     1     -10.132   1.480 -33.907  1.00  0.00     0.278 C 
BRANCH  22  23
HETATM   23  C   UNL     1     -11.587   1.139 -34.002  1.00  0.00     0.028 A 
HETATM   24  C   UNL     1     -12.516   1.930 -34.689  1.00  0.00     0.045 A 
HETATM   25 CL   UNL     1     -12.038   3.410 -35.438  1.00  0.00    -0.084 Cl
HETATM   26  C   UNL     1     -13.859   1.548 -34.767  1.00  0.00     0.024 A 
HETATM   27  C   UNL     1     -14.289   0.365 -34.160  1.00  0.00     0.005 A 
HETATM   28  C   UNL     1     -13.377  -0.429 -33.473  1.00  0.00     0.043 A 
HETATM   29  C   UNL     1     -12.045  -0.040 -33.403  1.00  0.00     0.126 A 
HETATM   30  F   UNL     1     -11.181  -0.813 -32.732  1.00  0.00    -0.205 F 
ENDBRANCH  22  23
ENDBRANCH  18  22
ENDBRANCH   1  15
BRANCH   5  31
HETATM   31  C   UNL     1      -3.771   6.435 -32.391  1.00  0.00     0.168 C 
BRANCH  31  32
HETATM   32  C   UNL     1      -2.292   6.041 -32.236  1.00  0.00     0.140 C 
HETATM   33  O   UNL     1      -1.473   7.030 -32.877  1.00  0.00    -0.384 OA
HETATM   34  C   UNL     1      -1.190   6.597 -34.219  1.00  0.00     0.168 C 
HETATM   35  C   UNL     1      -1.759   5.200 -34.379  1.00  0.00     0.029 C 
HETATM   36  C   UNL     1      -1.952   4.746 -32.954  1.00  0.00     0.036 C 
ENDBRANCH  31  32
ENDBRANCH   5  31
TORSDOF 6
ENDMDL
MODEL 10
REMARK VINA RESULT:      -8.4      3.704      8.587
REMARK  6 active torsions:
REMARK  status: ('A' for Active; 'I' for Inactive)
REMARK    1  A    between atoms: C_3  and  C_4 
REMARK    2  A    between atoms: C_4  and  C_5 
REMARK    3  A    between atoms: N_8  and  C_10 
REMARK    4  A    between atoms: C_10  and  C_11 
REMARK    5  A    between atoms: N_24  and  C_25 
REMARK    6  A    between atoms: C_25  and  C_26 
ROOT
HETATM    1  C   UNL     1      -6.506   2.915 -32.354  1.00  0.00     0.164 C 
HETATM    2  N   UNL     1      -6.968   2.506 -33.668  1.00  0.00    -0.319 N 
HETATM    3  C   UNL     1      -6.846   1.154 -33.887  1.00  0.00     0.326 C 
HETATM    4  O   UNL     1      -7.351   0.573 -34.829  1.00  0.00    -0.247 OA
HETATM    5  N   UNL     1      -6.170   0.613 -32.836  1.00  0.00    -0.265 N 
HETATM    6  C   UNL     1      -5.862   1.582 -31.926  1.00  0.00     0.263 C 
HETATM    7  O   UNL     1      -5.246   1.388 -30.885  1.00  0.00    -0.270 OA
HETATM    8  H   UNL     1      -7.413   3.116 -34.345  1.00  0.00     0.166 HD
ENDROOT
BRANCH   1   9
HETATM    9  C   UNL     1      -5.489   4.051 -32.479  1.00  0.00     0.072 A 
HETATM   10  C   UNL     1      -5.123   4.592 -33.715  1.00  0.00     0.030 A 
HETATM   11  C   UNL     1      -4.206   5.641 -33.756  1.00  0.00     0.003 A 
HETATM   12  C   UNL     1      -3.689   6.148 -32.573  1.00  0.00     0.019 A 
HETATM   13  C   UNL     1      -4.118   5.587 -31.387  1.00  0.00     0.117 A 
HETATM   14  N   UNL     1      -4.999   4.562 -31.316  1.00  0.00    -0.262 NA
ENDBRANCH   1   9
BRANCH   1  15
HETATM   15  C   UNL     1      -7.756   3.295 -31.458  1.00  0.00     0.033 C 
HETATM   16  C   UNL     1      -8.826   2.197 -31.295  1.00  0.00     0.036 C 
HETATM   17  C   UNL     1      -9.894   2.126 -32.379  1.00  0.00     0.235 C 
HETATM   18  N   UNL     1     -10.474   3.484 -32.687  1.00  0.00    -0.067 N 
HETATM   19  H   UNL     1     -11.046   3.762 -31.876  1.00  0.00     0.280 HD
HETATM   20  C   UNL     1      -9.453   4.565 -32.914  1.00  0.00     0.235 C 
HETATM   21  C   UNL     1      -8.466   4.628 -31.767  1.00  0.00     0.036 C 
BRANCH  18  22
HETATM   22  C   UNL     1     -11.424   3.438 -33.882  1.00  0.00     0.278 C 
BRANCH  22  23
HETATM   23  C   UNL     1     -12.694   2.669 -33.681  1.00  0.00     0.028 A 
HETATM   24  C   UNL     1     -13.617   2.966 -32.671  1.00  0.00     0.045 A 
HETATM   25 CL   UNL     1     -13.313   4.232 -31.536  1.00  0.00    -0.084 Cl
HETATM   26  C   UNL     1     -14.800   2.231 -32.547  1.00  0.00     0.024 A 
HETATM   27  C   UNL     1     -15.075   1.189 -33.436  1.00  0.00     0.005 A 
HETATM   28  C   UNL     1     -14.166   0.881 -34.442  1.00  0.00     0.043 A 
HETATM   29  C   UNL     1     -12.995   1.620 -34.556  1.00  0.00     0.126 A 
HETATM   30  F   UNL     1     -12.126   1.307 -35.528  1.00  0.00    -0.205 F 
ENDBRANCH  22  23
ENDBRANCH  18  22
ENDBRANCH   1  15
BRANCH   5  31
HETATM   31  C   UNL     1      -5.804  -0.790 -32.706  1.00  0.00     0.168 C 
BRANCH  31  32
HETATM   32  C   UNL     1      -4.528  -1.137 -33.491  1.00  0.00     0.140 C 
HETATM   33  O   UNL     1      -4.195  -2.515 -33.262  1.00  0.00    -0.384 OA
HETATM   34  C   UNL     1      -3.250  -2.588 -32.180  1.00  0.00     0.168 C 
HETATM   35  C   UNL     1      -2.877  -1.166 -31.801  1.00  0.00     0.029 C 
HETATM   36  C   UNL     1      -3.312  -0.368 -33.005  1.00  0.00     0.036 C 
ENDBRANCH  31  32
ENDBRANCH   5  31
TORSDOF 6
ENDMDL
