MODEL 1
REMARK VINA RESULT:      -7.5      0.000      0.000
REMARK  4 active torsions:
REMARK  status: ('A' for Active; 'I' for Inactive)
REMARK    1  A    between atoms: S_2  and  N_3 
REMARK    2  A    between atoms: N_3  and  N_4 
REMARK    3  A    between atoms: C_10  and  C_11 
REMARK    4  A    between atoms: C_12  and  O_13 
ROOT
HETATM    1  N   UNL     1      -5.831   3.316 -32.320  1.00  0.00    -0.241 N 
HETATM    2  C   UNL     1      -5.945   2.068 -32.906  1.00  0.00     0.272 C 
HETATM    3  O   UNL     1      -6.962   1.716 -33.503  1.00  0.00    -0.266 OA
HETATM    4  C   UNL     1      -4.847   1.126 -32.636  1.00  0.00     0.054 A 
HETATM    5  C   UNL     1      -3.976   1.436 -31.584  1.00  0.00     0.026 A 
HETATM    6  N   UNL     1      -4.075   2.652 -30.856  1.00  0.00    -0.265 NA
HETATM    7  C   UNL     1      -4.595   3.776 -31.676  1.00  0.00     0.219 C 
HETATM    8  C   UNL     1      -4.784  -0.105 -33.294  1.00  0.00     0.019 A 
HETATM    9  C   UNL     1      -3.845  -1.051 -32.887  1.00  0.00     0.001 A 
HETATM   10  C   UNL     1      -2.999  -0.774 -31.812  1.00  0.00     0.002 A 
HETATM   11  C   UNL     1      -3.077   0.457 -31.153  1.00  0.00     0.024 A 
HETATM   12  H   UNL     1      -4.752   2.501 -30.102  1.00  0.00     0.130 HD
ENDROOT
BRANCH   7  13
HETATM   13  C   UNL     1      -3.529   4.303 -32.643  1.00  0.00     0.014 A 
HETATM   14  C   UNL     1      -2.184   4.484 -32.275  1.00  0.00     0.075 A 
HETATM   15  C   UNL     1      -1.244   5.023 -33.155  1.00  0.00     0.037 A 
HETATM   16  C   UNL     1      -1.632   5.426 -34.429  1.00  0.00     0.003 A 
HETATM   17  C   UNL     1      -2.960   5.293 -34.814  1.00  0.00     0.001 A 
HETATM   18  C   UNL     1      -3.895   4.742 -33.931  1.00  0.00     0.013 A 
BRANCH  14  19
HETATM   19  O   UNL     1      -1.702   4.153 -31.037  1.00  0.00    -0.360 OA
HETATM   20  H   UNL     1      -0.948   3.543 -31.174  1.00  0.00     0.217 HD
ENDBRANCH  14  19
ENDBRANCH   7  13
BRANCH   1  21
HETATM   21  N   UNL     1      -7.116   3.848 -31.785  1.00  0.00    -0.123 NA
HETATM   22  H   UNL     1      -7.235   4.852 -31.983  1.00  0.00     0.165 HD
BRANCH  21  23
HETATM   23  S   UNL     1      -7.570   3.500 -30.189  1.00  0.00     0.222 S 
HETATM   24  C   UNL     1      -9.320   3.235 -30.384  1.00  0.00     0.181 C 
HETATM   25  O   UNL     1      -7.363   4.680 -29.381  1.00  0.00    -0.210 OA
HETATM   26  O   UNL     1      -6.961   2.233 -29.852  1.00  0.00    -0.210 OA
ENDBRANCH  21  23
ENDBRANCH   1  21
TORSDOF 4
ENDMDL
MODEL 2
REMARK VINA RESULT:      -7.2      1.839      2.223
REMARK  4 active torsions:
REMARK  status: ('A' for Active; 'I' for Inactive)
REMARK    1  A    between atoms: S_2  and  N_3 
REMARK    2  A    between atoms: N_3  and  N_4 
REMARK    3  A    between atoms: C_10  and  C_11 
REMARK    4  A    between atoms: C_12  and  O_13 
ROOT
HETATM    1  N   UNL     1      -7.070   1.844 -31.774  1.00  0.00    -0.241 N 
HETATM    2  C   UNL     1      -7.416   0.930 -32.753  1.00  0.00     0.272 C 
HETATM    3  O   UNL     1      -8.568   0.825 -33.172  1.00  0.00    -0.266 OA
HETATM    4  C   UNL     1      -6.365  -0.020 -33.149  1.00  0.00     0.054 A 
HETATM    5  C   UNL     1      -5.252  -0.137 -32.306  1.00  0.00     0.026 A 
HETATM    6  N   UNL     1      -5.083   0.687 -31.161  1.00  0.00    -0.265 NA
HETATM    7  C   UNL     1      -5.687   2.034 -31.325  1.00  0.00     0.219 C 
HETATM    8  C   UNL     1      -6.554  -0.887 -34.228  1.00  0.00     0.019 A 
HETATM    9  C   UNL     1      -5.625  -1.898 -34.465  1.00  0.00     0.001 A 
HETATM   10  C   UNL     1      -4.534  -2.055 -33.607  1.00  0.00     0.002 A 
HETATM   11  C   UNL     1      -4.359  -1.189 -32.523  1.00  0.00     0.024 A 
HETATM   12  H   UNL     1      -5.577   0.236 -30.385  1.00  0.00     0.130 HD
ENDROOT
BRANCH   7  13
HETATM   13  C   UNL     1      -4.834   2.922 -32.238  1.00  0.00     0.014 A 
HETATM   14  C   UNL     1      -3.452   3.107 -32.053  1.00  0.00     0.075 A 
HETATM   15  C   UNL     1      -2.709   3.970 -32.861  1.00  0.00     0.037 A 
HETATM   16  C   UNL     1      -3.337   4.699 -33.866  1.00  0.00     0.003 A 
HETATM   17  C   UNL     1      -4.706   4.566 -34.054  1.00  0.00     0.001 A 
HETATM   18  C   UNL     1      -5.445   3.692 -33.248  1.00  0.00     0.013 A 
BRANCH  14  19
HETATM   19  O   UNL     1      -2.742   2.466 -31.075  1.00  0.00    -0.360 OA
HETATM   20  H   UNL     1      -3.391   2.073 -30.456  1.00  0.00     0.217 HD
ENDBRANCH  14  19
ENDBRANCH   7  13
BRANCH   1  21
HETATM   21  N   UNL     1      -8.150   2.095 -30.779  1.00  0.00    -0.123 NA
HETATM   22  H   UNL     1      -8.839   1.329 -30.748  1.00  0.00     0.165 HD
BRANCH  21  23
HETATM   23  S   UNL     1      -8.936   3.598 -30.753  1.00  0.00     0.222 S 
HETATM   24  C   UNL     1      -7.897   4.504 -29.624  1.00  0.00     0.181 C 
HETATM   25  O   UNL     1     -10.240   3.429 -30.155  1.00  0.00    -0.210 OA
HETATM   26  O   UNL     1      -8.772   4.173 -32.069  1.00  0.00    -0.210 OA
ENDBRANCH  21  23
ENDBRANCH   1  21
TORSDOF 4
ENDMDL
MODEL 3
REMARK VINA RESULT:      -7.0     16.509     17.842
REMARK  4 active torsions:
REMARK  status: ('A' for Active; 'I' for Inactive)
REMARK    1  A    between atoms: S_2  and  N_3 
REMARK    2  A    between atoms: N_3  and  N_4 
REMARK    3  A    between atoms: C_10  and  C_11 
REMARK    4  A    between atoms: C_12  and  O_13 
ROOT
HETATM    1  N   UNL     1      -4.589 -13.520 -36.259  1.00  0.00    -0.241 N 
HETATM    2  C   UNL     1      -3.506 -14.367 -36.101  1.00  0.00     0.272 C 
HETATM    3  O   UNL     1      -3.396 -15.115 -35.131  1.00  0.00    -0.266 OA
HETATM    4  C   UNL     1      -2.415 -14.207 -37.076  1.00  0.00     0.054 A 
HETATM    5  C   UNL     1      -2.407 -13.039 -37.849  1.00  0.00     0.026 A 
HETATM    6  N   UNL     1      -3.453 -12.079 -37.775  1.00  0.00    -0.265 NA
HETATM    7  C   UNL     1      -4.770 -12.684 -37.450  1.00  0.00     0.219 C 
HETATM    8  C   UNL     1      -1.344 -15.104 -37.104  1.00  0.00     0.019 A 
HETATM    9  C   UNL     1      -0.239 -14.826 -37.907  1.00  0.00     0.001 A 
HETATM   10  C   UNL     1      -0.198 -13.644 -38.648  1.00  0.00     0.002 A 
HETATM   11  C   UNL     1      -1.270 -12.746 -38.605  1.00  0.00     0.024 A 
HETATM   12  H   UNL     1      -3.226 -11.440 -37.008  1.00  0.00     0.130 HD
ENDROOT
BRANCH   7  13
HETATM   13  C   UNL     1      -5.364 -13.415 -38.659  1.00  0.00     0.014 A 
HETATM   14  C   UNL     1      -5.425 -12.846 -39.944  1.00  0.00     0.075 A 
HETATM   15  C   UNL     1      -6.026 -13.508 -41.016  1.00  0.00     0.037 A 
HETATM   16  C   UNL     1      -6.613 -14.754 -40.826  1.00  0.00     0.003 A 
HETATM   17  C   UNL     1      -6.601 -15.331 -39.563  1.00  0.00     0.001 A 
HETATM   18  C   UNL     1      -5.988 -14.668 -38.494  1.00  0.00     0.013 A 
BRANCH  14  19
HETATM   19  O   UNL     1      -4.910 -11.612 -40.235  1.00  0.00    -0.360 OA
HETATM   20  H   UNL     1      -5.223 -10.997 -39.540  1.00  0.00     0.217 HD
ENDBRANCH  14  19
ENDBRANCH   7  13
BRANCH   1  21
HETATM   21  N   UNL     1      -5.137 -13.003 -34.973  1.00  0.00    -0.123 NA
HETATM   22  H   UNL     1      -4.405 -12.874 -34.260  1.00  0.00     0.165 HD
BRANCH  21  23
HETATM   23  S   UNL     1      -6.506 -13.734 -34.291  1.00  0.00     0.222 S 
HETATM   24  C   UNL     1      -5.887 -14.176 -32.680  1.00  0.00     0.181 C 
HETATM   25  O   UNL     1      -6.801 -14.943 -35.025  1.00  0.00    -0.210 OA
HETATM   26  O   UNL     1      -7.491 -12.690 -34.119  1.00  0.00    -0.210 OA
ENDBRANCH  21  23
ENDBRANCH   1  21
TORSDOF 4
ENDMDL
MODEL 4
REMARK VINA RESULT:      -6.9      5.154      6.870
REMARK  4 active torsions:
REMARK  status: ('A' for Active; 'I' for Inactive)
REMARK    1  A    between atoms: S_2  and  N_3 
REMARK    2  A    between atoms: N_3  and  N_4 
REMARK    3  A    between atoms: C_10  and  C_11 
REMARK    4  A    between atoms: C_12  and  O_13 
ROOT
HETATM    1  N   UNL     1      -2.975   8.649 -29.097  1.00  0.00    -0.241 N 
HETATM    2  C   UNL     1      -2.754   8.867 -30.446  1.00  0.00     0.272 C 
HETATM    3  O   UNL     1      -3.271   9.805 -31.050  1.00  0.00    -0.266 OA
HETATM    4  C   UNL     1      -1.995   7.823 -31.153  1.00  0.00     0.054 A 
HETATM    5  C   UNL     1      -1.850   6.586 -30.511  1.00  0.00     0.026 A 
HETATM    6  N   UNL     1      -2.329   6.360 -29.192  1.00  0.00    -0.265 NA
HETATM    7  C   UNL     1      -2.299   7.583 -28.349  1.00  0.00     0.219 C 
HETATM    8  C   UNL     1      -1.587   8.008 -32.476  1.00  0.00     0.019 A 
HETATM    9  C   UNL     1      -1.036   6.937 -33.178  1.00  0.00     0.001 A 
HETATM   10  C   UNL     1      -0.926   5.687 -32.566  1.00  0.00     0.002 A 
HETATM   11  C   UNL     1      -1.348   5.509 -31.245  1.00  0.00     0.024 A 
HETATM   12  H   UNL     1      -3.311   6.079 -29.268  1.00  0.00     0.130 HD
ENDROOT
BRANCH   7  13
HETATM   13  C   UNL     1      -0.873   7.920 -27.903  1.00  0.00     0.014 A 
HETATM   14  C   UNL     1       0.053   6.944 -27.491  1.00  0.00     0.075 A 
HETATM   15  C   UNL     1       1.326   7.282 -27.030  1.00  0.00     0.037 A 
HETATM   16  C   UNL     1       1.704   8.618 -26.940  1.00  0.00     0.003 A 
HETATM   17  C   UNL     1       0.803   9.610 -27.307  1.00  0.00     0.001 A 
HETATM   18  C   UNL     1      -0.469   9.265 -27.778  1.00  0.00     0.013 A 
BRANCH  14  19
HETATM   19  O   UNL     1      -0.226   5.604 -27.507  1.00  0.00    -0.360 OA
HETATM   20  H   UNL     1       0.235   5.204 -26.741  1.00  0.00     0.217 HD
ENDBRANCH  14  19
ENDBRANCH   7  13
BRANCH   1  21
HETATM   21  N   UNL     1      -4.337   9.044 -28.641  1.00  0.00    -0.123 NA
HETATM   22  H   UNL     1      -4.308   9.671 -27.824  1.00  0.00     0.165 HD
BRANCH  21  23
HETATM   23  S   UNL     1      -5.530   7.857 -28.435  1.00  0.00     0.222 S 
HETATM   24  C   UNL     1      -7.004   8.793 -28.788  1.00  0.00     0.181 C 
HETATM   25  O   UNL     1      -5.552   7.457 -27.046  1.00  0.00    -0.210 OA
HETATM   26  O   UNL     1      -5.347   6.895 -29.499  1.00  0.00    -0.210 OA
ENDBRANCH  21  23
ENDBRANCH   1  21
TORSDOF 4
ENDMDL
MODEL 5
REMARK VINA RESULT:      -6.8      2.008      2.250
REMARK  4 active torsions:
REMARK  status: ('A' for Active; 'I' for Inactive)
REMARK    1  A    between atoms: S_2  and  N_3 
REMARK    2  A    between atoms: N_3  and  N_4 
REMARK    3  A    between atoms: C_10  and  C_11 
REMARK    4  A    between atoms: C_12  and  O_13 
ROOT
HETATM    1  N   UNL     1      -7.193   2.366 -33.674  1.00  0.00    -0.241 N 
HETATM    2  C   UNL     1      -6.829   1.155 -34.236  1.00  0.00     0.272 C 
HETATM    3  O   UNL     1      -7.427   0.673 -35.197  1.00  0.00    -0.266 OA
HETATM    4  C   UNL     1      -5.791   0.398 -33.518  1.00  0.00     0.054 A 
HETATM    5  C   UNL     1      -5.503   0.786 -32.204  1.00  0.00     0.026 A 
HETATM    6  N   UNL     1      -6.111   1.920 -31.602  1.00  0.00    -0.265 NA
HETATM    7  C   UNL     1      -6.438   2.988 -32.581  1.00  0.00     0.219 C 
HETATM    8  C   UNL     1      -5.242  -0.762 -34.071  1.00  0.00     0.019 A 
HETATM    9  C   UNL     1      -4.401  -1.558 -33.295  1.00  0.00     0.001 A 
HETATM   10  C   UNL     1      -4.140  -1.208 -31.969  1.00  0.00     0.002 A 
HETATM   11  C   UNL     1      -4.703  -0.051 -31.421  1.00  0.00     0.024 A 
HETATM   12  H   UNL     1      -7.000   1.611 -31.197  1.00  0.00     0.130 HD
ENDROOT
BRANCH   7  13
HETATM   13  C   UNL     1      -5.182   3.746 -33.023  1.00  0.00     0.014 A 
HETATM   14  C   UNL     1      -4.119   4.041 -32.150  1.00  0.00     0.075 A 
HETATM   15  C   UNL     1      -3.013   4.787 -32.561  1.00  0.00     0.037 A 
HETATM   16  C   UNL     1      -2.950   5.287 -33.857  1.00  0.00     0.003 A 
HETATM   17  C   UNL     1      -3.998   5.043 -34.736  1.00  0.00     0.001 A 
HETATM   18  C   UNL     1      -5.100   4.287 -34.322  1.00  0.00     0.013 A 
BRANCH  14  19
HETATM   19  O   UNL     1      -4.093   3.628 -30.846  1.00  0.00    -0.360 OA
HETATM   20  H   UNL     1      -4.983   3.278 -30.635  1.00  0.00     0.217 HD
ENDBRANCH  14  19
ENDBRANCH   7  13
BRANCH   1  21
HETATM   21  N   UNL     1      -8.657   2.639 -33.733  1.00  0.00    -0.123 NA
HETATM   22  H   UNL     1      -8.862   3.631 -33.918  1.00  0.00     0.165 HD
BRANCH  21  23
HETATM   23  S   UNL     1      -9.672   2.042 -32.513  1.00  0.00     0.222 S 
HETATM   24  C   UNL     1     -11.080   1.517 -33.469  1.00  0.00     0.181 C 
HETATM   25  O   UNL     1     -10.068   3.140 -31.661  1.00  0.00    -0.210 OA
HETATM   26  O   UNL     1      -9.029   0.862 -31.979  1.00  0.00    -0.210 OA
ENDBRANCH  21  23
ENDBRANCH   1  21
TORSDOF 4
ENDMDL
MODEL 6
REMARK VINA RESULT:      -6.6      3.734      6.772
REMARK  4 active torsions:
REMARK  status: ('A' for Active; 'I' for Inactive)
REMARK    1  A    between atoms: S_2  and  N_3 
REMARK    2  A    between atoms: N_3  and  N_4 
REMARK    3  A    between atoms: C_10  and  C_11 
REMARK    4  A    between atoms: C_12  and  O_13 
ROOT
HETATM    1  N   UNL     1      -8.632   4.080 -33.334  1.00  0.00    -0.241 N 
HETATM    2  C   UNL     1      -9.477   4.452 -34.364  1.00  0.00     0.272 C 
HETATM    3  O   UNL     1      -9.279   5.459 -35.041  1.00  0.00    -0.266 OA
HETATM    4  C   UNL     1     -10.714   3.665 -34.500  1.00  0.00     0.054 A 
HETATM    5  C   UNL     1     -11.083   2.853 -33.420  1.00  0.00     0.026 A 
HETATM    6  N   UNL     1     -10.261   2.710 -32.269  1.00  0.00    -0.265 NA
HETATM    7  C   UNL     1      -8.813   2.838 -32.573  1.00  0.00     0.219 C 
HETATM    8  C   UNL     1     -11.565   3.855 -35.591  1.00  0.00     0.019 A 
HETATM    9  C   UNL     1     -12.814   3.236 -35.601  1.00  0.00     0.001 A 
HETATM   10  C   UNL     1     -13.214   2.460 -34.511  1.00  0.00     0.002 A 
HETATM   11  C   UNL     1     -12.359   2.284 -33.419  1.00  0.00     0.024 A 
HETATM   12  H   UNL     1     -10.496   3.475 -31.630  1.00  0.00     0.130 HD
ENDROOT
BRANCH   7  13
HETATM   13  C   UNL     1      -8.273   1.581 -33.264  1.00  0.00     0.014 A 
HETATM   14  C   UNL     1      -8.636   0.279 -32.877  1.00  0.00     0.075 A 
HETATM   15  C   UNL     1      -8.082  -0.852 -33.481  1.00  0.00     0.037 A 
HETATM   16  C   UNL     1      -7.122  -0.711 -34.477  1.00  0.00     0.003 A 
HETATM   17  C   UNL     1      -6.715   0.560 -34.861  1.00  0.00     0.001 A 
HETATM   18  C   UNL     1      -7.281   1.690 -34.259  1.00  0.00     0.013 A 
BRANCH  14  19
HETATM   19  O   UNL     1      -9.545   0.025 -31.886  1.00  0.00    -0.360 OA
HETATM   20  H   UNL     1      -9.563  -0.945 -31.750  1.00  0.00     0.217 HD
ENDBRANCH  14  19
ENDBRANCH   7  13
BRANCH   1  21
HETATM   21  N   UNL     1      -8.013   5.232 -32.620  1.00  0.00    -0.123 NA
HETATM   22  H   UNL     1      -8.584   6.087 -32.690  1.00  0.00     0.165 HD
BRANCH  21  23
HETATM   23  S   UNL     1      -6.375   5.592 -32.870  1.00  0.00     0.222 S 
HETATM   24  C   UNL     1      -5.605   4.509 -31.684  1.00  0.00     0.181 C 
HETATM   25  O   UNL     1      -6.136   6.962 -32.476  1.00  0.00    -0.210 OA
HETATM   26  O   UNL     1      -6.043   5.114 -34.193  1.00  0.00    -0.210 OA
ENDBRANCH  21  23
ENDBRANCH   1  21
TORSDOF 4
ENDMDL
MODEL 7
REMARK VINA RESULT:      -6.5      2.521      5.321
REMARK  4 active torsions:
REMARK  status: ('A' for Active; 'I' for Inactive)
REMARK    1  A    between atoms: S_2  and  N_3 
REMARK    2  A    between atoms: N_3  and  N_4 
REMARK    3  A    between atoms: C_10  and  C_11 
REMARK    4  A    between atoms: C_12  and  O_13 
ROOT
HETATM    1  N   UNL     1      -8.012   2.085 -31.596  1.00  0.00    -0.241 N 
HETATM    2  C   UNL     1      -6.983   2.817 -31.030  1.00  0.00     0.272 C 
HETATM    3  O   UNL     1      -6.941   3.063 -29.826  1.00  0.00    -0.266 OA
HETATM    4  C   UNL     1      -6.028   3.422 -31.973  1.00  0.00     0.054 A 
HETATM    5  C   UNL     1      -6.406   3.488 -33.320  1.00  0.00     0.026 A 
HETATM    6  N   UNL     1      -7.618   2.914 -33.792  1.00  0.00    -0.265 NA
HETATM    7  C   UNL     1      -8.031   1.717 -33.016  1.00  0.00     0.219 C 
HETATM    8  C   UNL     1      -4.872   4.055 -31.510  1.00  0.00     0.019 A 
HETATM    9  C   UNL     1      -4.083   4.777 -32.404  1.00  0.00     0.001 A 
HETATM   10  C   UNL     1      -4.471   4.889 -33.740  1.00  0.00     0.002 A 
HETATM   11  C   UNL     1      -5.636   4.261 -34.192  1.00  0.00     0.024 A 
HETATM   12  H   UNL     1      -8.355   3.614 -33.667  1.00  0.00     0.130 HD
ENDROOT
BRANCH   7  13
HETATM   13  C   UNL     1      -7.175   0.497 -33.371  1.00  0.00     0.014 A 
HETATM   14  C   UNL     1      -7.282  -0.183 -34.598  1.00  0.00     0.075 A 
HETATM   15  C   UNL     1      -6.534  -1.329 -34.874  1.00  0.00     0.037 A 
HETATM   16  C   UNL     1      -5.673  -1.849 -33.913  1.00  0.00     0.003 A 
HETATM   17  C   UNL     1      -5.567  -1.222 -32.678  1.00  0.00     0.001 A 
HETATM   18  C   UNL     1      -6.311  -0.067 -32.410  1.00  0.00     0.013 A 
BRANCH  14  19
HETATM   19  O   UNL     1      -8.122   0.221 -35.600  1.00  0.00    -0.360 OA
HETATM   20  H   UNL     1      -7.708   0.999 -36.028  1.00  0.00     0.217 HD
ENDBRANCH  14  19
ENDBRANCH   7  13
BRANCH   1  21
HETATM   21  N   UNL     1      -9.328   2.283 -30.926  1.00  0.00    -0.123 NA
HETATM   22  H   UNL     1      -9.897   1.423 -30.920  1.00  0.00     0.165 HD
BRANCH  21  23
HETATM   23  S   UNL     1     -10.284   3.623 -31.332  1.00  0.00     0.222 S 
HETATM   24  C   UNL     1     -11.273   2.946 -32.651  1.00  0.00     0.181 C 
HETATM   25  O   UNL     1      -9.430   4.656 -31.872  1.00  0.00    -0.210 OA
HETATM   26  O   UNL     1     -11.154   3.869 -30.204  1.00  0.00    -0.210 OA
ENDBRANCH  21  23
ENDBRANCH   1  21
TORSDOF 4
ENDMDL
MODEL 8
REMARK VINA RESULT:      -6.5     17.330     19.112
REMARK  4 active torsions:
REMARK  status: ('A' for Active; 'I' for Inactive)
REMARK    1  A    between atoms: S_2  and  N_3 
REMARK    2  A    between atoms: N_3  and  N_4 
REMARK    3  A    between atoms: C_10  and  C_11 
REMARK    4  A    between atoms: C_12  and  O_13 
ROOT
HETATM    1  N   UNL     1      -5.655 -13.323 -39.504  1.00  0.00    -0.241 N 
HETATM    2  C   UNL     1      -5.453 -13.031 -38.166  1.00  0.00     0.272 C 
HETATM    3  O   UNL     1      -4.662 -12.165 -37.798  1.00  0.00    -0.266 OA
HETATM    4  C   UNL     1      -6.117 -13.925 -37.204  1.00  0.00     0.054 A 
HETATM    5  C   UNL     1      -6.606 -15.145 -37.689  1.00  0.00     0.026 A 
HETATM    6  N   UNL     1      -6.556 -15.482 -39.069  1.00  0.00    -0.265 NA
HETATM    7  C   UNL     1      -6.654 -14.296 -39.958  1.00  0.00     0.219 C 
HETATM    8  C   UNL     1      -6.105 -13.639 -35.837  1.00  0.00     0.019 A 
HETATM    9  C   UNL     1      -6.577 -14.590 -34.934  1.00  0.00     0.001 A 
HETATM   10  C   UNL     1      -7.026 -15.828 -35.399  1.00  0.00     0.002 A 
HETATM   11  C   UNL     1      -7.024 -16.109 -36.769  1.00  0.00     0.024 A 
HETATM   12  H   UNL     1      -5.641 -15.907 -39.246  1.00  0.00     0.130 HD
ENDROOT
BRANCH   7  13
HETATM   13  C   UNL     1      -8.088 -13.759 -40.018  1.00  0.00     0.014 A 
HETATM   14  C   UNL     1      -9.216 -14.595 -40.111  1.00  0.00     0.075 A 
HETATM   15  C   UNL     1     -10.508 -14.080 -40.227  1.00  0.00     0.037 A 
HETATM   16  C   UNL     1     -10.709 -12.705 -40.282  1.00  0.00     0.003 A 
HETATM   17  C   UNL     1      -9.615 -11.851 -40.226  1.00  0.00     0.001 A 
HETATM   18  C   UNL     1      -8.322 -12.372 -40.100  1.00  0.00     0.013 A 
BRANCH  14  19
HETATM   19  O   UNL     1      -9.130 -15.961 -40.101  1.00  0.00    -0.360 OA
HETATM   20  H   UNL     1      -8.258 -16.193 -39.719  1.00  0.00     0.217 HD
ENDBRANCH  14  19
ENDBRANCH   7  13
BRANCH   1  21
HETATM   21  N   UNL     1      -4.436 -13.155 -40.345  1.00  0.00    -0.123 NA
HETATM   22  H   UNL     1      -4.665 -13.022 -41.341  1.00  0.00     0.165 HD
BRANCH  21  23
HETATM   23  S   UNL     1      -3.142 -14.236 -40.173  1.00  0.00     0.222 S 
HETATM   24  C   UNL     1      -2.667 -14.471 -41.874  1.00  0.00     0.181 C 
HETATM   25  O   UNL     1      -3.648 -15.486 -39.653  1.00  0.00    -0.210 OA
HETATM   26  O   UNL     1      -2.081 -13.511 -39.509  1.00  0.00    -0.210 OA
ENDBRANCH  21  23
ENDBRANCH   1  21
TORSDOF 4
ENDMDL
MODEL 9
REMARK VINA RESULT:      -6.5     16.539     18.168
REMARK  4 active torsions:
REMARK  status: ('A' for Active; 'I' for Inactive)
REMARK    1  A    between atoms: S_2  and  N_3 
REMARK    2  A    between atoms: N_3  and  N_4 
REMARK    3  A    between atoms: C_10  and  C_11 
REMARK    4  A    between atoms: C_12  and  O_13 
ROOT
HETATM    1  N   UNL     1      -4.591 -14.419 -34.967  1.00  0.00    -0.241 N 
HETATM    2  C   UNL     1      -3.401 -14.945 -35.439  1.00  0.00     0.272 C 
HETATM    3  O   UNL     1      -2.767 -15.793 -34.813  1.00  0.00    -0.266 OA
HETATM    4  C   UNL     1      -2.854 -14.315 -36.651  1.00  0.00     0.054 A 
HETATM    5  C   UNL     1      -3.381 -13.072 -37.026  1.00  0.00     0.026 A 
HETATM    6  N   UNL     1      -4.465 -12.472 -36.329  1.00  0.00    -0.265 NA
HETATM    7  C   UNL     1      -5.396 -13.468 -35.741  1.00  0.00     0.219 C 
HETATM    8  C   UNL     1      -1.741 -14.857 -37.298  1.00  0.00     0.019 A 
HETATM    9  C   UNL     1      -1.133 -14.143 -38.329  1.00  0.00     0.001 A 
HETATM   10  C   UNL     1      -1.620 -12.883 -38.683  1.00  0.00     0.002 A 
HETATM   11  C   UNL     1      -2.728 -12.344 -38.023  1.00  0.00     0.024 A 
HETATM   12  H   UNL     1      -4.069 -11.943 -35.547  1.00  0.00     0.130 HD
ENDROOT
BRANCH   7  13
HETATM   13  C   UNL     1      -6.283 -14.108 -36.815  1.00  0.00     0.014 A 
HETATM   14  C   UNL     1      -6.876 -13.372 -37.856  1.00  0.00     0.075 A 
HETATM   15  C   UNL     1      -7.730 -13.966 -38.787  1.00  0.00     0.037 A 
HETATM   16  C   UNL     1      -8.041 -15.318 -38.685  1.00  0.00     0.003 A 
HETATM   17  C   UNL     1      -7.499 -16.068 -37.649  1.00  0.00     0.001 A 
HETATM   18  C   UNL     1      -6.636 -15.470 -36.725  1.00  0.00     0.013 A 
BRANCH  14  19
HETATM   19  O   UNL     1      -6.666 -12.030 -38.030  1.00  0.00    -0.360 OA
HETATM   20  H   UNL     1      -5.850 -11.932 -38.563  1.00  0.00     0.217 HD
ENDBRANCH  14  19
ENDBRANCH   7  13
BRANCH   1  21
HETATM   21  N   UNL     1      -4.653 -14.315 -33.482  1.00  0.00    -0.123 NA
HETATM   22  H   UNL     1      -3.740 -14.495 -33.039  1.00  0.00     0.165 HD
BRANCH  21  23
HETATM   23  S   UNL     1      -5.889 -15.110 -32.635  1.00  0.00     0.222 S 
HETATM   24  C   UNL     1      -5.665 -16.784 -33.202  1.00  0.00     0.181 C 
HETATM   25  O   UNL     1      -7.164 -14.623 -33.110  1.00  0.00    -0.210 OA
HETATM   26  O   UNL     1      -5.531 -15.061 -31.236  1.00  0.00    -0.210 OA
ENDBRANCH  21  23
ENDBRANCH   1  21
TORSDOF 4
ENDMDL
MODEL 10
REMARK VINA RESULT:      -6.4      2.381      4.599
REMARK  4 active torsions:
REMARK  status: ('A' for Active; 'I' for Inactive)
REMARK    1  A    between atoms: S_2  and  N_3 
REMARK    2  A    between atoms: N_3  and  N_4 
REMARK    3  A    between atoms: C_10  and  C_11 
REMARK    4  A    between atoms: C_12  and  O_13 
ROOT
HETATM    1  N   UNL     1      -3.973   2.956 -31.957  1.00  0.00    -0.241 N 
HETATM    2  C   UNL     1      -4.905   3.377 -31.025  1.00  0.00     0.272 C 
HETATM    3  O   UNL     1      -5.059   2.803 -29.948  1.00  0.00    -0.266 OA
HETATM    4  C   UNL     1      -5.813   4.451 -31.460  1.00  0.00     0.054 A 
HETATM    5  C   UNL     1      -5.880   4.720 -32.833  1.00  0.00     0.026 A 
HETATM    6  N   UNL     1      -5.045   4.058 -33.773  1.00  0.00    -0.265 NA
HETATM    7  C   UNL     1      -3.725   3.680 -33.208  1.00  0.00     0.219 C 
HETATM    8  C   UNL     1      -6.691   5.054 -30.557  1.00  0.00     0.019 A 
HETATM    9  C   UNL     1      -7.663   5.933 -31.031  1.00  0.00     0.001 A 
HETATM   10  C   UNL     1      -7.772   6.177 -32.401  1.00  0.00     0.002 A 
HETATM   11  C   UNL     1      -6.895   5.559 -33.299  1.00  0.00     0.024 A 
HETATM   12  H   UNL     1      -5.513   3.186 -34.035  1.00  0.00     0.130 HD
ENDROOT
BRANCH   7  13
HETATM   13  C   UNL     1      -2.806   4.899 -33.069  1.00  0.00     0.014 A 
HETATM   14  C   UNL     1      -2.710   5.902 -34.050  1.00  0.00     0.075 A 
HETATM   15  C   UNL     1      -1.820   6.970 -33.929  1.00  0.00     0.037 A 
HETATM   16  C   UNL     1      -0.974   7.052 -32.828  1.00  0.00     0.003 A 
HETATM   17  C   UNL     1      -1.018   6.061 -31.856  1.00  0.00     0.001 A 
HETATM   18  C   UNL     1      -1.919   4.997 -31.977  1.00  0.00     0.013 A 
BRANCH  14  19
HETATM   19  O   UNL     1      -3.471   5.902 -35.188  1.00  0.00    -0.360 OA
HETATM   20  H   UNL     1      -3.529   4.974 -35.497  1.00  0.00     0.217 HD
ENDBRANCH  14  19
ENDBRANCH   7  13
BRANCH   1  21
HETATM   21  N   UNL     1      -3.763   1.481 -31.970  1.00  0.00    -0.123 NA
HETATM   22  H   UNL     1      -2.860   1.219 -32.391  1.00  0.00     0.165 HD
BRANCH  21  23
HETATM   23  S   UNL     1      -4.997   0.462 -32.533  1.00  0.00     0.222 S 
HETATM   24  C   UNL     1      -4.047  -0.782 -33.384  1.00  0.00     0.181 C 
HETATM   25  O   UNL     1      -5.791   1.186 -33.499  1.00  0.00    -0.210 OA
HETATM   26  O   UNL     1      -5.592  -0.151 -31.367  1.00  0.00    -0.210 OA
ENDBRANCH  21  23
ENDBRANCH   1  21
TORSDOF 4
ENDMDL
