MODEL 1
REMARK VINA RESULT:      -9.6      0.000      0.000
REMARK  11 active torsions:
REMARK  status: ('A' for Active; 'I' for Inactive)
REMARK    1  A    between atoms: C_2  and  O_3 
REMARK    2  A    between atoms: O_3  and  C_4 
REMARK    3  A    between atoms: C_7  and  N_8 
REMARK       I    between atoms: N_8  and  C_9 
REMARK    4  A    between atoms: C_9  and  C_10 
REMARK    5  A    between atoms: C_10  and  C_11 
REMARK    6  A    between atoms: N_12  and  C_13 
REMARK    7  A    between atoms: C_13  and  C_14 
REMARK    8  A    between atoms: C_14  and  C_15 
REMARK    9  A    between atoms: C_15  and  N_16 
REMARK   10  A    between atoms: C_20  and  C_21 
REMARK       I    between atoms: C_21  and  N_22 
REMARK   11  A    between atoms: N_28  and  C_29 
ROOT
HETATM    1  C   UNL     1      -4.772   2.309 -30.875  1.00  0.00     0.188 C 
HETATM    2  N   UNL     1      -5.043   2.975 -32.144  1.00  0.00    -0.344 N 
HETATM    3  C   UNL     1      -5.578   2.067 -33.080  1.00  0.00     0.184 C 
HETATM    4  S   UNL     1      -6.429   2.552 -34.438  1.00  0.00    -0.040 SA
HETATM    5  N   UNL     1      -5.333   0.781 -32.607  1.00  0.00    -0.257 N 
HETATM    6  C   UNL     1      -4.867   0.852 -31.308  1.00  0.00     0.254 C 
HETATM    7  O   UNL     1      -4.619  -0.061 -30.527  1.00  0.00    -0.270 OA
ENDROOT
BRANCH   2   8
HETATM    8  C   UNL     1      -4.971   4.438 -32.243  1.00  0.00     0.128 C 
BRANCH   8   9
HETATM    9  C   UNL     1      -3.595   4.996 -31.838  1.00  0.00     0.048 C 
BRANCH   9  10
HETATM   10  C   UNL     1      -3.453   6.497 -32.113  1.00  0.00     0.236 C 
BRANCH  10  11
HETATM   11  N   UNL     1      -2.141   7.045 -31.566  1.00  0.00    -0.071 N 
HETATM   12  H   UNL     1      -2.009   7.997 -31.929  1.00  0.00     0.279 HD
HETATM   13  C   UNL     1      -2.156   7.104 -30.051  1.00  0.00     0.235 C 
HETATM   14  C   UNL     1      -0.854   7.713 -29.546  1.00  0.00     0.042 C 
HETATM   15  C   UNL     1       0.363   6.915 -30.016  1.00  0.00     0.081 C 
HETATM   16  C   UNL     1       0.340   6.758 -31.539  1.00  0.00     0.042 C 
HETATM   17  C   UNL     1      -0.978   6.212 -32.079  1.00  0.00     0.235 C 
BRANCH  15  18
HETATM   18  C   UNL     1       0.397   5.564 -29.317  1.00  0.00     0.219 C 
HETATM   19  N   UNL     1       0.028   5.568 -28.009  1.00  0.00    -0.370 N 
HETATM   20  H   UNL     1       0.070   6.401 -27.435  1.00  0.00     0.159 HD
HETATM   21  H   UNL     1       0.105   4.685 -27.513  1.00  0.00     0.159 HD
HETATM   22  O   UNL     1       0.633   4.517 -29.907  1.00  0.00    -0.273 OA
ENDBRANCH  15  18
ENDBRANCH  10  11
ENDBRANCH   9  10
ENDBRANCH   8   9
ENDBRANCH   2   8
BRANCH   1  23
HETATM   23  C   UNL     1      -5.850   2.577 -29.832  1.00  0.00     0.138 C 
BRANCH  23  24
HETATM   24  C   UNL     1      -7.197   2.864 -30.467  1.00  0.00     0.224 C 
HETATM   25  N   UNL     1      -7.917   1.729 -30.767  1.00  0.00    -0.327 N 
HETATM   26  H   UNL     1      -7.645   0.859 -30.309  1.00  0.00     0.169 HD
HETATM   27  O   UNL     1      -7.533   4.028 -30.673  1.00  0.00    -0.273 OA
BRANCH  25  28
HETATM   28  C   UNL     1      -9.041   1.620 -31.608  1.00  0.00     0.034 A 
HETATM   29  C   UNL     1      -9.802   2.703 -32.042  1.00  0.00     0.032 A 
HETATM   30  C   UNL     1     -10.849   2.505 -32.952  1.00  0.00     0.039 A 
HETATM   31  C   UNL     1     -11.148   1.230 -33.437  1.00  0.00     0.068 A 
HETATM   32  C   UNL     1     -10.405   0.143 -32.984  1.00  0.00     0.039 A 
HETATM   33  C   UNL     1      -9.357   0.339 -32.079  1.00  0.00     0.032 A 
BRANCH  31  34
HETATM   34  O   UNL     1     -12.172   1.180 -34.341  1.00  0.00    -0.352 OA
BRANCH  34  35
HETATM   35  C   UNL     1     -13.293   0.362 -34.005  1.00  0.00     0.171 C 
HETATM   36  C   UNL     1     -14.392   1.260 -33.467  1.00  0.00     0.034 C 
ENDBRANCH  34  35
ENDBRANCH  31  34
ENDBRANCH  25  28
ENDBRANCH  23  24
ENDBRANCH   1  23
BRANCH   5  37
HETATM   37  C   UNL     1      -5.486  -0.458 -33.308  1.00  0.00     0.045 A 
HETATM   38  C   UNL     1      -6.759  -0.968 -33.617  1.00  0.00     0.032 A 
HETATM   39  C   UNL     1      -6.917  -2.202 -34.264  1.00  0.00     0.026 A 
HETATM   40  C   UNL     1      -5.801  -2.951 -34.612  1.00  0.00     0.034 A 
HETATM   41 CL   UNL     1      -5.989  -4.466 -35.399  1.00  0.00    -0.084 Cl
HETATM   42  C   UNL     1      -4.529  -2.479 -34.310  1.00  0.00     0.026 A 
HETATM   43  C   UNL     1      -4.378  -1.248 -33.656  1.00  0.00     0.032 A 
ENDBRANCH   5  37
TORSDOF 11
ENDMDL
MODEL 2
REMARK VINA RESULT:      -9.6      3.488      6.565
REMARK  11 active torsions:
REMARK  status: ('A' for Active; 'I' for Inactive)
REMARK    1  A    between atoms: C_2  and  O_3 
REMARK    2  A    between atoms: O_3  and  C_4 
REMARK    3  A    between atoms: C_7  and  N_8 
REMARK       I    between atoms: N_8  and  C_9 
REMARK    4  A    between atoms: C_9  and  C_10 
REMARK    5  A    between atoms: C_10  and  C_11 
REMARK    6  A    between atoms: N_12  and  C_13 
REMARK    7  A    between atoms: C_13  and  C_14 
REMARK    8  A    between atoms: C_14  and  C_15 
REMARK    9  A    between atoms: C_15  and  N_16 
REMARK   10  A    between atoms: C_20  and  C_21 
REMARK       I    between atoms: C_21  and  N_22 
REMARK   11  A    between atoms: N_28  and  C_29 
ROOT
HETATM    1  C   UNL     1      -7.826   3.356 -31.843  1.00  0.00     0.188 C 
HETATM    2  N   UNL     1      -7.832   4.805 -31.678  1.00  0.00    -0.344 N 
HETATM    3  C   UNL     1      -9.129   5.269 -31.380  1.00  0.00     0.184 C 
HETATM    4  S   UNL     1      -9.427   6.759 -30.676  1.00  0.00    -0.040 SA
HETATM    5  N   UNL     1     -10.025   4.251 -31.697  1.00  0.00    -0.257 N 
HETATM    6  C   UNL     1      -9.322   3.092 -31.968  1.00  0.00     0.254 C 
HETATM    7  O   UNL     1      -9.751   1.967 -32.204  1.00  0.00    -0.270 OA
ENDROOT
BRANCH   2   8
HETATM    8  C   UNL     1      -6.568   5.547 -31.602  1.00  0.00     0.128 C 
BRANCH   8   9
HETATM    9  C   UNL     1      -5.931   5.782 -32.984  1.00  0.00     0.048 C 
BRANCH   9  10
HETATM   10  C   UNL     1      -5.473   4.486 -33.660  1.00  0.00     0.236 C 
BRANCH  10  11
HETATM   11  N   UNL     1      -3.955   4.413 -33.761  1.00  0.00    -0.071 N 
HETATM   12  H   UNL     1      -3.691   3.451 -34.009  1.00  0.00     0.279 HD
HETATM   13  C   UNL     1      -3.427   5.349 -34.831  1.00  0.00     0.235 C 
HETATM   14  C   UNL     1      -1.914   5.202 -34.943  1.00  0.00     0.042 C 
HETATM   15  C   UNL     1      -1.218   5.497 -33.614  1.00  0.00     0.081 C 
HETATM   16  C   UNL     1      -1.810   4.631 -32.499  1.00  0.00     0.042 C 
HETATM   17  C   UNL     1      -3.331   4.707 -32.407  1.00  0.00     0.235 C 
BRANCH  15  18
HETATM   18  C   UNL     1      -1.332   6.979 -33.288  1.00  0.00     0.219 C 
HETATM   19  N   UNL     1      -0.996   7.329 -32.019  1.00  0.00    -0.370 N 
HETATM   20  H   UNL     1      -1.016   6.671 -31.250  1.00  0.00     0.159 HD
HETATM   21  H   UNL     1      -1.127   8.305 -31.768  1.00  0.00     0.159 HD
HETATM   22  O   UNL     1      -1.600   7.826 -34.131  1.00  0.00    -0.273 OA
ENDBRANCH  15  18
ENDBRANCH  10  11
ENDBRANCH   9  10
ENDBRANCH   8   9
ENDBRANCH   2   8
BRANCH   1  23
HETATM   23  C   UNL     1      -7.308   2.629 -30.608  1.00  0.00     0.138 C 
BRANCH  23  24
HETATM   24  C   UNL     1      -6.641   1.314 -30.961  1.00  0.00     0.224 C 
HETATM   25  N   UNL     1      -6.486   1.122 -32.316  1.00  0.00    -0.327 N 
HETATM   26  H   UNL     1      -6.555   1.938 -32.923  1.00  0.00     0.169 HD
HETATM   27  O   UNL     1      -6.312   0.542 -30.064  1.00  0.00    -0.273 OA
BRANCH  25  28
HETATM   28  C   UNL     1      -6.187  -0.080 -32.986  1.00  0.00     0.034 A 
HETATM   29  C   UNL     1      -7.141  -0.905 -33.577  1.00  0.00     0.032 A 
HETATM   30  C   UNL     1      -6.740  -2.035 -34.302  1.00  0.00     0.039 A 
HETATM   31  C   UNL     1      -5.388  -2.354 -34.445  1.00  0.00     0.068 A 
HETATM   32  C   UNL     1      -4.434  -1.545 -33.833  1.00  0.00     0.039 A 
HETATM   33  C   UNL     1      -4.832  -0.414 -33.113  1.00  0.00     0.032 A 
BRANCH  31  34
HETATM   34  O   UNL     1      -5.132  -3.464 -35.201  1.00  0.00    -0.352 OA
BRANCH  34  35
HETATM   35  C   UNL     1      -5.415  -4.731 -34.606  1.00  0.00     0.171 C 
HETATM   36  C   UNL     1      -4.185  -5.179 -33.837  1.00  0.00     0.034 C 
ENDBRANCH  34  35
ENDBRANCH  31  34
ENDBRANCH  25  28
ENDBRANCH  23  24
ENDBRANCH   1  23
BRANCH   5  37
HETATM   37  C   UNL     1     -11.452   4.327 -31.778  1.00  0.00     0.045 A 
HETATM   38  C   UNL     1     -12.253   4.257 -30.624  1.00  0.00     0.032 A 
HETATM   39  C   UNL     1     -13.652   4.288 -30.701  1.00  0.00     0.026 A 
HETATM   40  C   UNL     1     -14.277   4.387 -31.937  1.00  0.00     0.034 A 
HETATM   41 CL   UNL     1     -15.991   4.418 -32.036  1.00  0.00    -0.084 Cl
HETATM   42  C   UNL     1     -13.513   4.446 -33.096  1.00  0.00     0.026 A 
HETATM   43  C   UNL     1     -12.115   4.408 -33.013  1.00  0.00     0.032 A 
ENDBRANCH   5  37
TORSDOF 11
ENDMDL
MODEL 3
REMARK VINA RESULT:      -9.4      4.093      7.098
REMARK  11 active torsions:
REMARK  status: ('A' for Active; 'I' for Inactive)
REMARK    1  A    between atoms: C_2  and  O_3 
REMARK    2  A    between atoms: O_3  and  C_4 
REMARK    3  A    between atoms: C_7  and  N_8 
REMARK       I    between atoms: N_8  and  C_9 
REMARK    4  A    between atoms: C_9  and  C_10 
REMARK    5  A    between atoms: C_10  and  C_11 
REMARK    6  A    between atoms: N_12  and  C_13 
REMARK    7  A    between atoms: C_13  and  C_14 
REMARK    8  A    between atoms: C_14  and  C_15 
REMARK    9  A    between atoms: C_15  and  N_16 
REMARK   10  A    between atoms: C_20  and  C_21 
REMARK       I    between atoms: C_21  and  N_22 
REMARK   11  A    between atoms: N_28  and  C_29 
ROOT
HETATM    1  C   UNL     1      -8.634   3.540 -33.288  1.00  0.00     0.188 C 
HETATM    2  N   UNL     1      -8.188   4.801 -32.707  1.00  0.00    -0.344 N 
HETATM    3  C   UNL     1      -9.122   5.826 -32.961  1.00  0.00     0.184 C 
HETATM    4  S   UNL     1      -9.184   7.244 -32.073  1.00  0.00    -0.040 SA
HETATM    5  N   UNL     1      -9.968   5.385 -33.975  1.00  0.00    -0.257 N 
HETATM    6  C   UNL     1      -9.740   4.041 -34.208  1.00  0.00     0.254 C 
HETATM    7  O   UNL     1     -10.336   3.277 -34.961  1.00  0.00    -0.270 OA
ENDROOT
BRANCH   2   8
HETATM    8  C   UNL     1      -7.040   4.831 -31.792  1.00  0.00     0.128 C 
BRANCH   8   9
HETATM    9  C   UNL     1      -5.735   5.258 -32.488  1.00  0.00     0.048 C 
BRANCH   9  10
HETATM   10  C   UNL     1      -5.150   4.163 -33.387  1.00  0.00     0.236 C 
BRANCH  10  11
HETATM   11  N   UNL     1      -3.640   4.301 -33.527  1.00  0.00    -0.071 N 
HETATM   12  H   UNL     1      -3.252   3.385 -33.786  1.00  0.00     0.279 HD
HETATM   13  C   UNL     1      -3.275   5.302 -34.606  1.00  0.00     0.235 C 
HETATM   14  C   UNL     1      -1.760   5.366 -34.759  1.00  0.00     0.042 C 
HETATM   15  C   UNL     1      -1.076   5.754 -33.447  1.00  0.00     0.081 C 
HETATM   16  C   UNL     1      -1.513   4.813 -32.321  1.00  0.00     0.042 C 
HETATM   17  C   UNL     1      -3.027   4.677 -32.189  1.00  0.00     0.235 C 
BRANCH  15  18
HETATM   18  C   UNL     1      -1.385   7.205 -33.112  1.00  0.00     0.219 C 
HETATM   19  N   UNL     1      -1.130   7.580 -31.831  1.00  0.00    -0.370 N 
HETATM   20  H   UNL     1      -1.087   6.915 -31.068  1.00  0.00     0.159 HD
HETATM   21  H   UNL     1      -1.390   8.529 -31.576  1.00  0.00     0.159 HD
HETATM   22  O   UNL     1      -1.735   8.022 -33.955  1.00  0.00    -0.273 OA
ENDBRANCH  15  18
ENDBRANCH  10  11
ENDBRANCH   9  10
ENDBRANCH   8   9
ENDBRANCH   2   8
BRANCH   1  23
HETATM   23  C   UNL     1      -9.251   2.606 -32.254  1.00  0.00     0.138 C 
BRANCH  23  24
HETATM   24  C   UNL     1      -8.557   1.258 -32.217  1.00  0.00     0.224 C 
HETATM   25  N   UNL     1      -7.446   1.191 -33.029  1.00  0.00    -0.327 N 
HETATM   26  H   UNL     1      -7.032   2.069 -33.342  1.00  0.00     0.169 HD
HETATM   27  O   UNL     1      -9.014   0.360 -31.515  1.00  0.00    -0.273 OA
BRANCH  25  28
HETATM   28  C   UNL     1      -6.759   0.037 -33.453  1.00  0.00     0.034 A 
HETATM   29  C   UNL     1      -7.234  -0.846 -34.420  1.00  0.00     0.032 A 
HETATM   30  C   UNL     1      -6.437  -1.918 -34.843  1.00  0.00     0.039 A 
HETATM   31  C   UNL     1      -5.163  -2.122 -34.308  1.00  0.00     0.068 A 
HETATM   32  C   UNL     1      -4.697  -1.255 -33.323  1.00  0.00     0.039 A 
HETATM   33  C   UNL     1      -5.489  -0.182 -32.902  1.00  0.00     0.032 A 
BRANCH  31  34
HETATM   34  O   UNL     1      -4.480  -3.185 -34.830  1.00  0.00    -0.352 OA
BRANCH  34  35
HETATM   35  C   UNL     1      -4.772  -4.471 -34.283  1.00  0.00     0.171 C 
HETATM   36  C   UNL     1      -3.606  -4.889 -33.405  1.00  0.00     0.034 C 
ENDBRANCH  34  35
ENDBRANCH  31  34
ENDBRANCH  25  28
ENDBRANCH  23  24
ENDBRANCH   1  23
BRANCH   5  37
HETATM   37  C   UNL     1     -10.921   6.149 -34.720  1.00  0.00     0.045 A 
HETATM   38  C   UNL     1     -10.510   7.091 -35.680  1.00  0.00     0.032 A 
HETATM   39  C   UNL     1     -11.437   7.874 -36.382  1.00  0.00     0.026 A 
HETATM   40  C   UNL     1     -12.796   7.729 -36.135  1.00  0.00     0.034 A 
HETATM   41 CL   UNL     1     -13.935   8.690 -36.988  1.00  0.00    -0.084 Cl
HETATM   42  C   UNL     1     -13.233   6.814 -35.184  1.00  0.00     0.026 A 
HETATM   43  C   UNL     1     -12.301   6.040 -34.480  1.00  0.00     0.032 A 
ENDBRANCH   5  37
TORSDOF 11
ENDMDL
MODEL 4
REMARK VINA RESULT:      -9.3      3.022      5.947
REMARK  11 active torsions:
REMARK  status: ('A' for Active; 'I' for Inactive)
REMARK    1  A    between atoms: C_2  and  O_3 
REMARK    2  A    between atoms: O_3  and  C_4 
REMARK    3  A    between atoms: C_7  and  N_8 
REMARK       I    between atoms: N_8  and  C_9 
REMARK    4  A    between atoms: C_9  and  C_10 
REMARK    5  A    between atoms: C_10  and  C_11 
REMARK    6  A    between atoms: N_12  and  C_13 
REMARK    7  A    between atoms: C_13  and  C_14 
REMARK    8  A    between atoms: C_14  and  C_15 
REMARK    9  A    between atoms: C_15  and  N_16 
REMARK   10  A    between atoms: C_20  and  C_21 
REMARK       I    between atoms: C_21  and  N_22 
REMARK   11  A    between atoms: N_28  and  C_29 
ROOT
HETATM    1  C   UNL     1      -5.843   2.393 -31.508  1.00  0.00     0.188 C 
HETATM    2  N   UNL     1      -6.719   2.723 -32.626  1.00  0.00    -0.344 N 
HETATM    3  C   UNL     1      -7.102   1.559 -33.321  1.00  0.00     0.184 C 
HETATM    4  S   UNL     1      -8.438   1.497 -34.330  1.00  0.00    -0.040 SA
HETATM    5  N   UNL     1      -6.240   0.536 -32.939  1.00  0.00    -0.257 N 
HETATM    6  C   UNL     1      -5.477   0.958 -31.866  1.00  0.00     0.254 C 
HETATM    7  O   UNL     1      -4.668   0.322 -31.197  1.00  0.00    -0.270 OA
ENDROOT
BRANCH   2   8
HETATM    8  C   UNL     1      -7.266   4.079 -32.762  1.00  0.00     0.128 C 
BRANCH   8   9
HETATM    9  C   UNL     1      -6.185   5.128 -33.082  1.00  0.00     0.048 C 
BRANCH   9  10
HETATM   10  C   UNL     1      -5.375   4.789 -34.339  1.00  0.00     0.236 C 
BRANCH  10  11
HETATM   11  N   UNL     1      -3.894   4.626 -34.024  1.00  0.00    -0.071 N 
HETATM   12  H   UNL     1      -3.649   3.632 -34.116  1.00  0.00     0.279 HD
HETATM   13  C   UNL     1      -3.034   5.426 -34.983  1.00  0.00     0.235 C 
HETATM   14  C   UNL     1      -1.561   5.188 -34.675  1.00  0.00     0.042 C 
HETATM   15  C   UNL     1      -1.215   5.571 -33.235  1.00  0.00     0.081 C 
HETATM   16  C   UNL     1      -2.144   4.848 -32.255  1.00  0.00     0.042 C 
HETATM   17  C   UNL     1      -3.625   5.013 -32.580  1.00  0.00     0.235 C 
BRANCH  15  18
HETATM   18  C   UNL     1      -1.296   7.081 -33.068  1.00  0.00     0.219 C 
HETATM   19  N   UNL     1      -1.016   7.550 -31.824  1.00  0.00    -0.370 N 
HETATM   20  H   UNL     1      -1.098   6.975 -30.994  1.00  0.00     0.159 HD
HETATM   21  H   UNL     1      -1.126   8.550 -31.681  1.00  0.00     0.159 HD
HETATM   22  O   UNL     1      -1.491   7.844 -34.005  1.00  0.00    -0.273 OA
ENDBRANCH  15  18
ENDBRANCH  10  11
ENDBRANCH   9  10
ENDBRANCH   8   9
ENDBRANCH   2   8
BRANCH   1  23
HETATM   23  C   UNL     1      -6.575   2.387 -30.172  1.00  0.00     0.138 C 
BRANCH  23  24
HETATM   24  C   UNL     1      -6.705   3.781 -29.588  1.00  0.00     0.224 C 
HETATM   25  N   UNL     1      -5.503   4.443 -29.475  1.00  0.00    -0.327 N 
HETATM   26  H   UNL     1      -4.715   4.094 -30.021  1.00  0.00     0.169 HD
HETATM   27  O   UNL     1      -7.812   4.199 -29.259  1.00  0.00    -0.273 OA
BRANCH  25  28
HETATM   28  C   UNL     1      -5.225   5.601 -28.723  1.00  0.00     0.034 A 
HETATM   29  C   UNL     1      -5.245   5.653 -27.331  1.00  0.00     0.032 A 
HETATM   30  C   UNL     1      -4.865   6.828 -26.668  1.00  0.00     0.039 A 
HETATM   31  C   UNL     1      -4.464   7.958 -27.381  1.00  0.00     0.068 A 
HETATM   32  C   UNL     1      -4.469   7.916 -28.773  1.00  0.00     0.039 A 
HETATM   33  C   UNL     1      -4.843   6.743 -29.438  1.00  0.00     0.032 A 
BRANCH  31  34
HETATM   34  O   UNL     1      -4.090   9.025 -26.613  1.00  0.00    -0.352 OA
BRANCH  34  35
HETATM   35  C   UNL     1      -4.413   8.966 -25.223  1.00  0.00     0.171 C 
HETATM   36  C   UNL     1      -5.519   9.968 -24.949  1.00  0.00     0.034 C 
ENDBRANCH  34  35
ENDBRANCH  31  34
ENDBRANCH  25  28
ENDBRANCH  23  24
ENDBRANCH   1  23
BRANCH   5  37
HETATM   37  C   UNL     1      -6.090  -0.758 -33.533  1.00  0.00     0.045 A 
HETATM   38  C   UNL     1      -7.207  -1.564 -33.815  1.00  0.00     0.032 A 
HETATM   39  C   UNL     1      -7.065  -2.849 -34.357  1.00  0.00     0.026 A 
HETATM   40  C   UNL     1      -5.800  -3.353 -34.624  1.00  0.00     0.034 A 
HETATM   41 CL   UNL     1      -5.620  -4.930 -35.282  1.00  0.00    -0.084 Cl
HETATM   42  C   UNL     1      -4.676  -2.585 -34.346  1.00  0.00     0.026 A 
HETATM   43  C   UNL     1      -4.824  -1.304 -33.798  1.00  0.00     0.032 A 
ENDBRANCH   5  37
TORSDOF 11
ENDMDL
MODEL 5
REMARK VINA RESULT:      -9.1      3.710      6.672
REMARK  11 active torsions:
REMARK  status: ('A' for Active; 'I' for Inactive)
REMARK    1  A    between atoms: C_2  and  O_3 
REMARK    2  A    between atoms: O_3  and  C_4 
REMARK    3  A    between atoms: C_7  and  N_8 
REMARK       I    between atoms: N_8  and  C_9 
REMARK    4  A    between atoms: C_9  and  C_10 
REMARK    5  A    between atoms: C_10  and  C_11 
REMARK    6  A    between atoms: N_12  and  C_13 
REMARK    7  A    between atoms: C_13  and  C_14 
REMARK    8  A    between atoms: C_14  and  C_15 
REMARK    9  A    between atoms: C_15  and  N_16 
REMARK   10  A    between atoms: C_20  and  C_21 
REMARK       I    between atoms: C_21  and  N_22 
REMARK   11  A    between atoms: N_28  and  C_29 
ROOT
HETATM    1  C   UNL     1      -7.599   4.044 -32.068  1.00  0.00     0.188 C 
HETATM    2  N   UNL     1      -7.818   5.340 -31.435  1.00  0.00    -0.344 N 
HETATM    3  C   UNL     1      -9.055   5.886 -31.830  1.00  0.00     0.184 C 
HETATM    4  S   UNL     1      -9.837   7.091 -30.969  1.00  0.00    -0.040 SA
HETATM    5  N   UNL     1      -9.485   5.189 -32.956  1.00  0.00    -0.257 N 
HETATM    6  C   UNL     1      -8.676   4.085 -33.146  1.00  0.00     0.254 C 
HETATM    7  O   UNL     1      -8.780   3.186 -33.974  1.00  0.00    -0.270 OA
ENDROOT
BRANCH   2   8
HETATM    8  C   UNL     1      -6.929   5.798 -30.360  1.00  0.00     0.128 C 
BRANCH   8   9
HETATM    9  C   UNL     1      -5.565   6.285 -30.882  1.00  0.00     0.048 C 
BRANCH   9  10
HETATM   10  C   UNL     1      -4.394   5.847 -29.995  1.00  0.00     0.236 C 
BRANCH  10  11
HETATM   11  N   UNL     1      -3.204   5.386 -30.826  1.00  0.00    -0.071 N 
HETATM   12  H   UNL     1      -2.702   4.659 -30.301  1.00  0.00     0.279 HD
HETATM   13  C   UNL     1      -3.650   4.802 -32.153  1.00  0.00     0.235 C 
HETATM   14  C   UNL     1      -2.438   4.296 -32.927  1.00  0.00     0.042 C 
HETATM   15  C   UNL     1      -1.421   5.411 -33.174  1.00  0.00     0.081 C 
HETATM   16  C   UNL     1      -1.035   6.082 -31.852  1.00  0.00     0.042 C 
HETATM   17  C   UNL     1      -2.233   6.537 -31.024  1.00  0.00     0.235 C 
BRANCH  15  18
HETATM   18  C   UNL     1      -1.986   6.418 -34.165  1.00  0.00     0.219 C 
HETATM   19  N   UNL     1      -2.918   5.934 -35.027  1.00  0.00    -0.370 N 
HETATM   20  H   UNL     1      -2.988   4.951 -35.258  1.00  0.00     0.159 HD
HETATM   21  H   UNL     1      -3.259   6.579 -35.735  1.00  0.00     0.159 HD
HETATM   22  O   UNL     1      -1.712   7.611 -34.129  1.00  0.00    -0.273 OA
ENDBRANCH  15  18
ENDBRANCH  10  11
ENDBRANCH   9  10
ENDBRANCH   8   9
ENDBRANCH   2   8
BRANCH   1  23
HETATM   23  C   UNL     1      -7.893   2.879 -31.133  1.00  0.00     0.138 C 
BRANCH  23  24
HETATM   24  C   UNL     1      -6.934   1.723 -31.343  1.00  0.00     0.224 C 
HETATM   25  N   UNL     1      -6.568   1.546 -32.659  1.00  0.00    -0.327 N 
HETATM   26  H   UNL     1      -6.721   2.321 -33.304  1.00  0.00     0.169 HD
HETATM   27  O   UNL     1      -6.576   1.050 -30.380  1.00  0.00    -0.273 OA
BRANCH  25  28
HETATM   28  C   UNL     1      -5.947   0.421 -33.236  1.00  0.00     0.034 A 
HETATM   29  C   UNL     1      -4.625   0.051 -33.002  1.00  0.00     0.032 A 
HETATM   30  C   UNL     1      -4.122  -1.137 -33.549  1.00  0.00     0.039 A 
HETATM   31  C   UNL     1      -4.927  -1.965 -34.333  1.00  0.00     0.068 A 
HETATM   32  C   UNL     1      -6.242  -1.583 -34.589  1.00  0.00     0.039 A 
HETATM   33  C   UNL     1      -6.748  -0.400 -34.040  1.00  0.00     0.032 A 
BRANCH  31  34
HETATM   34  O   UNL     1      -4.323  -3.107 -34.779  1.00  0.00    -0.352 OA
BRANCH  34  35
HETATM   35  C   UNL     1      -4.813  -4.343 -34.261  1.00  0.00     0.171 C 
HETATM   36  C   UNL     1      -3.686  -5.021 -33.502  1.00  0.00     0.034 C 
ENDBRANCH  34  35
ENDBRANCH  31  34
ENDBRANCH  25  28
ENDBRANCH  23  24
ENDBRANCH   1  23
BRANCH   5  37
HETATM   37  C   UNL     1     -10.561   5.521 -33.839  1.00  0.00     0.045 A 
HETATM   38  C   UNL     1     -10.415   6.510 -34.827  1.00  0.00     0.032 A 
HETATM   39  C   UNL     1     -11.479   6.870 -35.666  1.00  0.00     0.026 A 
HETATM   40  C   UNL     1     -12.713   6.248 -35.529  1.00  0.00     0.034 A 
HETATM   41 CL   UNL     1     -14.021   6.690 -36.550  1.00  0.00    -0.084 Cl
HETATM   42  C   UNL     1     -12.891   5.274 -34.554  1.00  0.00     0.026 A 
HETATM   43  C   UNL     1     -11.827   4.923 -33.713  1.00  0.00     0.032 A 
ENDBRANCH   5  37
TORSDOF 11
ENDMDL
MODEL 6
REMARK VINA RESULT:      -9.1      4.199      7.804
REMARK  11 active torsions:
REMARK  status: ('A' for Active; 'I' for Inactive)
REMARK    1  A    between atoms: C_2  and  O_3 
REMARK    2  A    between atoms: O_3  and  C_4 
REMARK    3  A    between atoms: C_7  and  N_8 
REMARK       I    between atoms: N_8  and  C_9 
REMARK    4  A    between atoms: C_9  and  C_10 
REMARK    5  A    between atoms: C_10  and  C_11 
REMARK    6  A    between atoms: N_12  and  C_13 
REMARK    7  A    between atoms: C_13  and  C_14 
REMARK    8  A    between atoms: C_14  and  C_15 
REMARK    9  A    between atoms: C_15  and  N_16 
REMARK   10  A    between atoms: C_20  and  C_21 
REMARK       I    between atoms: C_21  and  N_22 
REMARK   11  A    between atoms: N_28  and  C_29 
ROOT
HETATM    1  C   UNL     1     -10.259   3.170 -33.222  1.00  0.00     0.188 C 
HETATM    2  N   UNL     1     -10.675   4.041 -32.129  1.00  0.00    -0.344 N 
HETATM    3  C   UNL     1     -11.565   5.032 -32.590  1.00  0.00     0.184 C 
HETATM    4  S   UNL     1     -12.590   5.882 -31.575  1.00  0.00    -0.040 SA
HETATM    5  N   UNL     1     -11.468   5.073 -33.978  1.00  0.00    -0.257 N 
HETATM    6  C   UNL     1     -10.721   3.996 -34.416  1.00  0.00     0.254 C 
HETATM    7  O   UNL     1     -10.482   3.640 -35.566  1.00  0.00    -0.270 OA
ENDROOT
BRANCH   2   8
HETATM    8  C   UNL     1     -10.353   3.691 -30.739  1.00  0.00     0.128 C 
BRANCH   8   9
HETATM    9  C   UNL     1      -8.856   3.401 -30.530  1.00  0.00     0.048 C 
BRANCH   9  10
HETATM   10  C   UNL     1      -7.950   4.519 -31.058  1.00  0.00     0.236 C 
BRANCH  10  11
HETATM   11  N   UNL     1      -6.583   3.985 -31.467  1.00  0.00    -0.071 N 
HETATM   12  H   UNL     1      -6.401   3.120 -30.944  1.00  0.00     0.279 HD
HETATM   13  C   UNL     1      -6.533   3.673 -32.950  1.00  0.00     0.235 C 
HETATM   14  C   UNL     1      -5.174   3.085 -33.308  1.00  0.00     0.042 C 
HETATM   15  C   UNL     1      -4.034   4.038 -32.946  1.00  0.00     0.081 C 
HETATM   16  C   UNL     1      -4.128   4.446 -31.473  1.00  0.00     0.042 C 
HETATM   17  C   UNL     1      -5.501   4.975 -31.071  1.00  0.00     0.235 C 
BRANCH  15  18
HETATM   18  C   UNL     1      -4.064   5.252 -33.863  1.00  0.00     0.219 C 
HETATM   19  N   UNL     1      -3.327   6.318 -33.453  1.00  0.00    -0.370 N 
HETATM   20  H   UNL     1      -3.070   6.460 -32.484  1.00  0.00     0.159 HD
HETATM   21  H   UNL     1      -3.387   7.157 -34.022  1.00  0.00     0.159 HD
HETATM   22  O   UNL     1      -4.620   5.248 -34.954  1.00  0.00    -0.273 OA
ENDBRANCH  15  18
ENDBRANCH  10  11
ENDBRANCH   9  10
ENDBRANCH   8   9
ENDBRANCH   2   8
BRANCH   1  23
HETATM   23  C   UNL     1     -11.009   1.844 -33.231  1.00  0.00     0.138 C 
BRANCH  23  24
HETATM   24  C   UNL     1     -10.077   0.661 -33.054  1.00  0.00     0.224 C 
HETATM   25  N   UNL     1      -8.754   0.964 -33.290  1.00  0.00    -0.327 N 
HETATM   26  H   UNL     1      -8.482   1.947 -33.278  1.00  0.00     0.169 HD
HETATM   27  O   UNL     1     -10.539  -0.433 -32.742  1.00  0.00    -0.273 OA
BRANCH  25  28
HETATM   28  C   UNL     1      -7.690   0.067 -33.502  1.00  0.00     0.034 A 
HETATM   29  C   UNL     1      -7.444  -0.585 -34.709  1.00  0.00     0.032 A 
HETATM   30  C   UNL     1      -6.306  -1.390 -34.852  1.00  0.00     0.039 A 
HETATM   31  C   UNL     1      -5.405  -1.555 -33.798  1.00  0.00     0.068 A 
HETATM   32  C   UNL     1      -5.663  -0.925 -32.584  1.00  0.00     0.039 A 
HETATM   33  C   UNL     1      -6.795  -0.117 -32.440  1.00  0.00     0.032 A 
BRANCH  31  34
HETATM   34  O   UNL     1      -4.323  -2.341 -34.080  1.00  0.00    -0.352 OA
BRANCH  34  35
HETATM   35  C   UNL     1      -4.572  -3.729 -34.303  1.00  0.00     0.171 C 
HETATM   36  C   UNL     1      -3.558  -4.528 -33.506  1.00  0.00     0.034 C 
ENDBRANCH  34  35
ENDBRANCH  31  34
ENDBRANCH  25  28
ENDBRANCH  23  24
ENDBRANCH   1  23
BRANCH   5  37
HETATM   37  C   UNL     1     -12.003   6.057 -34.869  1.00  0.00     0.045 A 
HETATM   38  C   UNL     1     -13.292   5.923 -35.415  1.00  0.00     0.032 A 
HETATM   39  C   UNL     1     -13.805   6.861 -36.322  1.00  0.00     0.026 A 
HETATM   40  C   UNL     1     -13.034   7.952 -36.702  1.00  0.00     0.034 A 
HETATM   41 CL   UNL     1     -13.656   9.100 -37.817  1.00  0.00    -0.084 Cl
HETATM   42  C   UNL     1     -11.753   8.106 -36.188  1.00  0.00     0.026 A 
HETATM   43  C   UNL     1     -11.242   7.161 -35.288  1.00  0.00     0.032 A 
ENDBRANCH   5  37
TORSDOF 11
ENDMDL
MODEL 7
REMARK VINA RESULT:      -9.0      3.197      8.672
REMARK  11 active torsions:
REMARK  status: ('A' for Active; 'I' for Inactive)
REMARK    1  A    between atoms: C_2  and  O_3 
REMARK    2  A    between atoms: O_3  and  C_4 
REMARK    3  A    between atoms: C_7  and  N_8 
REMARK       I    between atoms: N_8  and  C_9 
REMARK    4  A    between atoms: C_9  and  C_10 
REMARK    5  A    between atoms: C_10  and  C_11 
REMARK    6  A    between atoms: N_12  and  C_13 
REMARK    7  A    between atoms: C_13  and  C_14 
REMARK    8  A    between atoms: C_14  and  C_15 
REMARK    9  A    between atoms: C_15  and  N_16 
REMARK   10  A    between atoms: C_20  and  C_21 
REMARK       I    between atoms: C_21  and  N_22 
REMARK   11  A    between atoms: N_28  and  C_29 
ROOT
HETATM    1  C   UNL     1      -7.291   4.482 -30.565  1.00  0.00     0.188 C 
HETATM    2  N   UNL     1      -7.244   4.804 -31.986  1.00  0.00    -0.344 N 
HETATM    3  C   UNL     1      -5.912   4.943 -32.423  1.00  0.00     0.184 C 
HETATM    4  S   UNL     1      -5.463   4.839 -34.033  1.00  0.00    -0.040 SA
HETATM    5  N   UNL     1      -5.110   5.085 -31.294  1.00  0.00    -0.257 N 
HETATM    6  C   UNL     1      -5.859   4.815 -30.164  1.00  0.00     0.254 C 
HETATM    7  O   UNL     1      -5.496   4.753 -28.994  1.00  0.00    -0.270 OA
ENDROOT
BRANCH   2   8
HETATM    8  C   UNL     1      -8.460   4.719 -32.806  1.00  0.00     0.128 C 
BRANCH   8   9
HETATM    9  C   UNL     1      -9.696   5.303 -32.099  1.00  0.00     0.048 C 
BRANCH   9  10
HETATM   10  C   UNL     1     -10.857   4.307 -32.003  1.00  0.00     0.236 C 
BRANCH  10  11
HETATM   11  N   UNL     1     -11.025   3.516 -33.294  1.00  0.00    -0.071 N 
HETATM   12  H   UNL     1     -10.330   3.850 -33.973  1.00  0.00     0.279 HD
HETATM   13  C   UNL     1     -10.803   2.034 -33.066  1.00  0.00     0.235 C 
HETATM   14  C   UNL     1     -10.918   1.286 -34.389  1.00  0.00     0.042 C 
HETATM   15  C   UNL     1     -12.282   1.506 -35.045  1.00  0.00     0.081 C 
HETATM   16  C   UNL     1     -12.567   3.003 -35.190  1.00  0.00     0.042 C 
HETATM   17  C   UNL     1     -12.394   3.788 -33.894  1.00  0.00     0.235 C 
BRANCH  15  18
HETATM   18  C   UNL     1     -13.364   0.808 -34.234  1.00  0.00     0.219 C 
HETATM   19  N   UNL     1     -14.607   1.351 -34.323  1.00  0.00    -0.370 N 
HETATM   20  H   UNL     1     -14.761   2.315 -34.591  1.00  0.00     0.159 HD
HETATM   21  H   UNL     1     -15.326   0.935 -33.739  1.00  0.00     0.159 HD
HETATM   22  O   UNL     1     -13.170  -0.236 -33.626  1.00  0.00    -0.273 OA
ENDBRANCH  15  18
ENDBRANCH  10  11
ENDBRANCH   9  10
ENDBRANCH   8   9
ENDBRANCH   2   8
BRANCH   1  23
HETATM   23  C   UNL     1      -7.534   3.000 -30.308  1.00  0.00     0.138 C 
BRANCH  23  24
HETATM   24  C   UNL     1      -6.551   2.123 -31.060  1.00  0.00     0.224 C 
HETATM   25  N   UNL     1      -7.048   1.635 -32.248  1.00  0.00    -0.327 N 
HETATM   26  H   UNL     1      -7.864   2.097 -32.648  1.00  0.00     0.169 HD
HETATM   27  O   UNL     1      -5.441   1.908 -30.579  1.00  0.00    -0.273 OA
BRANCH  25  28
HETATM   28  C   UNL     1      -6.532   0.583 -33.029  1.00  0.00     0.034 A 
HETATM   29  C   UNL     1      -5.422  -0.182 -32.677  1.00  0.00     0.032 A 
HETATM   30  C   UNL     1      -5.037  -1.268 -33.474  1.00  0.00     0.039 A 
HETATM   31  C   UNL     1      -5.751  -1.603 -34.626  1.00  0.00     0.068 A 
HETATM   32  C   UNL     1      -6.845  -0.824 -34.994  1.00  0.00     0.039 A 
HETATM   33  C   UNL     1      -7.234   0.258 -34.197  1.00  0.00     0.032 A 
BRANCH  31  34
HETATM   34  O   UNL     1      -5.288  -2.702 -35.295  1.00  0.00    -0.352 OA
BRANCH  34  35
HETATM   35  C   UNL     1      -5.433  -3.964 -34.643  1.00  0.00     0.171 C 
HETATM   36  C   UNL     1      -6.790  -4.535 -35.010  1.00  0.00     0.034 C 
ENDBRANCH  34  35
ENDBRANCH  31  34
ENDBRANCH  25  28
ENDBRANCH  23  24
ENDBRANCH   1  23
BRANCH   5  37
HETATM   37  C   UNL     1      -3.734   5.474 -31.235  1.00  0.00     0.045 A 
HETATM   38  C   UNL     1      -3.363   6.801 -30.955  1.00  0.00     0.032 A 
HETATM   39  C   UNL     1      -2.019   7.199 -30.939  1.00  0.00     0.026 A 
HETATM   40  C   UNL     1      -1.018   6.273 -31.206  1.00  0.00     0.034 A 
HETATM   41 CL   UNL     1       0.629   6.757 -31.193  1.00  0.00    -0.084 Cl
HETATM   42  C   UNL     1      -1.354   4.957 -31.497  1.00  0.00     0.026 A 
HETATM   43  C   UNL     1      -2.700   4.567 -31.519  1.00  0.00     0.032 A 
ENDBRANCH   5  37
TORSDOF 11
ENDMDL
MODEL 8
REMARK VINA RESULT:      -8.9      4.319      7.791
REMARK  11 active torsions:
REMARK  status: ('A' for Active; 'I' for Inactive)
REMARK    1  A    between atoms: C_2  and  O_3 
REMARK    2  A    between atoms: O_3  and  C_4 
REMARK    3  A    between atoms: C_7  and  N_8 
REMARK       I    between atoms: N_8  and  C_9 
REMARK    4  A    between atoms: C_9  and  C_10 
REMARK    5  A    between atoms: C_10  and  C_11 
REMARK    6  A    between atoms: N_12  and  C_13 
REMARK    7  A    between atoms: C_13  and  C_14 
REMARK    8  A    between atoms: C_14  and  C_15 
REMARK    9  A    between atoms: C_15  and  N_16 
REMARK   10  A    between atoms: C_20  and  C_21 
REMARK       I    between atoms: C_21  and  N_22 
REMARK   11  A    between atoms: N_28  and  C_29 
ROOT
HETATM    1  C   UNL     1      -7.395   2.345 -33.549  1.00  0.00     0.188 C 
HETATM    2  N   UNL     1      -7.392   1.856 -32.175  1.00  0.00    -0.344 N 
HETATM    3  C   UNL     1      -6.728   0.616 -32.088  1.00  0.00     0.184 C 
HETATM    4  S   UNL     1      -6.127   0.001 -30.651  1.00  0.00    -0.040 SA
HETATM    5  N   UNL     1      -6.617   0.105 -33.378  1.00  0.00    -0.257 N 
HETATM    6  C   UNL     1      -6.984   1.078 -34.289  1.00  0.00     0.254 C 
HETATM    7  O   UNL     1      -6.943   1.043 -35.514  1.00  0.00    -0.270 OA
ENDROOT
BRANCH   2   8
HETATM    8  C   UNL     1      -7.823   2.729 -31.076  1.00  0.00     0.128 C 
BRANCH   8   9
HETATM    9  C   UNL     1      -9.304   2.535 -30.707  1.00  0.00     0.048 C 
BRANCH   9  10
HETATM   10  C   UNL     1     -10.219   3.598 -31.324  1.00  0.00     0.236 C 
BRANCH  10  11
HETATM   11  N   UNL     1     -11.403   2.968 -32.046  1.00  0.00    -0.071 N 
HETATM   12  H   UNL     1     -11.868   2.316 -31.403  1.00  0.00     0.279 HD
HETATM   13  C   UNL     1     -12.408   4.018 -32.480  1.00  0.00     0.235 C 
HETATM   14  C   UNL     1     -13.603   3.344 -33.142  1.00  0.00     0.042 C 
HETATM   15  C   UNL     1     -13.182   2.508 -34.351  1.00  0.00     0.081 C 
HETATM   16  C   UNL     1     -12.091   1.509 -33.953  1.00  0.00     0.042 C 
HETATM   17  C   UNL     1     -10.912   2.148 -33.227  1.00  0.00     0.235 C 
BRANCH  15  18
HETATM   18  C   UNL     1     -12.717   3.422 -35.475  1.00  0.00     0.219 C 
HETATM   19  N   UNL     1     -12.009   2.820 -36.467  1.00  0.00    -0.370 N 
HETATM   20  H   UNL     1     -11.516   1.946 -36.331  1.00  0.00     0.159 HD
HETATM   21  H   UNL     1     -11.639   3.428 -37.193  1.00  0.00     0.159 HD
HETATM   22  O   UNL     1     -13.043   4.599 -35.553  1.00  0.00    -0.273 OA
ENDBRANCH  15  18
ENDBRANCH  10  11
ENDBRANCH   9  10
ENDBRANCH   8   9
ENDBRANCH   2   8
BRANCH   1  23
HETATM   23  C   UNL     1      -6.336   3.413 -33.791  1.00  0.00     0.138 C 
BRANCH  23  24
HETATM   24  C   UNL     1      -6.936   4.803 -33.873  1.00  0.00     0.224 C 
HETATM   25  N   UNL     1      -8.312   4.812 -33.804  1.00  0.00    -0.327 N 
HETATM   26  H   UNL     1      -8.775   3.981 -33.436  1.00  0.00     0.169 HD
HETATM   27  O   UNL     1      -6.198   5.776 -34.002  1.00  0.00    -0.273 OA
BRANCH  25  28
HETATM   28  C   UNL     1      -9.184   5.866 -34.138  1.00  0.00     0.034 A 
HETATM   29  C   UNL     1      -9.849   5.975 -35.358  1.00  0.00     0.032 A 
HETATM   30  C   UNL     1     -10.768   7.012 -35.565  1.00  0.00     0.039 A 
HETATM   31  C   UNL     1     -11.034   7.948 -34.563  1.00  0.00     0.068 A 
HETATM   32  C   UNL     1     -10.351   7.855 -33.353  1.00  0.00     0.039 A 
HETATM   33  C   UNL     1      -9.436   6.818 -33.142  1.00  0.00     0.032 A 
BRANCH  31  34
HETATM   34  O   UNL     1     -11.973   8.888 -34.884  1.00  0.00    -0.352 OA
BRANCH  34  35
HETATM   35  C   UNL     1     -12.184   9.143 -36.273  1.00  0.00     0.171 C 
HETATM   36  C   UNL     1     -11.716  10.555 -36.573  1.00  0.00     0.034 C 
ENDBRANCH  34  35
ENDBRANCH  31  34
ENDBRANCH  25  28
ENDBRANCH  23  24
ENDBRANCH   1  23
BRANCH   5  37
HETATM   37  C   UNL     1      -6.224  -1.214 -33.772  1.00  0.00     0.045 A 
HETATM   38  C   UNL     1      -4.870  -1.593 -33.800  1.00  0.00     0.032 A 
HETATM   39  C   UNL     1      -4.475  -2.869 -34.226  1.00  0.00     0.026 A 
HETATM   40  C   UNL     1      -5.430  -3.790 -34.636  1.00  0.00     0.034 A 
HETATM   41 CL   UNL     1      -4.951  -5.352 -35.165  1.00  0.00    -0.084 Cl
HETATM   42  C   UNL     1      -6.775  -3.441 -34.631  1.00  0.00     0.026 A 
HETATM   43  C   UNL     1      -7.163  -2.162 -34.211  1.00  0.00     0.032 A 
ENDBRANCH   5  37
TORSDOF 11
ENDMDL
MODEL 9
REMARK VINA RESULT:      -8.9      3.619      8.683
REMARK  11 active torsions:
REMARK  status: ('A' for Active; 'I' for Inactive)
REMARK    1  A    between atoms: C_2  and  O_3 
REMARK    2  A    between atoms: O_3  and  C_4 
REMARK    3  A    between atoms: C_7  and  N_8 
REMARK       I    between atoms: N_8  and  C_9 
REMARK    4  A    between atoms: C_9  and  C_10 
REMARK    5  A    between atoms: C_10  and  C_11 
REMARK    6  A    between atoms: N_12  and  C_13 
REMARK    7  A    between atoms: C_13  and  C_14 
REMARK    8  A    between atoms: C_14  and  C_15 
REMARK    9  A    between atoms: C_15  and  N_16 
REMARK   10  A    between atoms: C_20  and  C_21 
REMARK       I    between atoms: C_21  and  N_22 
REMARK   11  A    between atoms: N_28  and  C_29 
ROOT
HETATM    1  C   UNL     1      -5.075   4.699 -31.266  1.00  0.00     0.188 C 
HETATM    2  N   UNL     1      -5.781   5.740 -30.528  1.00  0.00    -0.344 N 
HETATM    3  C   UNL     1      -4.890   6.753 -30.118  1.00  0.00     0.184 C 
HETATM    4  S   UNL     1      -5.394   8.289 -29.682  1.00  0.00    -0.040 SA
HETATM    5  N   UNL     1      -3.597   6.251 -30.235  1.00  0.00    -0.257 N 
HETATM    6  C   UNL     1      -3.634   5.046 -30.913  1.00  0.00     0.254 C 
HETATM    7  O   UNL     1      -2.701   4.341 -31.283  1.00  0.00    -0.270 OA
ENDROOT
BRANCH   2   8
HETATM    8  C   UNL     1      -7.249   5.760 -30.495  1.00  0.00     0.128 C 
BRANCH   8   9
HETATM    9  C   UNL     1      -7.859   4.363 -30.280  1.00  0.00     0.048 C 
BRANCH   9  10
HETATM   10  C   UNL     1      -9.377   4.398 -30.077  1.00  0.00     0.236 C 
BRANCH  10  11
HETATM   11  N   UNL     1     -10.074   3.300 -30.870  1.00  0.00    -0.071 N 
HETATM   12  H   UNL     1     -10.657   2.752 -30.225  1.00  0.00     0.279 HD
HETATM   13  C   UNL     1     -10.965   3.881 -31.951  1.00  0.00     0.235 C 
HETATM   14  C   UNL     1     -11.691   2.756 -32.680  1.00  0.00     0.042 C 
HETATM   15  C   UNL     1     -10.710   1.763 -33.304  1.00  0.00     0.081 C 
HETATM   16  C   UNL     1      -9.734   1.242 -32.244  1.00  0.00     0.042 C 
HETATM   17  C   UNL     1      -9.043   2.347 -31.452  1.00  0.00     0.235 C 
BRANCH  15  18
HETATM   18  C   UNL     1      -9.975   2.420 -34.463  1.00  0.00     0.219 C 
HETATM   19  N   UNL     1     -10.750   3.123 -35.329  1.00  0.00    -0.370 N 
HETATM   20  H   UNL     1     -11.743   2.951 -35.432  1.00  0.00     0.159 HD
HETATM   21  H   UNL     1     -10.283   3.514 -36.141  1.00  0.00     0.159 HD
HETATM   22  O   UNL     1      -8.754   2.417 -34.562  1.00  0.00    -0.273 OA
ENDBRANCH  15  18
ENDBRANCH  10  11
ENDBRANCH   9  10
ENDBRANCH   8   9
ENDBRANCH   2   8
BRANCH   1  23
HETATM   23  C   UNL     1      -5.250   4.829 -32.773  1.00  0.00     0.138 C 
BRANCH  23  24
HETATM   24  C   UNL     1      -5.495   3.488 -33.436  1.00  0.00     0.224 C 
HETATM   25  N   UNL     1      -5.456   2.426 -32.559  1.00  0.00    -0.327 N 
HETATM   26  H   UNL     1      -5.551   2.628 -31.564  1.00  0.00     0.169 HD
HETATM   27  O   UNL     1      -5.688   3.437 -34.648  1.00  0.00    -0.273 OA
BRANCH  25  28
HETATM   28  C   UNL     1      -5.347   1.057 -32.870  1.00  0.00     0.034 A 
HETATM   29  C   UNL     1      -6.397   0.278 -33.351  1.00  0.00     0.032 A 
HETATM   30  C   UNL     1      -6.171  -1.055 -33.718  1.00  0.00     0.039 A 
HETATM   31  C   UNL     1      -4.900  -1.625 -33.610  1.00  0.00     0.068 A 
HETATM   32  C   UNL     1      -3.855  -0.855 -33.105  1.00  0.00     0.039 A 
HETATM   33  C   UNL     1      -4.078   0.477 -32.742  1.00  0.00     0.032 A 
BRANCH  31  34
HETATM   34  O   UNL     1      -4.810  -2.922 -34.031  1.00  0.00    -0.352 OA
BRANCH  34  35
HETATM   35  C   UNL     1      -5.541  -3.273 -35.206  1.00  0.00     0.171 C 
HETATM   36  C   UNL     1      -6.311  -4.550 -34.922  1.00  0.00     0.034 C 
ENDBRANCH  34  35
ENDBRANCH  31  34
ENDBRANCH  25  28
ENDBRANCH  23  24
ENDBRANCH   1  23
BRANCH   5  37
HETATM   37  C   UNL     1      -2.384   6.819 -29.732  1.00  0.00     0.045 A 
HETATM   38  C   UNL     1      -1.268   7.012 -30.567  1.00  0.00     0.032 A 
HETATM   39  C   UNL     1      -0.063   7.527 -30.070  1.00  0.00     0.026 A 
HETATM   40  C   UNL     1       0.050   7.857 -28.726  1.00  0.00     0.034 A 
HETATM   41 CL   UNL     1       1.527   8.483 -28.113  1.00  0.00    -0.084 Cl
HETATM   42  C   UNL     1      -1.031   7.667 -27.874  1.00  0.00     0.026 A 
HETATM   43  C   UNL     1      -2.231   7.145 -28.374  1.00  0.00     0.032 A 
ENDBRANCH   5  37
TORSDOF 11
ENDMDL
MODEL 10
REMARK VINA RESULT:      -8.9      3.456      9.700
REMARK  11 active torsions:
REMARK  status: ('A' for Active; 'I' for Inactive)
REMARK    1  A    between atoms: C_2  and  O_3 
REMARK    2  A    between atoms: O_3  and  C_4 
REMARK    3  A    between atoms: C_7  and  N_8 
REMARK       I    between atoms: N_8  and  C_9 
REMARK    4  A    between atoms: C_9  and  C_10 
REMARK    5  A    between atoms: C_10  and  C_11 
REMARK    6  A    between atoms: N_12  and  C_13 
REMARK    7  A    between atoms: C_13  and  C_14 
REMARK    8  A    between atoms: C_14  and  C_15 
REMARK    9  A    between atoms: C_15  and  N_16 
REMARK   10  A    between atoms: C_20  and  C_21 
REMARK       I    between atoms: C_21  and  N_22 
REMARK   11  A    between atoms: N_28  and  C_29 
ROOT
HETATM    1  C   UNL     1      -5.383   3.754 -31.689  1.00  0.00     0.188 C 
HETATM    2  N   UNL     1      -6.169   2.613 -31.233  1.00  0.00    -0.344 N 
HETATM    3  C   UNL     1      -7.439   2.606 -31.844  1.00  0.00     0.184 C 
HETATM    4  S   UNL     1      -8.401   1.238 -31.932  1.00  0.00    -0.040 SA
HETATM    5  N   UNL     1      -7.652   3.868 -32.391  1.00  0.00    -0.257 N 
HETATM    6  C   UNL     1      -6.476   4.592 -32.342  1.00  0.00     0.254 C 
HETATM    7  O   UNL     1      -6.237   5.707 -32.795  1.00  0.00    -0.270 OA
ENDROOT
BRANCH   2   8
HETATM    8  C   UNL     1      -5.538   1.547 -30.446  1.00  0.00     0.128 C 
BRANCH   8   9
HETATM    9  C   UNL     1      -4.634   0.634 -31.295  1.00  0.00     0.048 C 
BRANCH   9  10
HETATM   10  C   UNL     1      -5.236  -0.756 -31.526  1.00  0.00     0.236 C 
BRANCH  10  11
HETATM   11  N   UNL     1      -5.129  -1.177 -32.987  1.00  0.00    -0.071 N 
HETATM   12  H   UNL     1      -4.769  -0.382 -33.529  1.00  0.00     0.279 HD
HETATM   13  C   UNL     1      -4.180  -2.347 -33.156  1.00  0.00     0.235 C 
HETATM   14  C   UNL     1      -4.053  -2.697 -34.634  1.00  0.00     0.042 C 
HETATM   15  C   UNL     1      -5.409  -3.043 -35.251  1.00  0.00     0.081 C 
HETATM   16  C   UNL     1      -6.411  -1.913 -35.000  1.00  0.00     0.042 C 
HETATM   17  C   UNL     1      -6.509  -1.496 -33.536  1.00  0.00     0.235 C 
BRANCH  15  18
HETATM   18  C   UNL     1      -5.909  -4.367 -34.692  1.00  0.00     0.219 C 
HETATM   19  N   UNL     1      -7.259  -4.523 -34.669  1.00  0.00    -0.370 N 
HETATM   20  H   UNL     1      -7.897  -3.737 -34.673  1.00  0.00     0.159 HD
HETATM   21  H   UNL     1      -7.610  -5.375 -34.241  1.00  0.00     0.159 HD
HETATM   22  O   UNL     1      -5.159  -5.283 -34.381  1.00  0.00    -0.273 OA
ENDBRANCH  15  18
ENDBRANCH  10  11
ENDBRANCH   9  10
ENDBRANCH   8   9
ENDBRANCH   2   8
BRANCH   1  23
HETATM   23  C   UNL     1      -4.363   3.374 -32.755  1.00  0.00     0.138 C 
BRANCH  23  24
HETATM   24  C   UNL     1      -3.069   4.151 -32.608  1.00  0.00     0.224 C 
HETATM   25  N   UNL     1      -2.738   4.425 -31.299  1.00  0.00    -0.327 N 
HETATM   26  H   UNL     1      -3.192   3.876 -30.569  1.00  0.00     0.169 HD
HETATM   27  O   UNL     1      -2.442   4.479 -33.612  1.00  0.00    -0.273 OA
BRANCH  25  28
HETATM   28  C   UNL     1      -1.792   5.354 -30.827  1.00  0.00     0.034 A 
HETATM   29  C   UNL     1      -2.099   6.658 -30.444  1.00  0.00     0.032 A 
HETATM   30  C   UNL     1      -1.105   7.482 -29.900  1.00  0.00     0.039 A 
HETATM   31  C   UNL     1       0.201   7.017 -29.732  1.00  0.00     0.068 A 
HETATM   32  C   UNL     1       0.516   5.723 -30.138  1.00  0.00     0.039 A 
HETATM   33  C   UNL     1      -0.476   4.897 -30.677  1.00  0.00     0.032 A 
BRANCH  31  34
HETATM   34  O   UNL     1       1.065   7.911 -29.162  1.00  0.00    -0.352 OA
BRANCH  34  35
HETATM   35  C   UNL     1       0.745   8.372 -27.849  1.00  0.00     0.171 C 
HETATM   36  C   UNL     1       1.135   7.291 -26.858  1.00  0.00     0.034 C 
ENDBRANCH  34  35
ENDBRANCH  31  34
ENDBRANCH  25  28
ENDBRANCH  23  24
ENDBRANCH   1  23
BRANCH   5  37
HETATM   37  C   UNL     1      -8.872   4.408 -32.910  1.00  0.00     0.045 A 
HETATM   38  C   UNL     1      -9.178   4.330 -34.281  1.00  0.00     0.032 A 
HETATM   39  C   UNL     1     -10.351   4.895 -34.802  1.00  0.00     0.026 A 
HETATM   40  C   UNL     1     -11.239   5.552 -33.960  1.00  0.00     0.034 A 
HETATM   41 CL   UNL     1     -12.673   6.251 -34.595  1.00  0.00    -0.084 Cl
HETATM   42  C   UNL     1     -10.958   5.655 -32.603  1.00  0.00     0.026 A 
HETATM   43  C   UNL     1      -9.781   5.094 -32.089  1.00  0.00     0.032 A 
ENDBRANCH   5  37
TORSDOF 11
ENDMDL
