MODEL 1
REMARK VINA RESULT:      -8.6      0.000      0.000
REMARK  8 active torsions:
REMARK  status: ('A' for Active; 'I' for Inactive)
REMARK    1  A    between atoms: C_2  and  O_3 
REMARK    2  A    between atoms: O_3  and  C_4 
REMARK    3  A    between atoms: C_4  and  C_5 
REMARK    4  A    between atoms: C_6  and  C_7 
REMARK    5  A    between atoms: C_7  and  N_8 
REMARK    6  A    between atoms: C_12  and  N_13 
REMARK    7  A    between atoms: C_12  and  C_20 
REMARK       I    between atoms: C_20  and  N_21 
REMARK    8  A    between atoms: N_25  and  C_26 
ROOT
HETATM    1  N   UNL     1      -4.063   4.107 -31.573  1.00  0.00    -0.066 N 
HETATM    2  H   UNL     1      -4.401   4.481 -32.483  1.00  0.00     0.280 HD
HETATM    3  C   UNL     1      -3.239   2.881 -31.813  1.00  0.00     0.238 C 
HETATM    4  C   UNL     1      -4.085   1.830 -32.537  1.00  0.00     0.077 C 
HETATM    5  C   UNL     1      -5.372   1.470 -31.763  1.00  0.00     0.210 C 
HETATM    6  C   UNL     1      -6.142   2.789 -31.472  1.00  0.00     0.077 C 
HETATM    7  C   UNL     1      -5.286   3.827 -30.749  1.00  0.00     0.238 C 
ENDROOT
BRANCH   1   8
HETATM    8  C   UNL     1      -3.257   5.274 -31.000  1.00  0.00     0.294 C 
BRANCH   8   9
HETATM    9  C   UNL     1      -2.687   6.186 -32.028  1.00  0.00     0.080 C 
HETATM   10  C   UNL     1      -2.977   6.360 -33.384  1.00  0.00     0.085 C 
HETATM   11  C   UNL     1      -1.988   7.247 -33.844  1.00  0.00     0.159 C 
HETATM   12  N   UNL     1      -1.122   7.565 -32.890  1.00  0.00    -0.178 NA
HETATM   13  N   UNL     1      -1.663   7.095 -31.745  1.00  0.00    -0.235 N 
BRANCH  10  14
HETATM   14  C   UNL     1      -4.003   5.697 -34.166  1.00  0.00     0.296 C 
HETATM   15  O   UNL     1      -3.724   5.103 -35.206  1.00  0.00    -0.259 OA
BRANCH  14  16
HETATM   16  O   UNL     1      -5.251   5.880 -33.674  1.00  0.00    -0.318 OA
BRANCH  16  17
HETATM   17  C   UNL     1      -6.259   4.945 -34.092  1.00  0.00     0.174 C 
HETATM   18  C   UNL     1      -7.621   5.362 -33.565  1.00  0.00     0.034 C 
ENDBRANCH  16  17
ENDBRANCH  14  16
ENDBRANCH  10  14
BRANCH  13  19
HETATM   19  C   UNL     1      -1.054   7.415 -30.500  1.00  0.00     0.064 A 
HETATM   20  C   UNL     1       0.073   6.741 -29.991  1.00  0.00    -0.033 A 
HETATM   21  C   UNL     1       0.645   5.464 -30.540  1.00  0.00     0.050 C 
HETATM   22  C   UNL     1       0.649   7.216 -28.794  1.00  0.00     0.009 A 
HETATM   23  C   UNL     1       0.083   8.279 -28.090  1.00  0.00     0.001 A 
HETATM   24  C   UNL     1      -1.079   8.881 -28.557  1.00  0.00     0.002 A 
HETATM   25  C   UNL     1      -1.651   8.447 -29.751  1.00  0.00     0.032 A 
ENDBRANCH  13  19
ENDBRANCH   8   9
ENDBRANCH   1   8
BRANCH   5  26
HETATM   26  N   UNL     1      -6.320   0.569 -32.687  1.00  0.00    -0.053 N 
HETATM   27  H   UNL     1      -7.034   0.155 -32.071  1.00  0.00     0.281 HD
HETATM   28  C   UNL     1      -7.083   1.313 -33.776  1.00  0.00     0.236 C 
HETATM   29  C   UNL     1      -8.098   0.383 -34.429  1.00  0.00     0.028 C 
HETATM   30  C   UNL     1      -7.434  -0.854 -35.016  1.00  0.00     0.003 C 
HETATM   31  C   UNL     1      -6.592  -1.564 -33.967  1.00  0.00     0.028 C 
HETATM   32  C   UNL     1      -5.581  -0.623 -33.323  1.00  0.00     0.236 C 
ENDBRANCH   5  26
BRANCH   5  33
HETATM   33  C   UNL     1      -5.053   0.754 -30.417  1.00  0.00     0.252 C 
HETATM   34  N   UNL     1      -5.926   0.865 -29.382  1.00  0.00    -0.368 N 
HETATM   35  H   UNL     1      -6.812   1.354 -29.354  1.00  0.00     0.159 HD
HETATM   36  H   UNL     1      -5.662   0.405 -28.510  1.00  0.00     0.159 HD
HETATM   37  O   UNL     1      -4.008   0.127 -30.266  1.00  0.00    -0.271 OA
ENDBRANCH   5  33
TORSDOF 8
ENDMDL
MODEL 2
REMARK VINA RESULT:      -8.5      3.486      5.287
REMARK  8 active torsions:
REMARK  status: ('A' for Active; 'I' for Inactive)
REMARK    1  A    between atoms: C_2  and  O_3 
REMARK    2  A    between atoms: O_3  and  C_4 
REMARK    3  A    between atoms: C_4  and  C_5 
REMARK    4  A    between atoms: C_6  and  C_7 
REMARK    5  A    between atoms: C_7  and  N_8 
REMARK    6  A    between atoms: C_12  and  N_13 
REMARK    7  A    between atoms: C_12  and  C_20 
REMARK       I    between atoms: C_20  and  N_21 
REMARK    8  A    between atoms: N_25  and  C_26 
ROOT
HETATM    1  N   UNL     1      -6.490   1.586 -32.181  1.00  0.00    -0.066 N 
HETATM    2  H   UNL     1      -7.473   1.295 -32.355  1.00  0.00     0.280 HD
HETATM    3  C   UNL     1      -5.713   1.502 -33.459  1.00  0.00     0.238 C 
HETATM    4  C   UNL     1      -5.756   0.066 -33.988  1.00  0.00     0.077 C 
HETATM    5  C   UNL     1      -5.222  -0.960 -32.965  1.00  0.00     0.210 C 
HETATM    6  C   UNL     1      -6.008  -0.768 -31.638  1.00  0.00     0.077 C 
HETATM    7  C   UNL     1      -5.956   0.669 -31.120  1.00  0.00     0.238 C 
ENDROOT
BRANCH   1   8
HETATM    8  C   UNL     1      -6.641   3.016 -31.660  1.00  0.00     0.294 C 
BRANCH   8   9
HETATM    9  C   UNL     1      -7.498   3.889 -32.508  1.00  0.00     0.080 C 
HETATM   10  C   UNL     1      -8.882   3.930 -32.703  1.00  0.00     0.085 C 
HETATM   11  C   UNL     1      -9.062   4.857 -33.744  1.00  0.00     0.159 C 
HETATM   12  N   UNL     1      -7.906   5.320 -34.204  1.00  0.00    -0.178 NA
HETATM   13  N   UNL     1      -6.976   4.898 -33.321  1.00  0.00    -0.235 N 
BRANCH  10  14
HETATM   14  C   UNL     1      -9.895   3.124 -32.049  1.00  0.00     0.296 C 
HETATM   15  O   UNL     1     -10.025   3.138 -30.827  1.00  0.00    -0.259 OA
BRANCH  14  16
HETATM   16  O   UNL     1     -10.584   2.334 -32.907  1.00  0.00    -0.318 OA
BRANCH  16  17
HETATM   17  C   UNL     1      -9.843   1.301 -33.576  1.00  0.00     0.174 C 
HETATM   18  C   UNL     1      -9.720   0.076 -32.687  1.00  0.00     0.034 C 
ENDBRANCH  16  17
ENDBRANCH  14  16
ENDBRANCH  10  14
BRANCH  13  19
HETATM   19  C   UNL     1      -5.637   5.365 -33.438  1.00  0.00     0.064 A 
HETATM   20  C   UNL     1      -5.039   6.247 -32.516  1.00  0.00    -0.033 A 
HETATM   21  C   UNL     1      -5.764   7.002 -31.438  1.00  0.00     0.050 C 
HETATM   22  C   UNL     1      -3.673   6.558 -32.682  1.00  0.00     0.009 A 
HETATM   23  C   UNL     1      -2.944   6.067 -33.766  1.00  0.00     0.001 A 
HETATM   24  C   UNL     1      -3.568   5.269 -34.717  1.00  0.00     0.002 A 
HETATM   25  C   UNL     1      -4.909   4.925 -34.560  1.00  0.00     0.032 A 
ENDBRANCH  13  19
ENDBRANCH   8   9
ENDBRANCH   1   8
BRANCH   5  26
HETATM   26  N   UNL     1      -5.529  -2.444 -33.481  1.00  0.00    -0.053 N 
HETATM   27  H   UNL     1      -5.822  -2.992 -32.661  1.00  0.00     0.281 HD
HETATM   28  C   UNL     1      -6.659  -2.570 -34.497  1.00  0.00     0.236 C 
HETATM   29  C   UNL     1      -6.984  -4.039 -34.734  1.00  0.00     0.028 C 
HETATM   30  C   UNL     1      -5.768  -4.817 -35.215  1.00  0.00     0.003 C 
HETATM   31  C   UNL     1      -4.598  -4.631 -34.261  1.00  0.00     0.028 C 
HETATM   32  C   UNL     1      -4.282  -3.158 -34.034  1.00  0.00     0.236 C 
ENDBRANCH   5  26
BRANCH   5  33
HETATM   33  C   UNL     1      -3.700  -0.762 -32.693  1.00  0.00     0.252 C 
HETATM   34  N   UNL     1      -3.167  -1.224 -31.532  1.00  0.00    -0.368 N 
HETATM   35  H   UNL     1      -3.629  -1.720 -30.780  1.00  0.00     0.159 HD
HETATM   36  H   UNL     1      -2.174  -1.046 -31.382  1.00  0.00     0.159 HD
HETATM   37  O   UNL     1      -2.988  -0.162 -33.493  1.00  0.00    -0.271 OA
ENDBRANCH   5  33
TORSDOF 8
ENDMDL
MODEL 3
REMARK VINA RESULT:      -8.5      3.626      6.789
REMARK  8 active torsions:
REMARK  status: ('A' for Active; 'I' for Inactive)
REMARK    1  A    between atoms: C_2  and  O_3 
REMARK    2  A    between atoms: O_3  and  C_4 
REMARK    3  A    between atoms: C_4  and  C_5 
REMARK    4  A    between atoms: C_6  and  C_7 
REMARK    5  A    between atoms: C_7  and  N_8 
REMARK    6  A    between atoms: C_12  and  N_13 
REMARK    7  A    between atoms: C_12  and  C_20 
REMARK       I    between atoms: C_20  and  N_21 
REMARK    8  A    between atoms: N_25  and  C_26 
ROOT
HETATM    1  N   UNL     1      -7.872   1.554 -33.791  1.00  0.00    -0.066 N 
HETATM    2  H   UNL     1      -8.137   0.764 -34.414  1.00  0.00     0.280 HD
HETATM    3  C   UNL     1      -8.223   1.211 -32.376  1.00  0.00     0.238 C 
HETATM    4  C   UNL     1      -9.725   0.935 -32.275  1.00  0.00     0.077 C 
HETATM    5  C   UNL     1     -10.580   2.123 -32.769  1.00  0.00     0.210 C 
HETATM    6  C   UNL     1     -10.114   2.484 -34.208  1.00  0.00     0.077 C 
HETATM    7  C   UNL     1      -8.613   2.757 -34.293  1.00  0.00     0.238 C 
ENDROOT
BRANCH   1   8
HETATM    8  C   UNL     1      -6.366   1.687 -34.024  1.00  0.00     0.294 C 
BRANCH   8   9
HETATM    9  C   UNL     1      -5.536   0.754 -33.214  1.00  0.00     0.080 C 
HETATM   10  C   UNL     1      -5.464  -0.642 -33.183  1.00  0.00     0.085 C 
HETATM   11  C   UNL     1      -4.619  -0.925 -32.096  1.00  0.00     0.159 C 
HETATM   12  N   UNL     1      -4.234   0.177 -31.464  1.00  0.00    -0.178 NA
HETATM   13  N   UNL     1      -4.615   1.198 -32.262  1.00  0.00    -0.235 N 
BRANCH  10  14
HETATM   14  C   UNL     1      -6.179  -1.587 -34.018  1.00  0.00     0.296 C 
HETATM   15  O   UNL     1      -7.392  -1.751 -33.895  1.00  0.00    -0.259 OA
BRANCH  14  16
HETATM   16  O   UNL     1      -5.369  -2.289 -34.845  1.00  0.00    -0.318 OA
BRANCH  16  17
HETATM   17  C   UNL     1      -5.220  -3.692 -34.573  1.00  0.00     0.174 C 
HETATM   18  C   UNL     1      -6.229  -4.497 -35.373  1.00  0.00     0.034 C 
ENDBRANCH  16  17
ENDBRANCH  14  16
ENDBRANCH  10  14
BRANCH  13  19
HETATM   19  C   UNL     1      -4.205   2.523 -31.947  1.00  0.00     0.064 A 
HETATM   20  C   UNL     1      -4.842   3.324 -30.978  1.00  0.00    -0.033 A 
HETATM   21  C   UNL     1      -6.158   3.013 -30.321  1.00  0.00     0.050 C 
HETATM   22  C   UNL     1      -4.281   4.583 -30.681  1.00  0.00     0.009 A 
HETATM   23  C   UNL     1      -3.167   5.061 -31.371  1.00  0.00     0.001 A 
HETATM   24  C   UNL     1      -2.599   4.299 -32.385  1.00  0.00     0.002 A 
HETATM   25  C   UNL     1      -3.119   3.040 -32.678  1.00  0.00     0.032 A 
ENDBRANCH  13  19
ENDBRANCH   8   9
ENDBRANCH   1   8
BRANCH   5  26
HETATM   26  N   UNL     1     -12.114   1.674 -32.872  1.00  0.00    -0.053 N 
HETATM   27  H   UNL     1     -12.376   1.288 -31.954  1.00  0.00     0.281 HD
HETATM   28  C   UNL     1     -13.112   2.790 -33.159  1.00  0.00     0.236 C 
HETATM   29  C   UNL     1     -14.535   2.266 -33.015  1.00  0.00     0.028 C 
HETATM   30  C   UNL     1     -14.799   1.087 -33.939  1.00  0.00     0.003 C 
HETATM   31  C   UNL     1     -13.758  -0.003 -33.734  1.00  0.00     0.028 C 
HETATM   32  C   UNL     1     -12.340   0.534 -33.881  1.00  0.00     0.236 C 
ENDBRANCH   5  26
BRANCH   5  33
HETATM   33  C   UNL     1     -10.419   3.370 -31.849  1.00  0.00     0.252 C 
HETATM   34  N   UNL     1     -10.459   3.210 -30.501  1.00  0.00    -0.368 N 
HETATM   35  H   UNL     1     -10.565   2.355 -29.970  1.00  0.00     0.159 HD
HETATM   36  H   UNL     1     -10.379   4.057 -29.937  1.00  0.00     0.159 HD
HETATM   37  O   UNL     1     -10.298   4.495 -32.325  1.00  0.00    -0.271 OA
ENDBRANCH   5  33
TORSDOF 8
ENDMDL
MODEL 4
REMARK VINA RESULT:      -8.4      2.141      7.914
REMARK  8 active torsions:
REMARK  status: ('A' for Active; 'I' for Inactive)
REMARK    1  A    between atoms: C_2  and  O_3 
REMARK    2  A    between atoms: O_3  and  C_4 
REMARK    3  A    between atoms: C_4  and  C_5 
REMARK    4  A    between atoms: C_6  and  C_7 
REMARK    5  A    between atoms: C_7  and  N_8 
REMARK    6  A    between atoms: C_12  and  N_13 
REMARK    7  A    between atoms: C_12  and  C_20 
REMARK       I    between atoms: C_20  and  N_21 
REMARK    8  A    between atoms: N_25  and  C_26 
ROOT
HETATM    1  N   UNL     1      -4.624   4.317 -33.134  1.00  0.00    -0.066 N 
HETATM    2  H   UNL     1      -4.959   4.179 -32.159  1.00  0.00     0.280 HD
HETATM    3  C   UNL     1      -3.222   3.806 -33.256  1.00  0.00     0.238 C 
HETATM    4  C   UNL     1      -2.318   4.554 -32.272  1.00  0.00     0.077 C 
HETATM    5  C   UNL     1      -2.353   6.084 -32.481  1.00  0.00     0.210 C 
HETATM    6  C   UNL     1      -3.837   6.542 -32.427  1.00  0.00     0.077 C 
HETATM    7  C   UNL     1      -4.727   5.788 -33.414  1.00  0.00     0.238 C 
ENDROOT
BRANCH   1   8
HETATM    8  C   UNL     1      -5.632   3.519 -33.962  1.00  0.00     0.294 C 
BRANCH   8   9
HETATM    9  C   UNL     1      -6.861   3.129 -33.219  1.00  0.00     0.080 C 
HETATM   10  C   UNL     1      -8.011   3.847 -32.877  1.00  0.00     0.085 C 
HETATM   11  C   UNL     1      -8.729   2.979 -32.036  1.00  0.00     0.159 C 
HETATM   12  N   UNL     1      -8.078   1.843 -31.820  1.00  0.00    -0.178 NA
HETATM   13  N   UNL     1      -7.053   1.846 -32.699  1.00  0.00    -0.235 N 
BRANCH  10  14
HETATM   14  C   UNL     1      -8.340   5.216 -33.226  1.00  0.00     0.296 C 
HETATM   15  O   UNL     1      -8.435   6.085 -32.361  1.00  0.00    -0.259 OA
BRANCH  14  16
HETATM   16  O   UNL     1      -8.600   5.383 -34.543  1.00  0.00    -0.318 OA
BRANCH  16  17
HETATM   17  C   UNL     1      -9.953   5.706 -34.904  1.00  0.00     0.174 C 
HETATM   18  C   UNL     1     -10.699   4.455 -35.335  1.00  0.00     0.034 C 
ENDBRANCH  16  17
ENDBRANCH  14  16
ENDBRANCH  10  14
BRANCH  13  19
HETATM   19  C   UNL     1      -6.247   0.682 -32.838  1.00  0.00     0.064 A 
HETATM   20  C   UNL     1      -6.283  -0.157 -33.970  1.00  0.00    -0.033 A 
HETATM   21  C   UNL     1      -7.313  -0.100 -35.063  1.00  0.00     0.050 C 
HETATM   22  C   UNL     1      -5.363  -1.223 -34.038  1.00  0.00     0.009 A 
HETATM   23  C   UNL     1      -4.486  -1.492 -32.987  1.00  0.00     0.001 A 
HETATM   24  C   UNL     1      -4.519  -0.711 -31.839  1.00  0.00     0.002 A 
HETATM   25  C   UNL     1      -5.400   0.366 -31.759  1.00  0.00     0.032 A 
ENDBRANCH  13  19
ENDBRANCH   8   9
ENDBRANCH   1   8
BRANCH   5  26
HETATM   26  N   UNL     1      -1.594   6.808 -31.272  1.00  0.00    -0.053 N 
HETATM   27  H   UNL     1      -1.362   7.760 -31.590  1.00  0.00     0.281 HD
HETATM   28  C   UNL     1      -2.402   6.978 -29.991  1.00  0.00     0.236 C 
HETATM   29  C   UNL     1      -1.644   7.864 -29.011  1.00  0.00     0.028 C 
HETATM   30  C   UNL     1      -0.270   7.298 -28.684  1.00  0.00     0.003 C 
HETATM   31  C   UNL     1       0.521   7.035 -29.955  1.00  0.00     0.028 C 
HETATM   32  C   UNL     1      -0.247   6.147 -30.926  1.00  0.00     0.236 C 
ENDBRANCH   5  26
BRANCH   5  33
HETATM   33  C   UNL     1      -1.740   6.490 -33.855  1.00  0.00     0.252 C 
HETATM   34  N   UNL     1      -1.203   5.531 -34.653  1.00  0.00    -0.368 N 
HETATM   35  H   UNL     1      -1.152   4.533 -34.492  1.00  0.00     0.159 HD
HETATM   36  H   UNL     1      -0.786   5.846 -35.530  1.00  0.00     0.159 HD
HETATM   37  O   UNL     1      -1.700   7.666 -34.206  1.00  0.00    -0.271 OA
ENDBRANCH   5  33
TORSDOF 8
ENDMDL
MODEL 5
REMARK VINA RESULT:      -8.3      2.900      4.210
REMARK  8 active torsions:
REMARK  status: ('A' for Active; 'I' for Inactive)
REMARK    1  A    between atoms: C_2  and  O_3 
REMARK    2  A    between atoms: O_3  and  C_4 
REMARK    3  A    between atoms: C_4  and  C_5 
REMARK    4  A    between atoms: C_6  and  C_7 
REMARK    5  A    between atoms: C_7  and  N_8 
REMARK    6  A    between atoms: C_12  and  N_13 
REMARK    7  A    between atoms: C_12  and  C_20 
REMARK       I    between atoms: C_20  and  N_21 
REMARK    8  A    between atoms: N_25  and  C_26 
ROOT
HETATM    1  N   UNL     1      -4.654   2.401 -31.534  1.00  0.00    -0.066 N 
HETATM    2  H   UNL     1      -3.707   2.032 -31.755  1.00  0.00     0.280 HD
HETATM    3  C   UNL     1      -5.323   1.495 -30.547  1.00  0.00     0.238 C 
HETATM    4  C   UNL     1      -5.426   0.086 -31.135  1.00  0.00     0.077 C 
HETATM    5  C   UNL     1      -6.177   0.060 -32.484  1.00  0.00     0.210 C 
HETATM    6  C   UNL     1      -5.488   1.078 -33.437  1.00  0.00     0.077 C 
HETATM    7  C   UNL     1      -5.394   2.480 -32.837  1.00  0.00     0.238 C 
ENDROOT
BRANCH   1   8
HETATM    8  C   UNL     1      -4.359   3.793 -30.972  1.00  0.00     0.294 C 
BRANCH   8   9
HETATM    9  C   UNL     1      -5.295   4.851 -31.439  1.00  0.00     0.080 C 
HETATM   10  C   UNL     1      -6.614   5.150 -31.086  1.00  0.00     0.085 C 
HETATM   11  C   UNL     1      -7.001   6.152 -31.992  1.00  0.00     0.159 C 
HETATM   12  N   UNL     1      -6.044   6.428 -32.869  1.00  0.00    -0.178 NA
HETATM   13  N   UNL     1      -4.944   5.797 -32.407  1.00  0.00    -0.235 N 
BRANCH  10  14
HETATM   14  C   UNL     1      -7.434   4.502 -30.080  1.00  0.00     0.296 C 
HETATM   15  O   UNL     1      -7.377   4.844 -28.900  1.00  0.00    -0.259 OA
BRANCH  14  16
HETATM   16  O   UNL     1      -8.164   3.472 -30.568  1.00  0.00    -0.318 OA
BRANCH  16  17
HETATM   17  C   UNL     1      -9.590   3.552 -30.408  1.00  0.00     0.174 C 
HETATM   18  C   UNL     1     -10.282   3.430 -31.754  1.00  0.00     0.034 C 
ENDBRANCH  16  17
ENDBRANCH  14  16
ENDBRANCH  10  14
BRANCH  13  19
HETATM   19  C   UNL     1      -3.689   6.023 -33.038  1.00  0.00     0.064 A 
HETATM   20  C   UNL     1      -2.773   7.006 -32.614  1.00  0.00    -0.033 A 
HETATM   21  C   UNL     1      -3.064   8.097 -31.621  1.00  0.00     0.050 C 
HETATM   22  C   UNL     1      -1.518   7.067 -33.255  1.00  0.00     0.009 A 
HETATM   23  C   UNL     1      -1.209   6.229 -34.326  1.00  0.00     0.001 A 
HETATM   24  C   UNL     1      -2.153   5.322 -34.791  1.00  0.00     0.002 A 
HETATM   25  C   UNL     1      -3.390   5.223 -34.157  1.00  0.00     0.032 A 
ENDBRANCH  13  19
ENDBRANCH   8   9
ENDBRANCH   1   8
BRANCH   5  26
HETATM   26  N   UNL     1      -6.027  -1.386 -33.155  1.00  0.00    -0.053 N 
HETATM   27  H   UNL     1      -6.155  -2.080 -32.406  1.00  0.00     0.281 HD
HETATM   28  C   UNL     1      -7.057  -1.729 -34.225  1.00  0.00     0.236 C 
HETATM   29  C   UNL     1      -6.932  -3.195 -34.618  1.00  0.00     0.028 C 
HETATM   30  C   UNL     1      -5.535  -3.528 -35.121  1.00  0.00     0.003 C 
HETATM   31  C   UNL     1      -4.482  -3.110 -34.105  1.00  0.00     0.028 C 
HETATM   32  C   UNL     1      -4.619  -1.641 -33.722  1.00  0.00     0.236 C 
ENDBRANCH   5  26
BRANCH   5  33
HETATM   33  C   UNL     1      -7.677   0.449 -32.316  1.00  0.00     0.252 C 
HETATM   34  N   UNL     1      -8.281   0.258 -31.114  1.00  0.00    -0.368 N 
HETATM   35  H   UNL     1      -7.881  -0.102 -30.257  1.00  0.00     0.159 HD
HETATM   36  H   UNL     1      -9.272   0.498 -31.057  1.00  0.00     0.159 HD
HETATM   37  O   UNL     1      -8.327   0.886 -33.261  1.00  0.00    -0.271 OA
ENDBRANCH   5  33
TORSDOF 8
ENDMDL
MODEL 6
REMARK VINA RESULT:      -8.3      1.910      8.010
REMARK  8 active torsions:
REMARK  status: ('A' for Active; 'I' for Inactive)
REMARK    1  A    between atoms: C_2  and  O_3 
REMARK    2  A    between atoms: O_3  and  C_4 
REMARK    3  A    between atoms: C_4  and  C_5 
REMARK    4  A    between atoms: C_6  and  C_7 
REMARK    5  A    between atoms: C_7  and  N_8 
REMARK    6  A    between atoms: C_12  and  N_13 
REMARK    7  A    between atoms: C_12  and  C_20 
REMARK       I    between atoms: C_20  and  N_21 
REMARK    8  A    between atoms: N_25  and  C_26 
ROOT
HETATM    1  N   UNL     1      -4.564   4.133 -32.762  1.00  0.00    -0.066 N 
HETATM    2  H   UNL     1      -4.822   4.062 -31.757  1.00  0.00     0.280 HD
HETATM    3  C   UNL     1      -3.160   3.648 -32.952  1.00  0.00     0.238 C 
HETATM    4  C   UNL     1      -2.209   4.490 -32.098  1.00  0.00     0.077 C 
HETATM    5  C   UNL     1      -2.304   5.999 -32.416  1.00  0.00     0.210 C 
HETATM    6  C   UNL     1      -3.794   6.424 -32.283  1.00  0.00     0.077 C 
HETATM    7  C   UNL     1      -4.731   5.575 -33.142  1.00  0.00     0.238 C 
ENDROOT
BRANCH   1   8
HETATM    8  C   UNL     1      -5.606   3.250 -33.449  1.00  0.00     0.294 C 
BRANCH   8   9
HETATM    9  C   UNL     1      -6.637   2.693 -32.532  1.00  0.00     0.080 C 
HETATM   10  C   UNL     1      -7.618   3.309 -31.749  1.00  0.00     0.085 C 
HETATM   11  C   UNL     1      -8.162   2.264 -30.982  1.00  0.00     0.159 C 
HETATM   12  N   UNL     1      -7.553   1.107 -31.214  1.00  0.00    -0.178 NA
HETATM   13  N   UNL     1      -6.778   1.322 -32.298  1.00  0.00    -0.235 N 
BRANCH  10  14
HETATM   14  C   UNL     1      -7.933   4.723 -31.669  1.00  0.00     0.296 C 
HETATM   15  O   UNL     1      -8.152   5.381 -32.684  1.00  0.00    -0.259 OA
BRANCH  14  16
HETATM   16  O   UNL     1      -7.874   5.213 -30.409  1.00  0.00    -0.318 OA
BRANCH  16  17
HETATM   17  C   UNL     1      -6.742   6.037 -30.085  1.00  0.00     0.174 C 
HETATM   18  C   UNL     1      -5.713   5.240 -29.302  1.00  0.00     0.034 C 
ENDBRANCH  16  17
ENDBRANCH  14  16
ENDBRANCH  10  14
BRANCH  13  19
HETATM   19  C   UNL     1      -6.109   0.226 -32.908  1.00  0.00     0.064 A 
HETATM   20  C   UNL     1      -4.885  -0.295 -32.441  1.00  0.00    -0.033 A 
HETATM   21  C   UNL     1      -4.000   0.352 -31.413  1.00  0.00     0.050 C 
HETATM   22  C   UNL     1      -4.371  -1.449 -33.067  1.00  0.00     0.009 A 
HETATM   23  C   UNL     1      -5.011  -2.025 -34.164  1.00  0.00     0.001 A 
HETATM   24  C   UNL     1      -6.170  -1.452 -34.671  1.00  0.00     0.002 A 
HETATM   25  C   UNL     1      -6.714  -0.328 -34.052  1.00  0.00     0.032 A 
ENDBRANCH  13  19
ENDBRANCH   8   9
ENDBRANCH   1   8
BRANCH   5  26
HETATM   26  N   UNL     1      -1.480   6.831 -31.325  1.00  0.00    -0.053 N 
HETATM   27  H   UNL     1      -1.259   7.744 -31.748  1.00  0.00     0.281 HD
HETATM   28  C   UNL     1      -2.221   7.137 -30.028  1.00  0.00     0.236 C 
HETATM   29  C   UNL     1      -1.408   8.107 -29.181  1.00  0.00     0.028 C 
HETATM   30  C   UNL     1      -0.023   7.562 -28.868  1.00  0.00     0.003 C 
HETATM   31  C   UNL     1       0.701   7.164 -30.146  1.00  0.00     0.028 C 
HETATM   32  C   UNL     1      -0.122   6.193 -30.983  1.00  0.00     0.236 C 
ENDBRANCH   5  26
BRANCH   5  33
HETATM   33  C   UNL     1      -1.807   6.314 -33.859  1.00  0.00     0.252 C 
HETATM   34  N   UNL     1      -1.402   5.295 -34.660  1.00  0.00    -0.368 N 
HETATM   35  H   UNL     1      -1.389   4.303 -34.460  1.00  0.00     0.159 HD
HETATM   36  H   UNL     1      -1.056   5.550 -35.586  1.00  0.00     0.159 HD
HETATM   37  O   UNL     1      -1.739   7.471 -34.265  1.00  0.00    -0.271 OA
ENDBRANCH   5  33
TORSDOF 8
ENDMDL
MODEL 7
REMARK VINA RESULT:      -8.1      2.182      7.950
REMARK  8 active torsions:
REMARK  status: ('A' for Active; 'I' for Inactive)
REMARK    1  A    between atoms: C_2  and  O_3 
REMARK    2  A    between atoms: O_3  and  C_4 
REMARK    3  A    between atoms: C_4  and  C_5 
REMARK    4  A    between atoms: C_6  and  C_7 
REMARK    5  A    between atoms: C_7  and  N_8 
REMARK    6  A    between atoms: C_12  and  N_13 
REMARK    7  A    between atoms: C_12  and  C_20 
REMARK       I    between atoms: C_20  and  N_21 
REMARK    8  A    between atoms: N_25  and  C_26 
ROOT
HETATM    1  N   UNL     1      -5.147   3.421 -33.230  1.00  0.00    -0.066 N 
HETATM    2  H   UNL     1      -4.324   3.004 -33.710  1.00  0.00     0.280 HD
HETATM    3  C   UNL     1      -5.137   4.906 -33.422  1.00  0.00     0.238 C 
HETATM    4  C   UNL     1      -3.840   5.485 -32.851  1.00  0.00     0.077 C 
HETATM    5  C   UNL     1      -3.639   5.134 -31.360  1.00  0.00     0.210 C 
HETATM    6  C   UNL     1      -3.743   3.589 -31.214  1.00  0.00     0.077 C 
HETATM    7  C   UNL     1      -5.042   3.026 -31.787  1.00  0.00     0.238 C 
ENDROOT
BRANCH   1   8
HETATM    8  C   UNL     1      -6.329   2.733 -33.914  1.00  0.00     0.294 C 
BRANCH   8   9
HETATM    9  C   UNL     1      -7.317   2.136 -32.975  1.00  0.00     0.080 C 
HETATM   10  C   UNL     1      -8.324   2.710 -32.193  1.00  0.00     0.085 C 
HETATM   11  C   UNL     1      -8.799   1.651 -31.400  1.00  0.00     0.159 C 
HETATM   12  N   UNL     1      -8.127   0.527 -31.616  1.00  0.00    -0.178 NA
HETATM   13  N   UNL     1      -7.376   0.764 -32.713  1.00  0.00    -0.235 N 
BRANCH  10  14
HETATM   14  C   UNL     1      -8.721   4.104 -32.137  1.00  0.00     0.296 C 
HETATM   15  O   UNL     1      -8.076   4.920 -31.482  1.00  0.00    -0.259 OA
BRANCH  14  16
HETATM   16  O   UNL     1      -9.877   4.357 -32.794  1.00  0.00    -0.318 OA
BRANCH  16  17
HETATM   17  C   UNL     1      -9.771   4.741 -34.174  1.00  0.00     0.174 C 
HETATM   18  C   UNL     1     -10.563   3.789 -35.052  1.00  0.00     0.034 C 
ENDBRANCH  16  17
ENDBRANCH  14  16
ENDBRANCH  10  14
BRANCH  13  19
HETATM   19  C   UNL     1      -6.650  -0.304 -33.309  1.00  0.00     0.064 A 
HETATM   20  C   UNL     1      -5.476  -0.850 -32.754  1.00  0.00    -0.033 A 
HETATM   21  C   UNL     1      -4.693  -0.255 -31.617  1.00  0.00     0.050 C 
HETATM   22  C   UNL     1      -4.903  -1.974 -33.383  1.00  0.00     0.009 A 
HETATM   23  C   UNL     1      -5.435  -2.495 -34.562  1.00  0.00     0.001 A 
HETATM   24  C   UNL     1      -6.543  -1.895 -35.148  1.00  0.00     0.002 A 
HETATM   25  C   UNL     1      -7.144  -0.800 -34.530  1.00  0.00     0.032 A 
ENDBRANCH  13  19
ENDBRANCH   8   9
ENDBRANCH   1   8
BRANCH   5  26
HETATM   26  N   UNL     1      -2.162   5.550 -30.905  1.00  0.00    -0.053 N 
HETATM   27  H   UNL     1      -2.001   5.123 -29.982  1.00  0.00     0.281 HD
HETATM   28  C   UNL     1      -1.030   5.056 -31.799  1.00  0.00     0.236 C 
HETATM   29  C   UNL     1       0.314   5.334 -31.139  1.00  0.00     0.028 C 
HETATM   30  C   UNL     1       0.501   6.814 -30.838  1.00  0.00     0.003 C 
HETATM   31  C   UNL     1      -0.665   7.350 -30.022  1.00  0.00     0.028 C 
HETATM   32  C   UNL     1      -2.003   7.066 -30.694  1.00  0.00     0.236 C 
ENDBRANCH   5  26
BRANCH   5  33
HETATM   33  C   UNL     1      -4.717   5.808 -30.460  1.00  0.00     0.252 C 
HETATM   34  N   UNL     1      -4.931   5.328 -29.207  1.00  0.00    -0.368 N 
HETATM   35  H   UNL     1      -4.460   4.567 -28.734  1.00  0.00     0.159 HD
HETATM   36  H   UNL     1      -5.667   5.780 -28.663  1.00  0.00     0.159 HD
HETATM   37  O   UNL     1      -5.400   6.738 -30.880  1.00  0.00    -0.271 OA
ENDBRANCH   5  33
TORSDOF 8
ENDMDL
MODEL 8
REMARK VINA RESULT:      -8.0      2.530      7.978
REMARK  8 active torsions:
REMARK  status: ('A' for Active; 'I' for Inactive)
REMARK    1  A    between atoms: C_2  and  O_3 
REMARK    2  A    between atoms: O_3  and  C_4 
REMARK    3  A    between atoms: C_4  and  C_5 
REMARK    4  A    between atoms: C_6  and  C_7 
REMARK    5  A    between atoms: C_7  and  N_8 
REMARK    6  A    between atoms: C_12  and  N_13 
REMARK    7  A    between atoms: C_12  and  C_20 
REMARK       I    between atoms: C_20  and  N_21 
REMARK    8  A    between atoms: N_25  and  C_26 
ROOT
HETATM    1  N   UNL     1      -5.624   3.045 -33.651  1.00  0.00    -0.066 N 
HETATM    2  H   UNL     1      -4.719   2.589 -33.883  1.00  0.00     0.280 HD
HETATM    3  C   UNL     1      -5.680   4.397 -34.293  1.00  0.00     0.238 C 
HETATM    4  C   UNL     1      -4.511   5.249 -33.791  1.00  0.00     0.077 C 
HETATM    5  C   UNL     1      -4.495   5.385 -32.252  1.00  0.00     0.210 C 
HETATM    6  C   UNL     1      -4.522   3.954 -31.644  1.00  0.00     0.077 C 
HETATM    7  C   UNL     1      -5.693   3.116 -32.153  1.00  0.00     0.238 C 
ENDROOT
BRANCH   1   8
HETATM    8  C   UNL     1      -6.657   2.067 -34.213  1.00  0.00     0.294 C 
BRANCH   8   9
HETATM    9  C   UNL     1      -7.530   1.440 -33.183  1.00  0.00     0.080 C 
HETATM   10  C   UNL     1      -8.805   1.771 -32.715  1.00  0.00     0.085 C 
HETATM   11  C   UNL     1      -9.016   0.904 -31.630  1.00  0.00     0.159 C 
HETATM   12  N   UNL     1      -7.961   0.134 -31.395  1.00  0.00    -0.178 NA
HETATM   13  N   UNL     1      -7.148   0.308 -32.458  1.00  0.00    -0.235 N 
BRANCH  10  14
HETATM   14  C   UNL     1      -9.672   2.838 -33.179  1.00  0.00     0.296 C 
HETATM   15  O   UNL     1      -9.249   3.721 -33.921  1.00  0.00    -0.259 OA
BRANCH  14  16
HETATM   16  O   UNL     1     -10.916   2.783 -32.647  1.00  0.00    -0.318 OA
BRANCH  16  17
HETATM   17  C   UNL     1     -12.004   2.565 -33.559  1.00  0.00     0.174 C 
HETATM   18  C   UNL     1     -12.228   1.078 -33.771  1.00  0.00     0.034 C 
ENDBRANCH  16  17
ENDBRANCH  14  16
ENDBRANCH  10  14
BRANCH  13  19
HETATM   19  C   UNL     1      -5.991  -0.508 -32.596  1.00  0.00     0.064 A 
HETATM   20  C   UNL     1      -5.824  -1.452 -33.628  1.00  0.00    -0.033 A 
HETATM   21  C   UNL     1      -6.901  -1.909 -34.572  1.00  0.00     0.050 C 
HETATM   22  C   UNL     1      -4.590  -2.128 -33.719  1.00  0.00     0.009 A 
HETATM   23  C   UNL     1      -3.581  -1.926 -32.777  1.00  0.00     0.001 A 
HETATM   24  C   UNL     1      -3.789  -1.057 -31.713  1.00  0.00     0.002 A 
HETATM   25  C   UNL     1      -4.990  -0.357 -31.617  1.00  0.00     0.032 A 
ENDBRANCH  13  19
ENDBRANCH   8   9
ENDBRANCH   1   8
BRANCH   5  26
HETATM   26  N   UNL     1      -3.122   6.066 -31.788  1.00  0.00    -0.053 N 
HETATM   27  H   UNL     1      -3.324   6.591 -30.926  1.00  0.00     0.281 HD
HETATM   28  C   UNL     1      -1.992   5.104 -31.439  1.00  0.00     0.236 C 
HETATM   29  C   UNL     1      -0.832   5.869 -30.813  1.00  0.00     0.028 C 
HETATM   30  C   UNL     1      -0.314   6.963 -31.735  1.00  0.00     0.003 C 
HETATM   31  C   UNL     1      -1.445   7.882 -32.169  1.00  0.00     0.028 C 
HETATM   32  C   UNL     1      -2.597   7.106 -32.794  1.00  0.00     0.236 C 
ENDBRANCH   5  26
BRANCH   5  33
HETATM   33  C   UNL     1      -5.725   6.187 -31.732  1.00  0.00     0.252 C 
HETATM   34  N   UNL     1      -6.395   7.004 -32.587  1.00  0.00    -0.368 N 
HETATM   35  H   UNL     1      -6.219   7.168 -33.570  1.00  0.00     0.159 HD
HETATM   36  H   UNL     1      -7.176   7.533 -32.197  1.00  0.00     0.159 HD
HETATM   37  O   UNL     1      -6.071   6.122 -30.556  1.00  0.00    -0.271 OA
ENDBRANCH   5  33
TORSDOF 8
ENDMDL
MODEL 9
REMARK VINA RESULT:      -7.8      2.500      8.002
REMARK  8 active torsions:
REMARK  status: ('A' for Active; 'I' for Inactive)
REMARK    1  A    between atoms: C_2  and  O_3 
REMARK    2  A    between atoms: O_3  and  C_4 
REMARK    3  A    between atoms: C_4  and  C_5 
REMARK    4  A    between atoms: C_6  and  C_7 
REMARK    5  A    between atoms: C_7  and  N_8 
REMARK    6  A    between atoms: C_12  and  N_13 
REMARK    7  A    between atoms: C_12  and  C_20 
REMARK       I    between atoms: C_20  and  N_21 
REMARK    8  A    between atoms: N_25  and  C_26 
ROOT
HETATM    1  N   UNL     1      -5.747   3.808 -33.239  1.00  0.00    -0.066 N 
HETATM    2  H   UNL     1      -6.547   4.449 -33.062  1.00  0.00     0.280 HD
HETATM    3  C   UNL     1      -5.145   3.391 -31.932  1.00  0.00     0.238 C 
HETATM    4  C   UNL     1      -4.674   4.631 -31.168  1.00  0.00     0.077 C 
HETATM    5  C   UNL     1      -3.668   5.479 -31.977  1.00  0.00     0.210 C 
HETATM    6  C   UNL     1      -4.316   5.810 -33.351  1.00  0.00     0.077 C 
HETATM    7  C   UNL     1      -4.780   4.564 -34.103  1.00  0.00     0.238 C 
ENDROOT
BRANCH   1   8
HETATM    8  C   UNL     1      -6.394   2.652 -34.002  1.00  0.00     0.294 C 
BRANCH   8   9
HETATM    9  C   UNL     1      -7.468   1.948 -33.250  1.00  0.00     0.080 C 
HETATM   10  C   UNL     1      -8.787   2.306 -32.955  1.00  0.00     0.085 C 
HETATM   11  C   UNL     1      -9.234   1.303 -32.077  1.00  0.00     0.159 C 
HETATM   12  N   UNL     1      -8.280   0.423 -31.798  1.00  0.00    -0.178 NA
HETATM   13  N   UNL     1      -7.282   0.691 -32.667  1.00  0.00    -0.235 N 
BRANCH  10  14
HETATM   14  C   UNL     1      -9.500   3.496 -33.375  1.00  0.00     0.296 C 
HETATM   15  O   UNL     1      -9.473   4.523 -32.700  1.00  0.00    -0.259 OA
BRANCH  14  16
HETATM   16  O   UNL     1     -10.229   3.312 -34.501  1.00  0.00    -0.318 OA
BRANCH  16  17
HETATM   17  C   UNL     1     -11.643   3.115 -34.335  1.00  0.00     0.174 C 
HETATM   18  C   UNL     1     -12.096   1.871 -35.079  1.00  0.00     0.034 C 
ENDBRANCH  16  17
ENDBRANCH  14  16
ENDBRANCH  10  14
BRANCH  13  19
HETATM   19  C   UNL     1      -6.164  -0.184 -32.741  1.00  0.00     0.064 A 
HETATM   20  C   UNL     1      -5.943  -1.075 -33.810  1.00  0.00    -0.033 A 
HETATM   21  C   UNL     1      -6.941  -1.409 -34.884  1.00  0.00     0.050 C 
HETATM   22  C   UNL     1      -4.745  -1.819 -33.821  1.00  0.00     0.009 A 
HETATM   23  C   UNL     1      -3.830  -1.736 -32.772  1.00  0.00     0.001 A 
HETATM   24  C   UNL     1      -4.099  -0.919 -31.680  1.00  0.00     0.002 A 
HETATM   25  C   UNL     1      -5.263  -0.152 -31.659  1.00  0.00     0.032 A 
ENDBRANCH  13  19
ENDBRANCH   8   9
ENDBRANCH   1   8
BRANCH   5  26
HETATM   26  N   UNL     1      -3.417   6.873 -31.230  1.00  0.00    -0.053 N 
HETATM   27  H   UNL     1      -2.827   6.672 -30.410  1.00  0.00     0.281 HD
HETATM   28  C   UNL     1      -2.672   7.931 -32.036  1.00  0.00     0.236 C 
HETATM   29  C   UNL     1      -2.314   9.111 -31.141  1.00  0.00     0.028 C 
HETATM   30  C   UNL     1      -3.548   9.726 -30.497  1.00  0.00     0.003 C 
HETATM   31  C   UNL     1      -4.357   8.668 -29.763  1.00  0.00     0.028 C 
HETATM   32  C   UNL     1      -4.708   7.495 -30.669  1.00  0.00     0.236 C 
ENDBRANCH   5  26
BRANCH   5  33
HETATM   33  C   UNL     1      -2.329   4.717 -32.211  1.00  0.00     0.252 C 
HETATM   34  N   UNL     1      -1.637   4.927 -33.361  1.00  0.00    -0.368 N 
HETATM   35  H   UNL     1      -1.860   5.552 -34.126  1.00  0.00     0.159 HD
HETATM   36  H   UNL     1      -0.782   4.385 -33.486  1.00  0.00     0.159 HD
HETATM   37  O   UNL     1      -1.914   3.902 -31.392  1.00  0.00    -0.271 OA
ENDBRANCH   5  33
TORSDOF 8
ENDMDL
MODEL 10
REMARK VINA RESULT:      -7.8     18.286     20.244
REMARK  8 active torsions:
REMARK  status: ('A' for Active; 'I' for Inactive)
REMARK    1  A    between atoms: C_2  and  O_3 
REMARK    2  A    between atoms: O_3  and  C_4 
REMARK    3  A    between atoms: C_4  and  C_5 
REMARK    4  A    between atoms: C_6  and  C_7 
REMARK    5  A    between atoms: C_7  and  N_8 
REMARK    6  A    between atoms: C_12  and  N_13 
REMARK    7  A    between atoms: C_12  and  C_20 
REMARK       I    between atoms: C_20  and  N_21 
REMARK    8  A    between atoms: N_25  and  C_26 
ROOT
HETATM    1  N   UNL     1      -6.235 -13.776 -36.217  1.00  0.00    -0.066 N 
HETATM    2  H   UNL     1      -5.345 -13.291 -36.450  1.00  0.00     0.280 HD
HETATM    3  C   UNL     1      -6.681 -13.368 -34.847  1.00  0.00     0.238 C 
HETATM    4  C   UNL     1      -5.598 -13.731 -33.829  1.00  0.00     0.077 C 
HETATM    5  C   UNL     1      -5.240 -15.234 -33.853  1.00  0.00     0.210 C 
HETATM    6  C   UNL     1      -4.867 -15.614 -35.314  1.00  0.00     0.077 C 
HETATM    7  C   UNL     1      -5.958 -15.247 -36.319  1.00  0.00     0.238 C 
ENDROOT
BRANCH   1   8
HETATM    8  C   UNL     1      -7.181 -13.307 -37.324  1.00  0.00     0.294 C 
BRANCH   8   9
HETATM    9  C   UNL     1      -6.498 -12.913 -38.586  1.00  0.00     0.080 C 
HETATM   10  C   UNL     1      -5.165 -12.600 -38.866  1.00  0.00     0.085 C 
HETATM   11  C   UNL     1      -5.182 -12.148 -40.196  1.00  0.00     0.159 C 
HETATM   12  N   UNL     1      -6.411 -12.122 -40.698  1.00  0.00    -0.178 NA
HETATM   13  N   UNL     1      -7.176 -12.781 -39.801  1.00  0.00    -0.235 N 
BRANCH  10  14
HETATM   14  C   UNL     1      -4.034 -12.637 -37.958  1.00  0.00     0.296 C 
HETATM   15  O   UNL     1      -4.087 -12.091 -36.858  1.00  0.00    -0.259 OA
BRANCH  14  16
HETATM   16  O   UNL     1      -2.945 -13.243 -38.486  1.00  0.00    -0.318 OA
BRANCH  16  17
HETATM   17  C   UNL     1      -1.663 -12.820 -37.993  1.00  0.00     0.174 C 
HETATM   18  C   UNL     1      -0.563 -13.712 -38.543  1.00  0.00     0.034 C 
ENDBRANCH  16  17
ENDBRANCH  14  16
ENDBRANCH  10  14
BRANCH  13  19
HETATM   19  C   UNL     1      -8.531 -13.074 -40.119  1.00  0.00     0.064 A 
HETATM   20  C   UNL     1      -8.978 -14.351 -40.513  1.00  0.00    -0.033 A 
HETATM   21  C   UNL     1      -8.092 -15.506 -40.886  1.00  0.00     0.050 C 
HETATM   22  C   UNL     1     -10.362 -14.543 -40.702  1.00  0.00     0.009 A 
HETATM   23  C   UNL     1     -11.265 -13.487 -40.574  1.00  0.00     0.001 A 
HETATM   24  C   UNL     1     -10.803 -12.212 -40.270  1.00  0.00     0.002 A 
HETATM   25  C   UNL     1      -9.443 -12.003 -40.051  1.00  0.00     0.032 A 
ENDBRANCH  13  19
ENDBRANCH   8   9
ENDBRANCH   1   8
BRANCH   5  26
HETATM   26  N   UNL     1      -3.941 -15.491 -32.955  1.00  0.00    -0.053 N 
HETATM   27  H   UNL     1      -3.382 -14.626 -32.979  1.00  0.00     0.281 HD
HETATM   28  C   UNL     1      -4.202 -15.782 -31.481  1.00  0.00     0.236 C 
HETATM   29  C   UNL     1      -2.887 -15.791 -30.711  1.00  0.00     0.028 C 
HETATM   30  C   UNL     1      -1.910 -16.812 -31.274  1.00  0.00     0.003 C 
HETATM   31  C   UNL     1      -1.704 -16.597 -32.765  1.00  0.00     0.028 C 
HETATM   32  C   UNL     1      -3.026 -16.591 -33.523  1.00  0.00     0.236 C 
ENDBRANCH   5  26
BRANCH   5  33
HETATM   33  C   UNL     1      -6.434 -16.117 -33.382  1.00  0.00     0.252 C 
HETATM   34  N   UNL     1      -7.395 -15.569 -32.593  1.00  0.00    -0.368 N 
HETATM   35  H   UNL     1      -7.469 -14.616 -32.259  1.00  0.00     0.159 HD
HETATM   36  H   UNL     1      -8.143 -16.191 -32.283  1.00  0.00     0.159 HD
HETATM   37  O   UNL     1      -6.497 -17.306 -33.679  1.00  0.00    -0.271 OA
ENDBRANCH   5  33
TORSDOF 8
ENDMDL
