MODEL 1
REMARK VINA RESULT:      -8.8      0.000      0.000
REMARK  6 active torsions:
REMARK  status: ('A' for Active; 'I' for Inactive)
REMARK    1  A    between atoms: C_2  and  C_3 
REMARK    2  A    between atoms: C_7  and  O_8 
REMARK    3  A    between atoms: O_8  and  C_9 
REMARK    4  A    between atoms: C_9  and  C_10 
REMARK       I    between atoms: C_10  and  N_11 
REMARK    5  A    between atoms: N_11  and  N_12 
REMARK    6  A    between atoms: C_13  and  C_14 
ROOT
HETATM    1  C   UNL     1      -6.004   0.979 -30.749  1.00  0.00     0.261 C 
HETATM    2  N   UNL     1      -7.370   0.846 -30.698  1.00  0.00    -0.246 N 
HETATM    3  O   UNL     1      -5.300   0.380 -29.933  1.00  0.00    -0.269 OA
HETATM    4  H   UNL     1      -7.734   0.206 -30.001  1.00  0.00     0.192 HD
ENDROOT
BRANCH   1   5
HETATM    5  C   UNL     1      -5.414   1.914 -31.799  1.00  0.00     0.280 C 
BRANCH   5   6
HETATM    6  O   UNL     1      -4.428   1.236 -32.567  1.00  0.00    -0.341 OA
BRANCH   6   7
HETATM    7  C   UNL     1      -4.788   0.042 -33.131  1.00  0.00     0.086 A 
HETATM    8  C   UNL     1      -3.970  -1.065 -32.870  1.00  0.00     0.044 A 
HETATM    9  C   UNL     1      -4.243  -2.312 -33.447  1.00  0.00     0.029 A 
HETATM   10 BR   UNL     1      -2.461  -0.934 -31.721  1.00  0.00    -0.048 Br
HETATM   11  C   UNL     1      -5.341  -2.483 -34.302  1.00  0.00    -0.053 A 
HETATM   12  C   UNL     1      -6.153  -1.371 -34.566  1.00  0.00     0.010 A 
HETATM   13  C   UNL     1      -5.883  -0.126 -33.985  1.00  0.00     0.039 A 
BRANCH  11  14
HETATM   14  C   UNL     1      -5.586  -3.834 -34.950  1.00  0.00     0.010 C 
HETATM   15  C   UNL     1      -7.078  -4.179 -34.919  1.00  0.00     0.015 C 
HETATM   16  C   UNL     1      -4.758  -4.963 -34.328  1.00  0.00     0.015 C 
ENDBRANCH  11  14
ENDBRANCH   6   7
ENDBRANCH   5   6
ENDBRANCH   1   5
BRANCH   2  17
HETATM   17  N   UNL     1      -8.205   1.486 -31.563  1.00  0.00    -0.184 NA
HETATM   18  C   UNL     1      -8.918   0.708 -32.313  1.00  0.00     0.152 C 
BRANCH  18  19
HETATM   19  C   UNL     1      -9.818   1.280 -33.293  1.00  0.00     0.011 A 
HETATM   20  C   UNL     1     -11.150   0.852 -33.599  1.00  0.00     0.004 A 
HETATM   21  C   UNL     1     -11.629   1.682 -34.615  1.00  0.00     0.043 A 
HETATM   22  C   UNL     1     -11.998  -0.162 -33.106  1.00  0.00     0.014 A 
HETATM   23  C   UNL     1     -12.911   1.546 -35.163  1.00  0.00     0.030 A 
HETATM   24  N   UNL     1     -10.628   2.575 -34.916  1.00  0.00    -0.364 N 
HETATM   25  C   UNL     1     -13.730   0.534 -34.655  1.00  0.00     0.002 A 
HETATM   26  C   UNL     1     -13.283  -0.309 -33.642  1.00  0.00     0.001 A 
HETATM   27  H   UNL     1     -10.694   3.293 -35.624  1.00  0.00     0.165 HD
HETATM   28  C   UNL     1      -9.537   2.346 -34.125  1.00  0.00     0.102 A 
ENDBRANCH  18  19
ENDBRANCH   2  17
TORSDOF 6
ENDMDL
MODEL 2
REMARK VINA RESULT:      -8.6      1.881      2.530
REMARK  6 active torsions:
REMARK  status: ('A' for Active; 'I' for Inactive)
REMARK    1  A    between atoms: C_2  and  C_3 
REMARK    2  A    between atoms: C_7  and  O_8 
REMARK    3  A    between atoms: O_8  and  C_9 
REMARK    4  A    between atoms: C_9  and  C_10 
REMARK       I    between atoms: C_10  and  N_11 
REMARK    5  A    between atoms: N_11  and  N_12 
REMARK    6  A    between atoms: C_13  and  C_14 
ROOT
HETATM    1  C   UNL     1      -6.590   4.413 -33.789  1.00  0.00     0.261 C 
HETATM    2  N   UNL     1      -7.954   4.432 -33.629  1.00  0.00    -0.246 N 
HETATM    3  O   UNL     1      -5.932   5.433 -33.569  1.00  0.00    -0.269 OA
HETATM    4  H   UNL     1      -8.352   5.299 -33.282  1.00  0.00     0.192 HD
ENDROOT
BRANCH   1   5
HETATM    5  C   UNL     1      -5.946   3.122 -34.285  1.00  0.00     0.280 C 
BRANCH   5   6
HETATM    6  O   UNL     1      -5.986   2.127 -33.270  1.00  0.00    -0.341 OA
BRANCH   6   7
HETATM    7  C   UNL     1      -5.960   0.819 -33.677  1.00  0.00     0.086 A 
HETATM    8  C   UNL     1      -4.921   0.016 -33.189  1.00  0.00     0.044 A 
HETATM    9  C   UNL     1      -4.796  -1.319 -33.592  1.00  0.00     0.029 A 
HETATM   10 BR   UNL     1      -3.640   0.690 -31.955  1.00  0.00    -0.048 Br
HETATM   11  C   UNL     1      -5.706  -1.884 -34.498  1.00  0.00    -0.053 A 
HETATM   12  C   UNL     1      -6.739  -1.075 -34.988  1.00  0.00     0.010 A 
HETATM   13  C   UNL     1      -6.867   0.259 -34.580  1.00  0.00     0.039 A 
BRANCH  11  14
HETATM   14  C   UNL     1      -5.519  -3.320 -34.954  1.00  0.00     0.010 C 
HETATM   15  C   UNL     1      -6.830  -4.099 -34.819  1.00  0.00     0.015 C 
HETATM   16  C   UNL     1      -4.383  -4.044 -34.223  1.00  0.00     0.015 C 
ENDBRANCH  11  14
ENDBRANCH   6   7
ENDBRANCH   5   6
ENDBRANCH   1   5
BRANCH   2  17
HETATM   17  N   UNL     1      -8.739   3.345 -33.863  1.00  0.00    -0.184 NA
HETATM   18  C   UNL     1      -9.317   2.851 -32.814  1.00  0.00     0.152 C 
BRANCH  18  19
HETATM   19  C   UNL     1     -10.151   1.675 -32.940  1.00  0.00     0.011 A 
HETATM   20  C   UNL     1     -11.482   1.607 -33.464  1.00  0.00     0.004 A 
HETATM   21  C   UNL     1     -11.896   0.277 -33.376  1.00  0.00     0.043 A 
HETATM   22  C   UNL     1     -12.376   2.553 -34.011  1.00  0.00     0.014 A 
HETATM   23  C   UNL     1     -13.159  -0.153 -33.803  1.00  0.00     0.030 A 
HETATM   24  N   UNL     1     -10.861  -0.435 -32.817  1.00  0.00    -0.364 N 
HETATM   25  C   UNL     1     -14.024   0.804 -34.341  1.00  0.00     0.002 A 
HETATM   26  C   UNL     1     -13.640   2.138 -34.445  1.00  0.00     0.001 A 
HETATM   27  H   UNL     1     -10.884  -1.427 -32.627  1.00  0.00     0.165 HD
HETATM   28  C   UNL     1      -9.806   0.393 -32.556  1.00  0.00     0.102 A 
ENDBRANCH  18  19
ENDBRANCH   2  17
TORSDOF 6
ENDMDL
MODEL 3
REMARK VINA RESULT:      -8.6      4.523      7.913
REMARK  6 active torsions:
REMARK  status: ('A' for Active; 'I' for Inactive)
REMARK    1  A    between atoms: C_2  and  C_3 
REMARK    2  A    between atoms: C_7  and  O_8 
REMARK    3  A    between atoms: O_8  and  C_9 
REMARK    4  A    between atoms: C_9  and  C_10 
REMARK       I    between atoms: C_10  and  N_11 
REMARK    5  A    between atoms: N_11  and  N_12 
REMARK    6  A    between atoms: C_13  and  C_14 
ROOT
HETATM    1  C   UNL     1      -6.539   4.235 -33.990  1.00  0.00     0.261 C 
HETATM    2  N   UNL     1      -6.829   2.979 -33.518  1.00  0.00    -0.246 N 
HETATM    3  O   UNL     1      -7.432   5.084 -34.062  1.00  0.00    -0.269 OA
HETATM    4  H   UNL     1      -7.781   2.827 -33.201  1.00  0.00     0.192 HD
ENDROOT
BRANCH   1   5
HETATM    5  C   UNL     1      -5.114   4.514 -34.455  1.00  0.00     0.280 C 
BRANCH   5   6
HETATM    6  O   UNL     1      -4.694   5.801 -34.020  1.00  0.00    -0.341 OA
BRANCH   6   7
HETATM    7  C   UNL     1      -3.481   5.883 -33.391  1.00  0.00     0.086 A 
HETATM    8  C   UNL     1      -3.479   6.280 -32.047  1.00  0.00     0.044 A 
HETATM    9  C   UNL     1      -2.277   6.433 -31.345  1.00  0.00     0.029 A 
HETATM   10 BR   UNL     1      -5.100   6.621 -31.112  1.00  0.00    -0.048 Br
HETATM   11  C   UNL     1      -1.045   6.195 -31.970  1.00  0.00    -0.053 A 
HETATM   12  C   UNL     1      -1.051   5.805 -33.316  1.00  0.00     0.010 A 
HETATM   13  C   UNL     1      -2.253   5.647 -34.016  1.00  0.00     0.039 A 
BRANCH  11  14
HETATM   14  C   UNL     1       0.244   6.414 -31.199  1.00  0.00     0.010 C 
HETATM   15  C   UNL     1       0.890   5.072 -30.845  1.00  0.00     0.015 C 
HETATM   16  C   UNL     1       0.059   7.271 -29.942  1.00  0.00     0.015 C 
ENDBRANCH  11  14
ENDBRANCH   6   7
ENDBRANCH   5   6
ENDBRANCH   1   5
BRANCH   2  17
HETATM   17  N   UNL     1      -5.894   1.994 -33.420  1.00  0.00    -0.184 NA
HETATM   18  C   UNL     1      -6.310   0.810 -33.739  1.00  0.00     0.152 C 
BRANCH  18  19
HETATM   19  C   UNL     1      -5.409  -0.319 -33.643  1.00  0.00     0.011 A 
HETATM   20  C   UNL     1      -5.652  -1.661 -34.078  1.00  0.00     0.004 A 
HETATM   21  C   UNL     1      -4.515  -2.411 -33.771  1.00  0.00     0.043 A 
HETATM   22  C   UNL     1      -6.734  -2.313 -34.709  1.00  0.00     0.014 A 
HETATM   23  C   UNL     1      -4.406  -3.777 -34.059  1.00  0.00     0.030 A 
HETATM   24  N   UNL     1      -3.618  -1.559 -33.170  1.00  0.00    -0.364 N 
HETATM   25  C   UNL     1      -5.492  -4.397 -34.685  1.00  0.00     0.002 A 
HETATM   26  C   UNL     1      -6.639  -3.678 -35.007  1.00  0.00     0.001 A 
HETATM   27  H   UNL     1      -2.705  -1.832 -32.833  1.00  0.00     0.165 HD
HETATM   28  C   UNL     1      -4.142  -0.299 -33.093  1.00  0.00     0.102 A 
ENDBRANCH  18  19
ENDBRANCH   2  17
TORSDOF 6
ENDMDL
MODEL 4
REMARK VINA RESULT:      -8.6      3.820      7.208
REMARK  6 active torsions:
REMARK  status: ('A' for Active; 'I' for Inactive)
REMARK    1  A    between atoms: C_2  and  C_3 
REMARK    2  A    between atoms: C_7  and  O_8 
REMARK    3  A    between atoms: O_8  and  C_9 
REMARK    4  A    between atoms: C_9  and  C_10 
REMARK       I    between atoms: C_10  and  N_11 
REMARK    5  A    between atoms: N_11  and  N_12 
REMARK    6  A    between atoms: C_13  and  C_14 
ROOT
HETATM    1  C   UNL     1      -5.932   1.367 -30.773  1.00  0.00     0.261 C 
HETATM    2  N   UNL     1      -5.000   2.215 -30.228  1.00  0.00    -0.246 N 
HETATM    3  O   UNL     1      -6.315   0.385 -30.133  1.00  0.00    -0.269 OA
HETATM    4  H   UNL     1      -4.704   2.007 -29.280  1.00  0.00     0.192 HD
ENDROOT
BRANCH   1   5
HETATM    5  C   UNL     1      -6.423   1.657 -32.188  1.00  0.00     0.280 C 
BRANCH   5   6
HETATM    6  O   UNL     1      -5.456   1.241 -33.143  1.00  0.00    -0.341 OA
BRANCH   6   7
HETATM    7  C   UNL     1      -5.552  -0.043 -33.612  1.00  0.00     0.086 A 
HETATM    8  C   UNL     1      -4.484  -0.908 -33.341  1.00  0.00     0.044 A 
HETATM    9  C   UNL     1      -4.485  -2.222 -33.825  1.00  0.00     0.029 A 
HETATM   10 BR   UNL     1      -2.992  -0.348 -32.304  1.00  0.00    -0.048 Br
HETATM   11  C   UNL     1      -5.554  -2.704 -34.594  1.00  0.00    -0.053 A 
HETATM   12  C   UNL     1      -6.616  -1.833 -34.868  1.00  0.00     0.010 A 
HETATM   13  C   UNL     1      -6.618  -0.520 -34.379  1.00  0.00     0.039 A 
BRANCH  11  14
HETATM   14  C   UNL     1      -5.506  -4.118 -35.144  1.00  0.00     0.010 C 
HETATM   15  C   UNL     1      -6.922  -4.641 -35.398  1.00  0.00     0.015 C 
HETATM   16  C   UNL     1      -4.724  -5.089 -34.253  1.00  0.00     0.015 C 
ENDBRANCH  11  14
ENDBRANCH   6   7
ENDBRANCH   5   6
ENDBRANCH   1   5
BRANCH   2  17
HETATM   17  N   UNL     1      -4.528   3.312 -30.884  1.00  0.00    -0.184 NA
HETATM   18  C   UNL     1      -3.329   3.193 -31.356  1.00  0.00     0.152 C 
BRANCH  18  19
HETATM   19  C   UNL     1      -2.713   4.308 -32.044  1.00  0.00     0.011 A 
HETATM   20  C   UNL     1      -1.587   5.079 -31.612  1.00  0.00     0.004 A 
HETATM   21  C   UNL     1      -1.355   6.056 -32.581  1.00  0.00     0.043 A 
HETATM   22  C   UNL     1      -0.736   5.037 -30.486  1.00  0.00     0.014 A 
HETATM   23  C   UNL     1      -0.319   6.994 -32.480  1.00  0.00     0.030 A 
HETATM   24  N   UNL     1      -2.304   5.890 -33.562  1.00  0.00    -0.364 N 
HETATM   25  C   UNL     1       0.508   6.929 -31.355  1.00  0.00     0.002 A 
HETATM   26  C   UNL     1       0.305   5.965 -30.371  1.00  0.00     0.001 A 
HETATM   27  H   UNL     1      -2.383   6.466 -34.388  1.00  0.00     0.165 HD
HETATM   28  C   UNL     1      -3.122   4.839 -33.253  1.00  0.00     0.102 A 
ENDBRANCH  18  19
ENDBRANCH   2  17
TORSDOF 6
ENDMDL
MODEL 5
REMARK VINA RESULT:      -8.6      3.414      6.376
REMARK  6 active torsions:
REMARK  status: ('A' for Active; 'I' for Inactive)
REMARK    1  A    between atoms: C_2  and  C_3 
REMARK    2  A    between atoms: C_7  and  O_8 
REMARK    3  A    between atoms: O_8  and  C_9 
REMARK    4  A    between atoms: C_9  and  C_10 
REMARK       I    between atoms: C_10  and  N_11 
REMARK    5  A    between atoms: N_11  and  N_12 
REMARK    6  A    between atoms: C_13  and  C_14 
ROOT
HETATM    1  C   UNL     1      -6.423   1.124 -30.544  1.00  0.00     0.261 C 
HETATM    2  N   UNL     1      -5.689   2.027 -29.816  1.00  0.00    -0.246 N 
HETATM    3  O   UNL     1      -6.577  -0.025 -30.120  1.00  0.00    -0.269 OA
HETATM    4  H   UNL     1      -5.342   1.704 -28.919  1.00  0.00     0.192 HD
ENDROOT
BRANCH   1   5
HETATM    5  C   UNL     1      -6.985   1.575 -31.888  1.00  0.00     0.280 C 
BRANCH   5   6
HETATM    6  O   UNL     1      -6.042   1.335 -32.925  1.00  0.00    -0.341 OA
BRANCH   6   7
HETATM    7  C   UNL     1      -5.967   0.060 -33.419  1.00  0.00     0.086 A 
HETATM    8  C   UNL     1      -4.740  -0.605 -33.299  1.00  0.00     0.044 A 
HETATM    9  C   UNL     1      -4.568  -1.893 -33.820  1.00  0.00     0.029 A 
HETATM   10 BR   UNL     1      -3.257   0.200 -32.422  1.00  0.00    -0.048 Br
HETATM   11  C   UNL     1      -5.619  -2.549 -34.477  1.00  0.00    -0.053 A 
HETATM   12  C   UNL     1      -6.842  -1.877 -34.601  1.00  0.00     0.010 A 
HETATM   13  C   UNL     1      -7.016  -0.591 -34.075  1.00  0.00     0.039 A 
BRANCH  11  14
HETATM   14  C   UNL     1      -5.390  -3.926 -35.073  1.00  0.00     0.010 C 
HETATM   15  C   UNL     1      -6.727  -4.604 -35.382  1.00  0.00     0.015 C 
HETATM   16  C   UNL     1      -4.518  -4.829 -34.194  1.00  0.00     0.015 C 
ENDBRANCH  11  14
ENDBRANCH   6   7
ENDBRANCH   5   6
ENDBRANCH   1   5
BRANCH   2  17
HETATM   17  N   UNL     1      -5.474   3.306 -30.231  1.00  0.00    -0.184 NA
HETATM   18  C   UNL     1      -4.340   3.507 -30.822  1.00  0.00     0.152 C 
BRANCH  18  19
HETATM   19  C   UNL     1      -3.991   4.836 -31.277  1.00  0.00     0.011 A 
HETATM   20  C   UNL     1      -3.054   5.183 -32.303  1.00  0.00     0.004 A 
HETATM   21  C   UNL     1      -3.030   6.576 -32.390  1.00  0.00     0.043 A 
HETATM   22  C   UNL     1      -2.224   4.443 -33.173  1.00  0.00     0.014 A 
HETATM   23  C   UNL     1      -2.216   7.265 -33.299  1.00  0.00     0.030 A 
HETATM   24  N   UNL     1      -3.913   7.057 -31.452  1.00  0.00    -0.364 N 
HETATM   25  C   UNL     1      -1.405   6.507 -34.148  1.00  0.00     0.002 A 
HETATM   26  C   UNL     1      -1.407   5.117 -34.088  1.00  0.00     0.001 A 
HETATM   27  H   UNL     1      -4.095   8.037 -31.285  1.00  0.00     0.165 HD
HETATM   28  C   UNL     1      -4.500   6.021 -30.781  1.00  0.00     0.102 A 
ENDBRANCH  18  19
ENDBRANCH   2  17
TORSDOF 6
ENDMDL
MODEL 6
REMARK VINA RESULT:      -8.6      4.680      7.790
REMARK  6 active torsions:
REMARK  status: ('A' for Active; 'I' for Inactive)
REMARK    1  A    between atoms: C_2  and  C_3 
REMARK    2  A    between atoms: C_7  and  O_8 
REMARK    3  A    between atoms: O_8  and  C_9 
REMARK    4  A    between atoms: C_9  and  C_10 
REMARK       I    between atoms: C_10  and  N_11 
REMARK    5  A    between atoms: N_11  and  N_12 
REMARK    6  A    between atoms: C_13  and  C_14 
ROOT
HETATM    1  C   UNL     1      -6.922   4.371 -33.806  1.00  0.00     0.261 C 
HETATM    2  N   UNL     1      -6.313   5.588 -33.624  1.00  0.00    -0.246 N 
HETATM    3  O   UNL     1      -8.139   4.263 -33.638  1.00  0.00    -0.269 OA
HETATM    4  H   UNL     1      -6.923   6.366 -33.399  1.00  0.00     0.192 HD
ENDROOT
BRANCH   1   5
HETATM    5  C   UNL     1      -6.043   3.178 -34.170  1.00  0.00     0.280 C 
BRANCH   5   6
HETATM    6  O   UNL     1      -6.148   2.166 -33.177  1.00  0.00    -0.341 OA
BRANCH   6   7
HETATM    7  C   UNL     1      -6.092   0.865 -33.603  1.00  0.00     0.086 A 
HETATM    8  C   UNL     1      -5.019   0.086 -33.152  1.00  0.00     0.044 A 
HETATM    9  C   UNL     1      -4.865  -1.239 -33.578  1.00  0.00     0.029 A 
HETATM   10 BR   UNL     1      -3.729   0.781 -31.939  1.00  0.00    -0.048 Br
HETATM   11  C   UNL     1      -5.780  -1.818 -34.469  1.00  0.00    -0.053 A 
HETATM   12  C   UNL     1      -6.847  -1.033 -34.923  1.00  0.00     0.010 A 
HETATM   13  C   UNL     1      -7.004   0.291 -34.493  1.00  0.00     0.039 A 
BRANCH  11  14
HETATM   14  C   UNL     1      -5.561  -3.241 -34.951  1.00  0.00     0.010 C 
HETATM   15  C   UNL     1      -6.847  -4.059 -34.802  1.00  0.00     0.015 C 
HETATM   16  C   UNL     1      -4.392  -3.944 -34.253  1.00  0.00     0.015 C 
ENDBRANCH  11  14
ENDBRANCH   6   7
ENDBRANCH   5   6
ENDBRANCH   1   5
BRANCH   2  17
HETATM   17  N   UNL     1      -4.973   5.773 -33.785  1.00  0.00    -0.184 NA
HETATM   18  C   UNL     1      -4.353   6.224 -32.741  1.00  0.00     0.152 C 
BRANCH  18  19
HETATM   19  C   UNL     1      -2.932   6.489 -32.808  1.00  0.00     0.011 A 
HETATM   20  C   UNL     1      -2.013   6.570 -31.713  1.00  0.00     0.004 A 
HETATM   21  C   UNL     1      -0.755   6.858 -32.245  1.00  0.00     0.043 A 
HETATM   22  C   UNL     1      -2.130   6.421 -30.314  1.00  0.00     0.014 A 
HETATM   23  C   UNL     1       0.388   7.008 -31.451  1.00  0.00     0.030 A 
HETATM   24  N   UNL     1      -0.904   6.952 -33.609  1.00  0.00    -0.364 N 
HETATM   25  C   UNL     1       0.244   6.855 -30.069  1.00  0.00     0.002 A 
HETATM   26  C   UNL     1      -0.995   6.565 -29.506  1.00  0.00     0.001 A 
HETATM   27  H   UNL     1      -0.155   7.161 -34.255  1.00  0.00     0.165 HD
HETATM   28  C   UNL     1      -2.206   6.727 -33.959  1.00  0.00     0.102 A 
ENDBRANCH  18  19
ENDBRANCH   2  17
TORSDOF 6
ENDMDL
MODEL 7
REMARK VINA RESULT:      -8.5      5.683      9.276
REMARK  6 active torsions:
REMARK  status: ('A' for Active; 'I' for Inactive)
REMARK    1  A    between atoms: C_2  and  C_3 
REMARK    2  A    between atoms: C_7  and  O_8 
REMARK    3  A    between atoms: O_8  and  C_9 
REMARK    4  A    between atoms: C_9  and  C_10 
REMARK       I    between atoms: C_10  and  N_11 
REMARK    5  A    between atoms: N_11  and  N_12 
REMARK    6  A    between atoms: C_13  and  C_14 
ROOT
HETATM    1  C   UNL     1      -3.506   4.715 -32.339  1.00  0.00     0.261 C 
HETATM    2  N   UNL     1      -4.178   3.576 -31.970  1.00  0.00    -0.246 N 
HETATM    3  O   UNL     1      -4.088   5.802 -32.326  1.00  0.00    -0.269 OA
HETATM    4  H   UNL     1      -5.134   3.702 -31.653  1.00  0.00     0.192 HD
ENDROOT
BRANCH   1   5
HETATM    5  C   UNL     1      -2.058   4.575 -32.799  1.00  0.00     0.280 C 
BRANCH   5   6
HETATM    6  O   UNL     1      -1.359   5.799 -32.614  1.00  0.00    -0.341 OA
BRANCH   6   7
HETATM    7  C   UNL     1      -0.801   6.019 -31.383  1.00  0.00     0.086 A 
HETATM    8  C   UNL     1      -1.007   7.276 -30.800  1.00  0.00     0.044 A 
HETATM    9  C   UNL     1      -0.432   7.597 -29.564  1.00  0.00     0.029 A 
HETATM   10 BR   UNL     1      -2.079   8.599 -31.647  1.00  0.00    -0.048 Br
HETATM   11  C   UNL     1       0.368   6.670 -28.881  1.00  0.00    -0.053 A 
HETATM   12  C   UNL     1       0.577   5.416 -29.472  1.00  0.00     0.010 A 
HETATM   13  C   UNL     1      -0.003   5.094 -30.705  1.00  0.00     0.039 A 
BRANCH  11  14
HETATM   14  C   UNL     1       1.017   7.062 -27.566  1.00  0.00     0.010 C 
HETATM   15  C   UNL     1       0.038   6.863 -26.406  1.00  0.00     0.015 C 
HETATM   16  C   UNL     1       1.570   8.491 -27.566  1.00  0.00     0.015 C 
ENDBRANCH  11  14
ENDBRANCH   6   7
ENDBRANCH   5   6
ENDBRANCH   1   5
BRANCH   2  17
HETATM   17  N   UNL     1      -3.597   2.345 -31.970  1.00  0.00    -0.184 NA
HETATM   18  C   UNL     1      -4.398   1.361 -32.232  1.00  0.00     0.152 C 
BRANCH  18  19
HETATM   19  C   UNL     1      -3.895   0.004 -32.227  1.00  0.00     0.011 A 
HETATM   20  C   UNL     1      -4.352  -1.092 -33.028  1.00  0.00     0.004 A 
HETATM   21  C   UNL     1      -3.591  -2.208 -32.678  1.00  0.00     0.043 A 
HETATM   22  C   UNL     1      -5.341  -1.241 -34.024  1.00  0.00     0.014 A 
HETATM   23  C   UNL     1      -3.771  -3.465 -33.270  1.00  0.00     0.030 A 
HETATM   24  N   UNL     1      -2.709  -1.809 -31.701  1.00  0.00    -0.364 N 
HETATM   25  C   UNL     1      -4.756  -3.584 -34.254  1.00  0.00     0.002 A 
HETATM   26  C   UNL     1      -5.531  -2.490 -34.628  1.00  0.00     0.001 A 
HETATM   27  H   UNL     1      -2.037  -2.415 -31.252  1.00  0.00     0.165 HD
HETATM   28  C   UNL     1      -2.880  -0.481 -31.426  1.00  0.00     0.102 A 
ENDBRANCH  18  19
ENDBRANCH   2  17
TORSDOF 6
ENDMDL
MODEL 8
REMARK VINA RESULT:      -8.3      2.097      2.840
REMARK  6 active torsions:
REMARK  status: ('A' for Active; 'I' for Inactive)
REMARK    1  A    between atoms: C_2  and  C_3 
REMARK    2  A    between atoms: C_7  and  O_8 
REMARK    3  A    between atoms: O_8  and  C_9 
REMARK    4  A    between atoms: C_9  and  C_10 
REMARK       I    between atoms: C_10  and  N_11 
REMARK    5  A    between atoms: N_11  and  N_12 
REMARK    6  A    between atoms: C_13  and  C_14 
ROOT
HETATM    1  C   UNL     1      -7.160   4.131 -33.931  1.00  0.00     0.261 C 
HETATM    2  N   UNL     1      -8.246   4.971 -33.963  1.00  0.00    -0.246 N 
HETATM    3  O   UNL     1      -6.061   4.534 -34.320  1.00  0.00    -0.269 OA
HETATM    4  H   UNL     1      -8.070   5.921 -34.271  1.00  0.00     0.192 HD
ENDROOT
BRANCH   1   5
HETATM    5  C   UNL     1      -7.376   2.699 -33.452  1.00  0.00     0.280 C 
BRANCH   5   6
HETATM    6  O   UNL     1      -6.128   2.039 -33.285  1.00  0.00    -0.341 OA
BRANCH   6   7
HETATM    7  C   UNL     1      -6.055   0.732 -33.685  1.00  0.00     0.086 A 
HETATM    8  C   UNL     1      -4.967  -0.021 -33.224  1.00  0.00     0.044 A 
HETATM    9  C   UNL     1      -4.794  -1.352 -33.623  1.00  0.00     0.029 A 
HETATM   10 BR   UNL     1      -3.683   0.718 -32.031  1.00  0.00    -0.048 Br
HETATM   11  C   UNL     1      -5.704  -1.964 -34.498  1.00  0.00    -0.053 A 
HETATM   12  C   UNL     1      -6.786  -1.204 -34.963  1.00  0.00     0.010 A 
HETATM   13  C   UNL     1      -6.962   0.125 -34.558  1.00  0.00     0.039 A 
BRANCH  11  14
HETATM   14  C   UNL     1      -5.465  -3.392 -34.952  1.00  0.00     0.010 C 
HETATM   15  C   UNL     1      -6.757  -4.209 -34.848  1.00  0.00     0.015 C 
HETATM   16  C   UNL     1      -4.327  -4.086 -34.196  1.00  0.00     0.015 C 
ENDBRANCH  11  14
ENDBRANCH   6   7
ENDBRANCH   5   6
ENDBRANCH   1   5
BRANCH   2  17
HETATM   17  N   UNL     1      -9.488   4.586 -33.556  1.00  0.00    -0.184 NA
HETATM   18  C   UNL     1     -10.323   4.333 -34.512  1.00  0.00     0.152 C 
BRANCH  18  19
HETATM   19  C   UNL     1     -11.682   3.946 -34.196  1.00  0.00     0.011 A 
HETATM   20  C   UNL     1     -12.181   2.619 -33.997  1.00  0.00     0.004 A 
HETATM   21  C   UNL     1     -13.547   2.724 -33.730  1.00  0.00     0.043 A 
HETATM   22  C   UNL     1     -11.599   1.333 -34.015  1.00  0.00     0.014 A 
HETATM   23  C   UNL     1     -14.359   1.610 -33.484  1.00  0.00     0.030 A 
HETATM   24  N   UNL     1     -13.867   4.061 -33.769  1.00  0.00    -0.364 N 
HETATM   25  C   UNL     1     -13.757   0.349 -33.507  1.00  0.00     0.002 A 
HETATM   26  C   UNL     1     -12.397   0.209 -33.768  1.00  0.00     0.001 A 
HETATM   27  H   UNL     1     -14.794   4.434 -33.619  1.00  0.00     0.165 HD
HETATM   28  C   UNL     1     -12.753   4.805 -34.043  1.00  0.00     0.102 A 
ENDBRANCH  18  19
ENDBRANCH   2  17
TORSDOF 6
ENDMDL
MODEL 9
REMARK VINA RESULT:      -8.1      1.924      2.272
REMARK  6 active torsions:
REMARK  status: ('A' for Active; 'I' for Inactive)
REMARK    1  A    between atoms: C_2  and  C_3 
REMARK    2  A    between atoms: C_7  and  O_8 
REMARK    3  A    between atoms: O_8  and  C_9 
REMARK    4  A    between atoms: C_9  and  C_10 
REMARK       I    between atoms: C_10  and  N_11 
REMARK    5  A    between atoms: N_11  and  N_12 
REMARK    6  A    between atoms: C_13  and  C_14 
ROOT
HETATM    1  C   UNL     1      -6.264   1.100 -30.669  1.00  0.00     0.261 C 
HETATM    2  N   UNL     1      -7.618   1.329 -30.691  1.00  0.00    -0.246 N 
HETATM    3  O   UNL     1      -5.777   0.388 -29.788  1.00  0.00    -0.269 OA
HETATM    4  H   UNL     1      -8.166   0.847 -29.986  1.00  0.00     0.192 HD
ENDROOT
BRANCH   1   5
HETATM    5  C   UNL     1      -5.405   1.786 -31.727  1.00  0.00     0.280 C 
BRANCH   5   6
HETATM    6  O   UNL     1      -5.827   1.406 -33.030  1.00  0.00    -0.341 OA
BRANCH   6   7
HETATM    7  C   UNL     1      -5.521   0.136 -33.440  1.00  0.00     0.086 A 
HETATM    8  C   UNL     1      -6.445  -0.512 -34.271  1.00  0.00     0.044 A 
HETATM    9  C   UNL     1      -6.228  -1.828 -34.696  1.00  0.00     0.029 A 
HETATM   10 BR   UNL     1      -8.026   0.360 -34.865  1.00  0.00    -0.048 Br
HETATM   11  C   UNL     1      -5.081  -2.532 -34.299  1.00  0.00    -0.053 A 
HETATM   12  C   UNL     1      -4.164  -1.883 -33.463  1.00  0.00     0.010 A 
HETATM   13  C   UNL     1      -4.378  -0.564 -33.042  1.00  0.00     0.039 A 
BRANCH  11  14
HETATM   14  C   UNL     1      -4.895  -3.974 -34.737  1.00  0.00     0.010 C 
HETATM   15  C   UNL     1      -6.254  -4.641 -34.972  1.00  0.00     0.015 C 
HETATM   16  C   UNL     1      -4.052  -4.799 -33.760  1.00  0.00     0.015 C 
ENDBRANCH  11  14
ENDBRANCH   6   7
ENDBRANCH   5   6
ENDBRANCH   1   5
BRANCH   2  17
HETATM   17  N   UNL     1      -8.218   2.111 -31.630  1.00  0.00    -0.184 NA
HETATM   18  C   UNL     1      -9.391   2.553 -31.306  1.00  0.00     0.152 C 
BRANCH  18  19
HETATM   19  C   UNL     1     -10.136   3.368 -32.242  1.00  0.00     0.011 A 
HETATM   20  C   UNL     1     -10.972   2.914 -33.312  1.00  0.00     0.004 A 
HETATM   21  C   UNL     1     -11.473   4.047 -33.958  1.00  0.00     0.043 A 
HETATM   22  C   UNL     1     -11.356   1.644 -33.794  1.00  0.00     0.014 A 
HETATM   23  C   UNL     1     -12.333   3.973 -35.060  1.00  0.00     0.030 A 
HETATM   24  N   UNL     1     -10.959   5.145 -33.309  1.00  0.00    -0.364 N 
HETATM   25  C   UNL     1     -12.697   2.702 -35.516  1.00  0.00     0.002 A 
HETATM   26  C   UNL     1     -12.218   1.553 -34.894  1.00  0.00     0.001 A 
HETATM   27  H   UNL     1     -11.147   6.104 -33.567  1.00  0.00     0.165 HD
HETATM   28  C   UNL     1     -10.159   4.749 -32.273  1.00  0.00     0.102 A 
ENDBRANCH  18  19
ENDBRANCH   2  17
TORSDOF 6
ENDMDL
MODEL 10
REMARK VINA RESULT:      -8.1      3.664      6.832
REMARK  6 active torsions:
REMARK  status: ('A' for Active; 'I' for Inactive)
REMARK    1  A    between atoms: C_2  and  C_3 
REMARK    2  A    between atoms: C_7  and  O_8 
REMARK    3  A    between atoms: O_8  and  C_9 
REMARK    4  A    between atoms: C_9  and  C_10 
REMARK       I    between atoms: C_10  and  N_11 
REMARK    5  A    between atoms: N_11  and  N_12 
REMARK    6  A    between atoms: C_13  and  C_14 
ROOT
HETATM    1  C   UNL     1      -8.514   2.698 -30.535  1.00  0.00     0.261 C 
HETATM    2  N   UNL     1      -8.560   1.509 -31.221  1.00  0.00    -0.246 N 
HETATM    3  O   UNL     1      -9.552   3.335 -30.341  1.00  0.00    -0.269 OA
HETATM    4  H   UNL     1      -9.481   1.187 -31.499  1.00  0.00     0.192 HD
ENDROOT
BRANCH   1   5
HETATM    5  C   UNL     1      -7.151   3.207 -30.077  1.00  0.00     0.280 C 
BRANCH   5   6
HETATM    6  O   UNL     1      -6.786   4.370 -30.808  1.00  0.00    -0.341 OA
BRANCH   6   7
HETATM    7  C   UNL     1      -5.520   4.408 -31.329  1.00  0.00     0.086 A 
HETATM    8  C   UNL     1      -4.596   5.261 -30.711  1.00  0.00     0.044 A 
HETATM    9  C   UNL     1      -3.294   5.392 -31.211  1.00  0.00     0.029 A 
HETATM   10 BR   UNL     1      -5.056   6.271 -29.166  1.00  0.00    -0.048 Br
HETATM   11  C   UNL     1      -2.884   4.676 -32.345  1.00  0.00    -0.053 A 
HETATM   12  C   UNL     1      -3.814   3.830 -32.964  1.00  0.00     0.010 A 
HETATM   13  C   UNL     1      -5.114   3.695 -32.460  1.00  0.00     0.039 A 
BRANCH  11  14
HETATM   14  C   UNL     1      -1.482   4.874 -32.892  1.00  0.00     0.010 C 
HETATM   15  C   UNL     1      -0.539   5.354 -31.786  1.00  0.00     0.015 C 
HETATM   16  C   UNL     1      -1.430   5.823 -34.094  1.00  0.00     0.015 C 
ENDBRANCH  11  14
ENDBRANCH   6   7
ENDBRANCH   5   6
ENDBRANCH   1   5
BRANCH   2  17
HETATM   17  N   UNL     1      -7.451   0.762 -31.476  1.00  0.00    -0.184 NA
HETATM   18  C   UNL     1      -7.202   0.561 -32.731  1.00  0.00     0.152 C 
BRANCH  18  19
HETATM   19  C   UNL     1      -6.066  -0.247 -33.119  1.00  0.00     0.011 A 
HETATM   20  C   UNL     1      -6.091  -1.527 -33.761  1.00  0.00     0.004 A 
HETATM   21  C   UNL     1      -4.766  -1.935 -33.927  1.00  0.00     0.043 A 
HETATM   22  C   UNL     1      -7.117  -2.380 -34.221  1.00  0.00     0.014 A 
HETATM   23  C   UNL     1      -4.417  -3.151 -34.527  1.00  0.00     0.030 A 
HETATM   24  N   UNL     1      -3.968  -0.945 -33.404  1.00  0.00    -0.364 N 
HETATM   25  C   UNL     1      -5.453  -3.975 -34.975  1.00  0.00     0.002 A 
HETATM   26  C   UNL     1      -6.784  -3.598 -34.826  1.00  0.00     0.001 A 
HETATM   27  H   UNL     1      -2.957  -0.974 -33.381  1.00  0.00     0.165 HD
HETATM   28  C   UNL     1      -4.737   0.076 -32.921  1.00  0.00     0.102 A 
ENDBRANCH  18  19
ENDBRANCH   2  17
TORSDOF 6
ENDMDL
