MODEL 1
REMARK VINA RESULT:      -7.8      0.000      0.000
REMARK  3 active torsions:
REMARK  status: ('A' for Active; 'I' for Inactive)
REMARK    1  A    between atoms: C_11  and  N_12 
REMARK       I    between atoms: N_12  and  C_13 
REMARK       I    between atoms: C_13  and  N_14 
REMARK    2  A    between atoms: N_14  and  C_15 
REMARK    3  A    between atoms: C_20  and  O_21 
ROOT
HETATM    1  N   UNL     1      -6.306   1.903 -32.577  1.00  0.00    -0.338 N 
HETATM    2  C   UNL     1      -4.958   2.213 -32.673  1.00  0.00     0.321 C 
HETATM    3  N   UNL     1      -4.773   3.546 -32.952  1.00  0.00    -0.306 N 
HETATM    4  O   UNL     1      -4.083   1.370 -32.551  1.00  0.00    -0.247 OA
HETATM    5  H   UNL     1      -6.846   2.720 -32.318  1.00  0.00     0.164 HD
HETATM    6  H   UNL     1      -5.587   4.144 -33.014  1.00  0.00     0.171 HD
ENDROOT
BRANCH   1   7
HETATM    7  C   UNL     1      -6.789   0.658 -31.981  1.00  0.00     0.091 C 
HETATM    8  C   UNL     1      -6.364  -0.671 -32.622  1.00  0.00     0.063 C 
HETATM    9  C   UNL     1      -7.011  -0.991 -33.971  1.00  0.00     0.121 C 
HETATM   10  N   UNL     1      -8.514  -0.829 -33.847  1.00  0.00    -0.059 N 
HETATM   11  C   UNL     1      -6.485  -0.167 -35.149  1.00  0.00     0.046 C 
HETATM   12  C   UNL     1      -6.770  -2.479 -34.303  1.00  0.00     0.046 C 
HETATM   13  C   UNL     1      -9.096   0.377 -33.143  1.00  0.00     0.121 C 
HETATM   14  H   UNL     1      -8.862  -1.667 -33.359  1.00  0.00     0.279 HD
HETATM   15  H   UNL     1      -8.927  -0.899 -34.789  1.00  0.00     0.279 HD
HETATM   16  C   UNL     1      -9.165   1.568 -34.106  1.00  0.00     0.046 C 
HETATM   17  C   UNL     1     -10.547  -0.006 -32.780  1.00  0.00     0.046 C 
HETATM   18  C   UNL     1      -8.318   0.673 -31.847  1.00  0.00     0.063 C 
ENDBRANCH   1   7
BRANCH   3  19
HETATM   19  C   UNL     1      -3.544   4.237 -33.091  1.00  0.00     0.077 A 
HETATM   20  C   UNL     1      -3.387   5.009 -34.251  1.00  0.00     0.143 A 
HETATM   21  F   UNL     1      -4.382   5.049 -35.152  1.00  0.00    -0.204 F 
HETATM   22  C   UNL     1      -2.234   5.746 -34.484  1.00  0.00     0.047 A 
HETATM   23  C   UNL     1      -1.204   5.705 -33.548  1.00  0.00     0.040 A 
HETATM   24  C   UNL     1      -1.327   4.929 -32.390  1.00  0.00     0.070 A 
HETATM   25  C   UNL     1      -2.501   4.201 -32.161  1.00  0.00     0.069 A 
BRANCH  24  26
HETATM   26  O   UNL     1      -0.236   4.971 -31.566  1.00  0.00    -0.356 OA
HETATM   27  C   UNL     1       0.221   6.255 -31.158  1.00  0.00     0.210 C 
ENDBRANCH  24  26
ENDBRANCH   3  19
TORSDOF 3
ENDMDL
MODEL 2
REMARK VINA RESULT:      -7.8      3.171      8.507
REMARK  3 active torsions:
REMARK  status: ('A' for Active; 'I' for Inactive)
REMARK    1  A    between atoms: C_11  and  N_12 
REMARK       I    between atoms: N_12  and  C_13 
REMARK       I    between atoms: C_13  and  N_14 
REMARK    2  A    between atoms: N_14  and  C_15 
REMARK    3  A    between atoms: C_20  and  O_21 
ROOT
HETATM    1  N   UNL     1      -1.407   5.315 -30.713  1.00  0.00    -0.338 N 
HETATM    2  C   UNL     1      -2.002   4.502 -31.666  1.00  0.00     0.321 C 
HETATM    3  N   UNL     1      -2.927   3.661 -31.094  1.00  0.00    -0.306 N 
HETATM    4  O   UNL     1      -1.689   4.540 -32.846  1.00  0.00    -0.247 OA
HETATM    5  H   UNL     1      -2.015   5.438 -29.913  1.00  0.00     0.164 HD
HETATM    6  H   UNL     1      -3.104   3.741 -30.101  1.00  0.00     0.171 HD
ENDROOT
BRANCH   1   7
HETATM    7  C   UNL     1      -0.636   6.507 -31.063  1.00  0.00     0.091 C 
HETATM    8  C   UNL     1       0.495   6.950 -30.123  1.00  0.00     0.063 C 
HETATM    9  C   UNL     1       0.047   7.552 -28.790  1.00  0.00     0.121 C 
HETATM   10  N   UNL     1      -0.978   8.637 -29.059  1.00  0.00    -0.059 N 
HETATM   11  C   UNL     1      -0.502   6.544 -27.779  1.00  0.00     0.046 C 
HETATM   12  C   UNL     1       1.250   8.260 -28.130  1.00  0.00     0.046 C 
HETATM   13  C   UNL     1      -2.100   8.399 -30.047  1.00  0.00     0.121 C 
HETATM   14  H   UNL     1      -0.456   9.464 -29.383  1.00  0.00     0.279 HD
HETATM   15  H   UNL     1      -1.383   8.933 -28.158  1.00  0.00     0.279 HD
HETATM   16  C   UNL     1      -3.248   7.644 -29.369  1.00  0.00     0.046 C 
HETATM   17  C   UNL     1      -2.630   9.797 -30.429  1.00  0.00     0.046 C 
HETATM   18  C   UNL     1      -1.565   7.704 -31.314  1.00  0.00     0.063 C 
ENDBRANCH   1   7
BRANCH   3  19
HETATM   19  C   UNL     1      -3.754   2.716 -31.748  1.00  0.00     0.077 A 
HETATM   20  C   UNL     1      -4.990   3.183 -32.217  1.00  0.00     0.143 A 
HETATM   21  F   UNL     1      -5.322   4.469 -32.022  1.00  0.00    -0.204 F 
HETATM   22  C   UNL     1      -5.873   2.351 -32.893  1.00  0.00     0.047 A 
HETATM   23  C   UNL     1      -5.527   1.018 -33.096  1.00  0.00     0.040 A 
HETATM   24  C   UNL     1      -4.307   0.522 -32.624  1.00  0.00     0.070 A 
HETATM   25  C   UNL     1      -3.420   1.374 -31.956  1.00  0.00     0.069 A 
BRANCH  24  26
HETATM   26  O   UNL     1      -4.103  -0.807 -32.882  1.00  0.00    -0.356 OA
HETATM   27  C   UNL     1      -3.329  -1.540 -31.940  1.00  0.00     0.210 C 
ENDBRANCH  24  26
ENDBRANCH   3  19
TORSDOF 3
ENDMDL
MODEL 3
REMARK VINA RESULT:      -7.7      2.786      7.455
REMARK  3 active torsions:
REMARK  status: ('A' for Active; 'I' for Inactive)
REMARK    1  A    between atoms: C_11  and  N_12 
REMARK       I    between atoms: N_12  and  C_13 
REMARK       I    between atoms: C_13  and  N_14 
REMARK    2  A    between atoms: N_14  and  C_15 
REMARK    3  A    between atoms: C_20  and  O_21 
ROOT
HETATM    1  N   UNL     1      -5.012   2.505 -32.353  1.00  0.00    -0.338 N 
HETATM    2  C   UNL     1      -5.135   1.124 -32.297  1.00  0.00     0.321 C 
HETATM    3  N   UNL     1      -5.312   0.590 -33.551  1.00  0.00    -0.306 N 
HETATM    4  O   UNL     1      -5.116   0.509 -31.242  1.00  0.00    -0.247 OA
HETATM    5  H   UNL     1      -4.667   2.800 -33.258  1.00  0.00     0.164 HD
HETATM    6  H   UNL     1      -5.294   1.212 -34.348  1.00  0.00     0.171 HD
ENDROOT
BRANCH   1   7
HETATM    7  C   UNL     1      -4.501   3.297 -31.235  1.00  0.00     0.091 C 
HETATM    8  C   UNL     1      -5.176   4.641 -30.923  1.00  0.00     0.063 C 
HETATM    9  C   UNL     1      -4.906   5.764 -31.926  1.00  0.00     0.121 C 
HETATM   10  N   UNL     1      -3.410   5.874 -32.152  1.00  0.00    -0.059 N 
HETATM   11  C   UNL     1      -5.635   5.622 -33.264  1.00  0.00     0.046 C 
HETATM   12  C   UNL     1      -5.340   7.108 -31.303  1.00  0.00     0.046 C 
HETATM   13  C   UNL     1      -2.578   4.628 -32.368  1.00  0.00     0.121 C 
HETATM   14  H   UNL     1      -3.023   6.364 -31.333  1.00  0.00     0.279 HD
HETATM   15  H   UNL     1      -3.247   6.525 -32.934  1.00  0.00     0.279 HD
HETATM   16  C   UNL     1      -2.650   4.192 -33.835  1.00  0.00     0.046 C 
HETATM   17  C   UNL     1      -1.119   5.042 -32.081  1.00  0.00     0.046 C 
HETATM   18  C   UNL     1      -2.989   3.526 -31.373  1.00  0.00     0.063 C 
ENDBRANCH   1   7
BRANCH   3  19
HETATM   19  C   UNL     1      -5.442  -0.778 -33.895  1.00  0.00     0.077 A 
HETATM   20  C   UNL     1      -6.732  -1.223 -34.216  1.00  0.00     0.143 A 
HETATM   21  F   UNL     1      -7.755  -0.354 -34.175  1.00  0.00    -0.204 F 
HETATM   22  C   UNL     1      -6.977  -2.538 -34.591  1.00  0.00     0.047 A 
HETATM   23  C   UNL     1      -5.915  -3.437 -34.635  1.00  0.00     0.040 A 
HETATM   24  C   UNL     1      -4.620  -3.024 -34.303  1.00  0.00     0.070 A 
HETATM   25  C   UNL     1      -4.386  -1.692 -33.940  1.00  0.00     0.069 A 
BRANCH  24  26
HETATM   26  O   UNL     1      -3.678  -4.013 -34.376  1.00  0.00    -0.356 OA
HETATM   27  C   UNL     1      -3.694  -5.003 -33.354  1.00  0.00     0.210 C 
ENDBRANCH  24  26
ENDBRANCH   3  19
TORSDOF 3
ENDMDL
MODEL 4
REMARK VINA RESULT:      -7.6      3.212      8.629
REMARK  3 active torsions:
REMARK  status: ('A' for Active; 'I' for Inactive)
REMARK    1  A    between atoms: C_11  and  N_12 
REMARK       I    between atoms: N_12  and  C_13 
REMARK       I    between atoms: C_13  and  N_14 
REMARK    2  A    between atoms: N_14  and  C_15 
REMARK    3  A    between atoms: C_20  and  O_21 
ROOT
HETATM    1  N   UNL     1      -1.445   5.262 -30.765  1.00  0.00    -0.338 N 
HETATM    2  C   UNL     1      -2.077   4.492 -31.731  1.00  0.00     0.321 C 
HETATM    3  N   UNL     1      -3.040   3.686 -31.172  1.00  0.00    -0.306 N 
HETATM    4  O   UNL     1      -1.761   4.535 -32.910  1.00  0.00    -0.247 OA
HETATM    5  H   UNL     1      -2.048   5.401 -29.964  1.00  0.00     0.164 HD
HETATM    6  H   UNL     1      -3.214   3.759 -30.178  1.00  0.00     0.171 HD
ENDROOT
BRANCH   1   7
HETATM    7  C   UNL     1      -0.620   6.423 -31.097  1.00  0.00     0.091 C 
HETATM    8  C   UNL     1       0.477   6.847 -30.109  1.00  0.00     0.063 C 
HETATM    9  C   UNL     1      -0.016   7.488 -28.811  1.00  0.00     0.121 C 
HETATM   10  N   UNL     1      -0.991   8.599 -29.149  1.00  0.00    -0.059 N 
HETATM   11  C   UNL     1      -0.647   6.515 -27.811  1.00  0.00     0.046 C 
HETATM   12  C   UNL     1       1.175   8.169 -28.104  1.00  0.00     0.046 C 
HETATM   13  C   UNL     1      -2.071   8.378 -30.186  1.00  0.00     0.121 C 
HETATM   14  H   UNL     1      -0.427   9.403 -29.459  1.00  0.00     0.279 HD
HETATM   15  H   UNL     1      -1.430   8.924 -28.273  1.00  0.00     0.279 HD
HETATM   16  C   UNL     1      -3.274   7.672 -29.553  1.00  0.00     0.046 C 
HETATM   17  C   UNL     1      -2.535   9.785 -30.618  1.00  0.00     0.046 C 
HETATM   18  C   UNL     1      -1.496   7.643 -31.413  1.00  0.00     0.063 C 
ENDBRANCH   1   7
BRANCH   3  19
HETATM   19  C   UNL     1      -3.909   2.790 -31.841  1.00  0.00     0.077 A 
HETATM   20  C   UNL     1      -3.675   1.423 -31.640  1.00  0.00     0.143 A 
HETATM   21  F   UNL     1      -2.660   1.040 -30.849  1.00  0.00    -0.204 F 
HETATM   22  C   UNL     1      -4.478   0.453 -32.227  1.00  0.00     0.047 A 
HETATM   23  C   UNL     1      -5.531   0.851 -33.045  1.00  0.00     0.040 A 
HETATM   24  C   UNL     1      -5.777   2.209 -33.276  1.00  0.00     0.070 A 
HETATM   25  C   UNL     1      -4.969   3.176 -32.667  1.00  0.00     0.069 A 
BRANCH  24  26
HETATM   26  O   UNL     1      -6.834   2.455 -34.109  1.00  0.00    -0.356 OA
HETATM   27  C   UNL     1      -8.064   2.834 -33.504  1.00  0.00     0.210 C 
ENDBRANCH  24  26
ENDBRANCH   3  19
TORSDOF 3
ENDMDL
MODEL 5
REMARK VINA RESULT:      -7.5      2.139      3.176
REMARK  3 active torsions:
REMARK  status: ('A' for Active; 'I' for Inactive)
REMARK    1  A    between atoms: C_11  and  N_12 
REMARK       I    between atoms: N_12  and  C_13 
REMARK       I    between atoms: C_13  and  N_14 
REMARK    2  A    between atoms: N_14  and  C_15 
REMARK    3  A    between atoms: C_20  and  O_21 
ROOT
HETATM    1  N   UNL     1      -6.313   2.704 -33.342  1.00  0.00    -0.338 N 
HETATM    2  C   UNL     1      -5.556   3.827 -33.640  1.00  0.00     0.321 C 
HETATM    3  N   UNL     1      -4.673   4.114 -32.626  1.00  0.00    -0.306 N 
HETATM    4  O   UNL     1      -5.711   4.466 -34.669  1.00  0.00    -0.247 OA
HETATM    5  H   UNL     1      -5.824   2.100 -32.693  1.00  0.00     0.164 HD
HETATM    6  H   UNL     1      -4.634   3.492 -31.828  1.00  0.00     0.171 HD
ENDROOT
BRANCH   1   7
HETATM    7  C   UNL     1      -7.090   1.986 -34.352  1.00  0.00     0.091 C 
HETATM    8  C   UNL     1      -8.609   1.866 -34.156  1.00  0.00     0.063 C 
HETATM    9  C   UNL     1      -9.058   0.917 -33.044  1.00  0.00     0.121 C 
HETATM   10  N   UNL     1      -8.361  -0.418 -33.224  1.00  0.00    -0.059 N 
HETATM   11  C   UNL     1      -8.840   1.441 -31.623  1.00  0.00     0.046 C 
HETATM   12  C   UNL     1     -10.567   0.632 -33.206  1.00  0.00     0.046 C 
HETATM   13  C   UNL     1      -6.880  -0.471 -33.531  1.00  0.00     0.121 C 
HETATM   14  H   UNL     1      -8.850  -0.907 -33.987  1.00  0.00     0.279 HD
HETATM   15  H   UNL     1      -8.551  -0.999 -32.393  1.00  0.00     0.279 HD
HETATM   16  C   UNL     1      -6.068  -0.352 -32.237  1.00  0.00     0.046 C 
HETATM   17  C   UNL     1      -6.619  -1.877 -34.112  1.00  0.00     0.046 C 
HETATM   18  C   UNL     1      -6.512   0.584 -34.592  1.00  0.00     0.063 C 
ENDBRANCH   1   7
BRANCH   3  19
HETATM   19  C   UNL     1      -3.719   5.160 -32.583  1.00  0.00     0.077 A 
HETATM   20  C   UNL     1      -2.429   4.850 -33.035  1.00  0.00     0.143 A 
HETATM   21  F   UNL     1      -2.167   3.607 -33.469  1.00  0.00    -0.204 F 
HETATM   22  C   UNL     1      -1.418   5.802 -33.060  1.00  0.00     0.047 A 
HETATM   23  C   UNL     1      -1.691   7.091 -32.611  1.00  0.00     0.040 A 
HETATM   24  C   UNL     1      -2.966   7.423 -32.138  1.00  0.00     0.070 A 
HETATM   25  C   UNL     1      -3.980   6.457 -32.132  1.00  0.00     0.069 A 
BRANCH  24  26
HETATM   26  O   UNL     1      -3.090   8.719 -31.717  1.00  0.00    -0.356 OA
HETATM   27  C   UNL     1      -3.511   8.929 -30.375  1.00  0.00     0.210 C 
ENDBRANCH  24  26
ENDBRANCH   3  19
TORSDOF 3
ENDMDL
MODEL 6
REMARK VINA RESULT:      -7.4      4.858      7.324
REMARK  3 active torsions:
REMARK  status: ('A' for Active; 'I' for Inactive)
REMARK    1  A    between atoms: C_11  and  N_12 
REMARK       I    between atoms: N_12  and  C_13 
REMARK       I    between atoms: C_13  and  N_14 
REMARK    2  A    between atoms: N_14  and  C_15 
REMARK    3  A    between atoms: C_20  and  O_21 
ROOT
HETATM    1  N   UNL     1     -11.797   1.675 -32.930  1.00  0.00    -0.338 N 
HETATM    2  C   UNL     1     -10.542   1.303 -33.390  1.00  0.00     0.321 C 
HETATM    3  N   UNL     1      -9.759   0.824 -32.367  1.00  0.00    -0.306 N 
HETATM    4  O   UNL     1     -10.209   1.434 -34.558  1.00  0.00    -0.247 OA
HETATM    5  H   UNL     1     -12.038   1.166 -32.089  1.00  0.00     0.164 HD
HETATM    6  H   UNL     1     -10.163   0.753 -31.442  1.00  0.00     0.171 HD
ENDROOT
BRANCH   1   7
HETATM    7  C   UNL     1     -12.928   1.911 -33.826  1.00  0.00     0.091 C 
HETATM    8  C   UNL     1     -12.815   3.035 -34.866  1.00  0.00     0.063 C 
HETATM    9  C   UNL     1     -12.877   4.458 -34.308  1.00  0.00     0.121 C 
HETATM   10  N   UNL     1     -14.092   4.583 -33.409  1.00  0.00    -0.059 N 
HETATM   11  C   UNL     1     -11.620   4.915 -33.565  1.00  0.00     0.046 C 
HETATM   12  C   UNL     1     -13.109   5.444 -35.473  1.00  0.00     0.046 C 
HETATM   13  C   UNL     1     -14.409   3.500 -32.399  1.00  0.00     0.121 C 
HETATM   14  H   UNL     1     -14.911   4.673 -34.028  1.00  0.00     0.279 HD
HETATM   15  H   UNL     1     -14.046   5.491 -32.923  1.00  0.00     0.279 HD
HETATM   16  C   UNL     1     -13.587   3.713 -31.123  1.00  0.00     0.046 C 
HETATM   17  C   UNL     1     -15.895   3.691 -32.028  1.00  0.00     0.046 C 
HETATM   18  C   UNL     1     -14.226   2.106 -33.029  1.00  0.00     0.063 C 
ENDBRANCH   1   7
BRANCH   3  19
HETATM   19  C   UNL     1      -8.438   0.323 -32.454  1.00  0.00     0.077 A 
HETATM   20  C   UNL     1      -7.506   0.853 -31.551  1.00  0.00     0.143 A 
HETATM   21  F   UNL     1      -7.902   1.790 -30.675  1.00  0.00    -0.204 F 
HETATM   22  C   UNL     1      -6.186   0.421 -31.529  1.00  0.00     0.047 A 
HETATM   23  C   UNL     1      -5.777  -0.552 -32.436  1.00  0.00     0.040 A 
HETATM   24  C   UNL     1      -6.682  -1.086 -33.360  1.00  0.00     0.070 A 
HETATM   25  C   UNL     1      -8.013  -0.651 -33.363  1.00  0.00     0.069 A 
BRANCH  24  26
HETATM   26  O   UNL     1      -6.143  -2.022 -34.199  1.00  0.00    -0.356 OA
HETATM   27  C   UNL     1      -4.763  -2.326 -34.033  1.00  0.00     0.210 C 
ENDBRANCH  24  26
ENDBRANCH   3  19
TORSDOF 3
ENDMDL
MODEL 7
REMARK VINA RESULT:      -7.3      4.309      7.344
REMARK  3 active torsions:
REMARK  status: ('A' for Active; 'I' for Inactive)
REMARK    1  A    between atoms: C_11  and  N_12 
REMARK       I    between atoms: N_12  and  C_13 
REMARK       I    between atoms: C_13  and  N_14 
REMARK    2  A    between atoms: N_14  and  C_15 
REMARK    3  A    between atoms: C_20  and  O_21 
ROOT
HETATM    1  N   UNL     1      -3.128   5.975 -30.100  1.00  0.00    -0.338 N 
HETATM    2  C   UNL     1      -2.480   7.059 -29.527  1.00  0.00     0.321 C 
HETATM    3  N   UNL     1      -1.492   6.648 -28.664  1.00  0.00    -0.306 N 
HETATM    4  O   UNL     1      -2.803   8.213 -29.762  1.00  0.00    -0.247 OA
HETATM    5  H   UNL     1      -2.525   5.162 -30.117  1.00  0.00     0.164 HD
HETATM    6  H   UNL     1      -1.315   5.656 -28.570  1.00  0.00     0.171 HD
ENDROOT
BRANCH   1   7
HETATM    7  C   UNL     1      -3.987   6.102 -31.277  1.00  0.00     0.091 C 
HETATM    8  C   UNL     1      -4.879   4.913 -31.663  1.00  0.00     0.063 C 
HETATM    9  C   UNL     1      -4.149   3.702 -32.247  1.00  0.00     0.121 C 
HETATM   10  N   UNL     1      -3.240   4.168 -33.368  1.00  0.00    -0.059 N 
HETATM   11  C   UNL     1      -3.357   2.876 -31.231  1.00  0.00     0.046 C 
HETATM   12  C   UNL     1      -5.183   2.761 -32.902  1.00  0.00     0.046 C 
HETATM   13  C   UNL     1      -2.372   5.394 -33.187  1.00  0.00     0.121 C 
HETATM   14  H   UNL     1      -3.842   4.337 -34.186  1.00  0.00     0.279 HD
HETATM   15  H   UNL     1      -2.645   3.376 -33.654  1.00  0.00     0.279 HD
HETATM   16  C   UNL     1      -1.080   5.023 -32.451  1.00  0.00     0.046 C 
HETATM   17  C   UNL     1      -1.979   5.846 -34.610  1.00  0.00     0.046 C 
HETATM   18  C   UNL     1      -3.170   6.524 -32.507  1.00  0.00     0.063 C 
ENDBRANCH   1   7
BRANCH   3  19
HETATM   19  C   UNL     1      -0.601   7.461 -27.922  1.00  0.00     0.077 A 
HETATM   20  C   UNL     1       0.616   7.784 -28.539  1.00  0.00     0.143 A 
HETATM   21  F   UNL     1       0.872   7.312 -29.769  1.00  0.00    -0.204 F 
HETATM   22  C   UNL     1       1.557   8.593 -27.915  1.00  0.00     0.047 A 
HETATM   23  C   UNL     1       1.289   9.083 -26.640  1.00  0.00     0.040 A 
HETATM   24  C   UNL     1       0.089   8.763 -25.994  1.00  0.00     0.070 A 
HETATM   25  C   UNL     1      -0.857   7.957 -26.640  1.00  0.00     0.069 A 
BRANCH  24  26
HETATM   26  O   UNL     1      -0.036   9.301 -24.742  1.00  0.00    -0.356 OA
HETATM   27  C   UNL     1      -1.353   9.588 -24.287  1.00  0.00     0.210 C 
ENDBRANCH  24  26
ENDBRANCH   3  19
TORSDOF 3
ENDMDL
MODEL 8
REMARK VINA RESULT:      -7.2      1.651      2.210
REMARK  3 active torsions:
REMARK  status: ('A' for Active; 'I' for Inactive)
REMARK    1  A    between atoms: C_11  and  N_12 
REMARK       I    between atoms: N_12  and  C_13 
REMARK       I    between atoms: C_13  and  N_14 
REMARK    2  A    between atoms: N_14  and  C_15 
REMARK    3  A    between atoms: C_20  and  O_21 
ROOT
HETATM    1  N   UNL     1      -6.415   2.033 -32.346  1.00  0.00    -0.338 N 
HETATM    2  C   UNL     1      -5.259   2.707 -31.981  1.00  0.00     0.321 C 
HETATM    3  N   UNL     1      -4.704   3.361 -33.056  1.00  0.00    -0.306 N 
HETATM    4  O   UNL     1      -4.810   2.668 -30.846  1.00  0.00    -0.247 OA
HETATM    5  H   UNL     1      -6.841   2.462 -33.158  1.00  0.00     0.164 HD
HETATM    6  H   UNL     1      -5.187   3.324 -33.945  1.00  0.00     0.171 HD
ENDROOT
BRANCH   1   7
HETATM    7  C   UNL     1      -7.376   1.528 -31.366  1.00  0.00     0.091 C 
HETATM    8  C   UNL     1      -8.338   0.411 -31.795  1.00  0.00     0.063 C 
HETATM    9  C   UNL     1      -9.447   0.829 -32.762  1.00  0.00     0.121 C 
HETATM   10  N   UNL     1     -10.148   2.055 -32.207  1.00  0.00    -0.059 N 
HETATM   11  C   UNL     1      -8.986   1.088 -34.198  1.00  0.00     0.046 C 
HETATM   12  C   UNL     1     -10.516  -0.283 -32.812  1.00  0.00     0.046 C 
HETATM   13  C   UNL     1      -9.342   3.205 -31.643  1.00  0.00     0.121 C 
HETATM   14  H   UNL     1     -10.775   1.724 -31.460  1.00  0.00     0.279 HD
HETATM   15  H   UNL     1     -10.789   2.417 -32.929  1.00  0.00     0.279 HD
HETATM   16  C   UNL     1      -8.875   4.127 -32.774  1.00  0.00     0.046 C 
HETATM   17  C   UNL     1     -10.319   4.013 -30.762  1.00  0.00     0.046 C 
HETATM   18  C   UNL     1      -8.194   2.677 -30.760  1.00  0.00     0.063 C 
ENDBRANCH   1   7
BRANCH   3  19
HETATM   19  C   UNL     1      -3.546   4.174 -33.067  1.00  0.00     0.077 A 
HETATM   20  C   UNL     1      -3.489   5.171 -34.051  1.00  0.00     0.143 A 
HETATM   21  F   UNL     1      -4.508   5.297 -34.917  1.00  0.00    -0.204 F 
HETATM   22  C   UNL     1      -2.412   6.043 -34.144  1.00  0.00     0.047 A 
HETATM   23  C   UNL     1      -1.357   5.913 -33.245  1.00  0.00     0.040 A 
HETATM   24  C   UNL     1      -1.380   4.916 -32.263  1.00  0.00     0.070 A 
HETATM   25  C   UNL     1      -2.478   4.053 -32.172  1.00  0.00     0.069 A 
BRANCH  24  26
HETATM   26  O   UNL     1      -0.274   4.895 -31.457  1.00  0.00    -0.356 OA
HETATM   27  C   UNL     1       0.324   6.146 -31.142  1.00  0.00     0.210 C 
ENDBRANCH  24  26
ENDBRANCH   3  19
TORSDOF 3
ENDMDL
MODEL 9
REMARK VINA RESULT:      -7.2      3.980      6.722
REMARK  3 active torsions:
REMARK  status: ('A' for Active; 'I' for Inactive)
REMARK    1  A    between atoms: C_11  and  N_12 
REMARK       I    between atoms: N_12  and  C_13 
REMARK       I    between atoms: C_13  and  N_14 
REMARK    2  A    between atoms: N_14  and  C_15 
REMARK    3  A    between atoms: C_20  and  O_21 
ROOT
HETATM    1  N   UNL     1      -2.302   5.120 -30.719  1.00  0.00    -0.338 N 
HETATM    2  C   UNL     1      -1.268   5.965 -30.344  1.00  0.00     0.321 C 
HETATM    3  N   UNL     1      -1.494   6.505 -29.100  1.00  0.00    -0.306 N 
HETATM    4  O   UNL     1      -0.314   6.195 -31.072  1.00  0.00    -0.247 OA
HETATM    5  H   UNL     1      -2.775   4.746 -29.906  1.00  0.00     0.164 HD
HETATM    6  H   UNL     1      -2.321   6.219 -28.592  1.00  0.00     0.171 HD
ENDROOT
BRANCH   1   7
HETATM    7  C   UNL     1      -2.183   4.171 -31.826  1.00  0.00     0.091 C 
HETATM    8  C   UNL     1      -2.461   4.672 -33.250  1.00  0.00     0.063 C 
HETATM    9  C   UNL     1      -3.927   4.964 -33.573  1.00  0.00     0.121 C 
HETATM   10  N   UNL     1      -4.767   3.765 -33.176  1.00  0.00    -0.059 N 
HETATM   11  C   UNL     1      -4.487   6.238 -32.935  1.00  0.00     0.046 C 
HETATM   12  C   UNL     1      -4.086   5.105 -35.102  1.00  0.00     0.046 C 
HETATM   13  C   UNL     1      -4.544   3.084 -31.844  1.00  0.00     0.121 C 
HETATM   14  H   UNL     1      -4.634   3.055 -33.910  1.00  0.00     0.279 HD
HETATM   15  H   UNL     1      -5.762   4.025 -33.257  1.00  0.00     0.279 HD
HETATM   16  C   UNL     1      -5.295   3.831 -30.737  1.00  0.00     0.046 C 
HETATM   17  C   UNL     1      -5.183   1.685 -31.972  1.00  0.00     0.046 C 
HETATM   18  C   UNL     1      -3.036   2.921 -31.568  1.00  0.00     0.063 C 
ENDBRANCH   1   7
BRANCH   3  19
HETATM   19  C   UNL     1      -0.652   7.383 -28.375  1.00  0.00     0.077 A 
HETATM   20  C   UNL     1       0.537   6.837 -27.871  1.00  0.00     0.143 A 
HETATM   21  F   UNL     1       0.808   5.540 -28.091  1.00  0.00    -0.204 F 
HETATM   22  C   UNL     1       1.450   7.608 -27.164  1.00  0.00     0.047 A 
HETATM   23  C   UNL     1       1.169   8.953 -26.938  1.00  0.00     0.040 A 
HETATM   24  C   UNL     1      -0.018   9.519 -27.415  1.00  0.00     0.070 A 
HETATM   25  C   UNL     1      -0.924   8.734 -28.139  1.00  0.00     0.069 A 
BRANCH  24  26
HETATM   26  O   UNL     1      -0.171  10.844 -27.110  1.00  0.00    -0.356 OA
HETATM   27  C   UNL     1       0.373  11.294 -25.875  1.00  0.00     0.210 C 
ENDBRANCH  24  26
ENDBRANCH   3  19
TORSDOF 3
ENDMDL
MODEL 10
REMARK VINA RESULT:      -7.1      2.078      2.539
REMARK  3 active torsions:
REMARK  status: ('A' for Active; 'I' for Inactive)
REMARK    1  A    between atoms: C_11  and  N_12 
REMARK       I    between atoms: N_12  and  C_13 
REMARK       I    between atoms: C_13  and  N_14 
REMARK    2  A    between atoms: N_14  and  C_15 
REMARK    3  A    between atoms: C_20  and  O_21 
ROOT
HETATM    1  N   UNL     1      -4.866   2.158 -32.137  1.00  0.00    -0.338 N 
HETATM    2  C   UNL     1      -3.718   2.869 -31.818  1.00  0.00     0.321 C 
HETATM    3  N   UNL     1      -3.700   4.091 -32.446  1.00  0.00    -0.306 N 
HETATM    4  O   UNL     1      -2.848   2.414 -31.093  1.00  0.00    -0.247 OA
HETATM    5  H   UNL     1      -5.617   2.784 -32.399  1.00  0.00     0.164 HD
HETATM    6  H   UNL     1      -4.496   4.356 -33.013  1.00  0.00     0.171 HD
ENDROOT
BRANCH   1   7
HETATM    7  C   UNL     1      -5.305   0.987 -31.379  1.00  0.00     0.091 C 
HETATM    8  C   UNL     1      -4.322  -0.179 -31.202  1.00  0.00     0.063 C 
HETATM    9  C   UNL     1      -4.055  -1.013 -32.456  1.00  0.00     0.121 C 
HETATM   10  N   UNL     1      -5.381  -1.423 -33.068  1.00  0.00    -0.059 N 
HETATM   11  C   UNL     1      -3.175  -0.332 -33.507  1.00  0.00     0.046 C 
HETATM   12  C   UNL     1      -3.353  -2.326 -32.047  1.00  0.00     0.046 C 
HETATM   13  C   UNL     1      -6.498  -0.413 -33.215  1.00  0.00     0.121 C 
HETATM   14  H   UNL     1      -5.743  -2.200 -32.497  1.00  0.00     0.279 HD
HETATM   15  H   UNL     1      -5.196  -1.853 -33.987  1.00  0.00     0.279 HD
HETATM   16  C   UNL     1      -6.298   0.415 -34.489  1.00  0.00     0.046 C 
HETATM   17  C   UNL     1      -7.791  -1.237 -33.398  1.00  0.00     0.046 C 
HETATM   18  C   UNL     1      -6.626   0.439 -31.937  1.00  0.00     0.063 C 
ENDBRANCH   1   7
BRANCH   3  19
HETATM   19  C   UNL     1      -2.713   5.102 -32.340  1.00  0.00     0.077 A 
HETATM   20  C   UNL     1      -1.925   5.330 -33.477  1.00  0.00     0.143 A 
HETATM   21  F   UNL     1      -2.136   4.594 -34.580  1.00  0.00    -0.204 F 
HETATM   22  C   UNL     1      -0.942   6.311 -33.496  1.00  0.00     0.047 A 
HETATM   23  C   UNL     1      -0.726   7.075 -32.353  1.00  0.00     0.040 A 
HETATM   24  C   UNL     1      -1.487   6.856 -31.199  1.00  0.00     0.070 A 
HETATM   25  C   UNL     1      -2.484   5.874 -31.198  1.00  0.00     0.069 A 
BRANCH  24  26
HETATM   26  O   UNL     1      -1.159   7.669 -30.147  1.00  0.00    -0.356 OA
HETATM   27  C   UNL     1      -1.685   7.324 -28.872  1.00  0.00     0.210 C 
ENDBRANCH  24  26
ENDBRANCH   3  19
TORSDOF 3
ENDMDL
