MODEL 1
REMARK VINA RESULT:      -8.5      0.000      0.000
REMARK  8 active torsions:
REMARK  status: ('A' for Active; 'I' for Inactive)
REMARK    1  A    between atoms: O_2  and  C_3 
REMARK    2  A    between atoms: C_7  and  C_9 
REMARK    3  A    between atoms: C_9  and  C_10 
REMARK    4  A    between atoms: C_9  and  N_18 
REMARK    5  A    between atoms: C_10  and  C_11 
REMARK    6  A    between atoms: C_11  and  N_12 
REMARK       I    between atoms: N_18  and  C_19 
REMARK    7  A    between atoms: C_19  and  C_21 
REMARK    8  A    between atoms: C_24  and  C_27 
ROOT
HETATM    1  C   UNL     1      -8.757   4.782 -33.758  1.00  0.00     0.119 C 
ENDROOT
BRANCH   1   2
HETATM    2  C   UNL     1     -10.109   4.830 -34.454  1.00  0.00    -0.033 A 
HETATM    3  C   UNL     1     -10.837   6.013 -34.649  1.00  0.00     0.009 A 
HETATM    4  C   UNL     1     -12.080   5.982 -35.283  1.00  0.00     0.003 A 
HETATM    5  C   UNL     1     -12.620   4.770 -35.709  1.00  0.00     0.037 A 
HETATM    6  C   UNL     1     -11.932   3.576 -35.498  1.00  0.00     0.068 A 
HETATM    7  C   UNL     1     -10.679   3.611 -34.882  1.00  0.00     0.046 A 
BRANCH   6   8
HETATM    8  O   UNL     1     -12.578   2.457 -35.940  1.00  0.00    -0.356 OA
HETATM    9  C   UNL     1     -12.823   1.432 -34.984  1.00  0.00     0.210 C 
ENDBRANCH   6   8
ENDBRANCH   1   2
BRANCH   1  10
HETATM   10  C   UNL     1      -8.735   5.397 -32.339  1.00  0.00     0.057 C 
BRANCH  10  11
HETATM   11  C   UNL     1      -8.994   4.350 -31.256  1.00  0.00     0.237 C 
BRANCH  11  12
HETATM   12  N   UNL     1      -7.803   4.221 -30.331  1.00  0.00    -0.071 N 
HETATM   13  H   UNL     1      -8.117   4.466 -29.381  1.00  0.00     0.279 HD
HETATM   14  C   UNL     1      -6.613   5.102 -30.663  1.00  0.00     0.235 C 
HETATM   15  C   UNL     1      -5.460   4.140 -30.881  1.00  0.00     0.029 C 
HETATM   16  C   UNL     1      -5.811   2.948 -30.015  1.00  0.00     0.029 C 
HETATM   17  C   UNL     1      -7.295   2.790 -30.262  1.00  0.00     0.235 C 
ENDBRANCH  11  12
ENDBRANCH  10  11
ENDBRANCH   1  10
BRANCH   1  18
HETATM   18  N   UNL     1      -8.307   3.396 -33.742  1.00  0.00    -0.348 N 
HETATM   19  C   UNL     1      -7.017   3.039 -34.068  1.00  0.00     0.252 C 
HETATM   20  O   UNL     1      -6.146   3.880 -34.273  1.00  0.00    -0.268 OA
HETATM   21  H   UNL     1      -8.996   2.688 -33.523  1.00  0.00     0.163 HD
BRANCH  19  22
HETATM   22  C   UNL     1      -6.688   1.586 -34.063  1.00  0.00     0.032 A 
HETATM   23  C   UNL     1      -5.662   1.045 -33.283  1.00  0.00     0.018 A 
HETATM   24  C   UNL     1      -5.353  -0.317 -33.380  1.00  0.00     0.013 A 
HETATM   25  C   UNL     1      -6.062  -1.166 -34.247  1.00  0.00    -0.026 A 
HETATM   26  C   UNL     1      -7.119  -0.615 -34.988  1.00  0.00     0.013 A 
HETATM   27  C   UNL     1      -7.432   0.744 -34.896  1.00  0.00     0.018 A 
BRANCH  25  28
HETATM   28  C   UNL     1      -5.699  -2.584 -34.388  1.00  0.00    -0.023 A 
HETATM   29  C   UNL     1      -4.447  -3.062 -33.982  1.00  0.00     0.031 A 
HETATM   30  C   UNL     1      -4.153  -4.406 -34.150  1.00  0.00     0.117 A 
HETATM   31  N   UNL     1      -5.007  -5.299 -34.691  1.00  0.00    -0.273 NA
HETATM   32  C   UNL     1      -6.210  -4.828 -35.077  1.00  0.00     0.117 A 
HETATM   33  C   UNL     1      -6.595  -3.504 -34.946  1.00  0.00     0.031 A 
ENDBRANCH  25  28
ENDBRANCH  19  22
ENDBRANCH   1  18
TORSDOF 8
ENDMDL
MODEL 2
REMARK VINA RESULT:      -8.5      2.975      5.936
REMARK  8 active torsions:
REMARK  status: ('A' for Active; 'I' for Inactive)
REMARK    1  A    between atoms: O_2  and  C_3 
REMARK    2  A    between atoms: C_7  and  C_9 
REMARK    3  A    between atoms: C_9  and  C_10 
REMARK    4  A    between atoms: C_9  and  N_18 
REMARK    5  A    between atoms: C_10  and  C_11 
REMARK    6  A    between atoms: C_11  and  N_12 
REMARK       I    between atoms: N_18  and  C_19 
REMARK    7  A    between atoms: C_19  and  C_21 
REMARK    8  A    between atoms: C_24  and  C_27 
ROOT
HETATM    1  C   UNL     1      -5.072   5.140 -32.550  1.00  0.00     0.119 C 
ENDROOT
BRANCH   1   2
HETATM    2  C   UNL     1      -3.751   5.732 -33.018  1.00  0.00    -0.033 A 
HETATM    3  C   UNL     1      -2.878   5.078 -33.900  1.00  0.00     0.009 A 
HETATM    4  C   UNL     1      -1.674   5.673 -34.275  1.00  0.00     0.003 A 
HETATM    5  C   UNL     1      -1.316   6.917 -33.758  1.00  0.00     0.037 A 
HETATM    6  C   UNL     1      -2.149   7.574 -32.855  1.00  0.00     0.068 A 
HETATM    7  C   UNL     1      -3.364   6.986 -32.496  1.00  0.00     0.046 A 
BRANCH   6   8
HETATM    8  O   UNL     1      -1.674   8.773 -32.404  1.00  0.00    -0.356 OA
HETATM    9  C   UNL     1      -2.228   9.274 -31.193  1.00  0.00     0.210 C 
ENDBRANCH   6   8
ENDBRANCH   1   2
BRANCH   1  10
HETATM   10  C   UNL     1      -6.328   5.943 -32.966  1.00  0.00     0.057 C 
BRANCH  10  11
HETATM   11  C   UNL     1      -7.392   5.949 -31.869  1.00  0.00     0.237 C 
BRANCH  11  12
HETATM   12  N   UNL     1      -8.617   5.171 -32.299  1.00  0.00    -0.071 N 
HETATM   13  H   UNL     1      -9.429   5.800 -32.226  1.00  0.00     0.279 HD
HETATM   14  C   UNL     1      -8.925   3.927 -31.485  1.00  0.00     0.235 C 
HETATM   15  C   UNL     1      -8.908   2.788 -32.487  1.00  0.00     0.029 C 
HETATM   16  C   UNL     1      -9.305   3.443 -33.793  1.00  0.00     0.029 C 
HETATM   17  C   UNL     1      -8.531   4.743 -33.755  1.00  0.00     0.235 C 
ENDBRANCH  11  12
ENDBRANCH  10  11
ENDBRANCH   1  10
BRANCH   1  18
HETATM   18  N   UNL     1      -5.143   3.764 -33.025  1.00  0.00    -0.348 N 
HETATM   19  C   UNL     1      -5.185   2.691 -32.162  1.00  0.00     0.252 C 
HETATM   20  O   UNL     1      -5.287   2.842 -30.947  1.00  0.00    -0.268 OA
HETATM   21  H   UNL     1      -5.114   3.616 -34.026  1.00  0.00     0.163 HD
BRANCH  19  22
HETATM   22  C   UNL     1      -5.206   1.329 -32.764  1.00  0.00     0.032 A 
HETATM   23  C   UNL     1      -6.124   0.950 -33.747  1.00  0.00     0.018 A 
HETATM   24  C   UNL     1      -6.141  -0.369 -34.218  1.00  0.00     0.013 A 
HETATM   25  C   UNL     1      -5.241  -1.330 -33.728  1.00  0.00    -0.026 A 
HETATM   26  C   UNL     1      -4.296  -0.921 -32.774  1.00  0.00     0.013 A 
HETATM   27  C   UNL     1      -4.274   0.394 -32.300  1.00  0.00     0.018 A 
BRANCH  25  28
HETATM   28  C   UNL     1      -5.298  -2.727 -34.184  1.00  0.00    -0.023 A 
HETATM   29  C   UNL     1      -6.387  -3.213 -34.916  1.00  0.00     0.031 A 
HETATM   30  C   UNL     1      -6.395  -4.542 -35.310  1.00  0.00     0.117 A 
HETATM   31  N   UNL     1      -5.405  -5.414 -35.027  1.00  0.00    -0.273 NA
HETATM   32  C   UNL     1      -4.360  -4.935 -34.323  1.00  0.00     0.117 A 
HETATM   33  C   UNL     1      -4.262  -3.623 -33.889  1.00  0.00     0.031 A 
ENDBRANCH  25  28
ENDBRANCH  19  22
ENDBRANCH   1  18
TORSDOF 8
ENDMDL
MODEL 3
REMARK VINA RESULT:      -8.2      3.040      6.328
REMARK  8 active torsions:
REMARK  status: ('A' for Active; 'I' for Inactive)
REMARK    1  A    between atoms: O_2  and  C_3 
REMARK    2  A    between atoms: C_7  and  C_9 
REMARK    3  A    between atoms: C_9  and  C_10 
REMARK    4  A    between atoms: C_9  and  N_18 
REMARK    5  A    between atoms: C_10  and  C_11 
REMARK    6  A    between atoms: C_11  and  N_12 
REMARK       I    between atoms: N_18  and  C_19 
REMARK    7  A    between atoms: C_19  and  C_21 
REMARK    8  A    between atoms: C_24  and  C_27 
ROOT
HETATM    1  C   UNL     1      -4.522   5.047 -31.784  1.00  0.00     0.119 C 
ENDROOT
BRANCH   1   2
HETATM    2  C   UNL     1      -3.144   5.570 -32.158  1.00  0.00    -0.033 A 
HETATM    3  C   UNL     1      -2.930   6.567 -33.122  1.00  0.00     0.009 A 
HETATM    4  C   UNL     1      -1.635   6.990 -33.427  1.00  0.00     0.003 A 
HETATM    5  C   UNL     1      -0.540   6.407 -32.792  1.00  0.00     0.037 A 
HETATM    6  C   UNL     1      -0.723   5.392 -31.855  1.00  0.00     0.068 A 
HETATM    7  C   UNL     1      -2.020   4.985 -31.536  1.00  0.00     0.046 A 
BRANCH   6   8
HETATM    8  O   UNL     1       0.431   4.889 -31.323  1.00  0.00    -0.356 OA
HETATM    9  C   UNL     1       0.564   4.939 -29.907  1.00  0.00     0.210 C 
ENDBRANCH   6   8
ENDBRANCH   1   2
BRANCH   1  10
HETATM   10  C   UNL     1      -5.698   5.970 -32.183  1.00  0.00     0.057 C 
BRANCH  10  11
HETATM   11  C   UNL     1      -6.447   5.447 -33.408  1.00  0.00     0.237 C 
BRANCH  11  12
HETATM   12  N   UNL     1      -7.862   5.047 -33.047  1.00  0.00    -0.071 N 
HETATM   13  H   UNL     1      -8.495   5.776 -33.404  1.00  0.00     0.279 HD
HETATM   14  C   UNL     1      -8.142   4.881 -31.565  1.00  0.00     0.235 C 
HETATM   15  C   UNL     1      -8.613   3.446 -31.411  1.00  0.00     0.029 C 
HETATM   16  C   UNL     1      -9.242   3.124 -32.750  1.00  0.00     0.029 C 
HETATM   17  C   UNL     1      -8.272   3.750 -33.727  1.00  0.00     0.235 C 
ENDBRANCH  11  12
ENDBRANCH  10  11
ENDBRANCH   1  10
BRANCH   1  18
HETATM   18  N   UNL     1      -4.673   3.718 -32.363  1.00  0.00    -0.348 N 
HETATM   19  C   UNL     1      -4.957   2.610 -31.596  1.00  0.00     0.252 C 
HETATM   20  O   UNL     1      -5.218   2.703 -30.399  1.00  0.00    -0.268 OA
HETATM   21  H   UNL     1      -4.515   3.626 -33.359  1.00  0.00     0.163 HD
BRANCH  19  22
HETATM   22  C   UNL     1      -5.039   1.297 -32.294  1.00  0.00     0.032 A 
HETATM   23  C   UNL     1      -6.098   0.953 -33.138  1.00  0.00     0.018 A 
HETATM   24  C   UNL     1      -6.155  -0.327 -33.704  1.00  0.00     0.013 A 
HETATM   25  C   UNL     1      -5.156  -1.282 -33.449  1.00  0.00    -0.026 A 
HETATM   26  C   UNL     1      -4.076  -0.904 -32.635  1.00  0.00     0.013 A 
HETATM   27  C   UNL     1      -4.014   0.371 -32.067  1.00  0.00     0.018 A 
BRANCH  25  28
HETATM   28  C   UNL     1      -5.247  -2.643 -34.000  1.00  0.00    -0.023 A 
HETATM   29  C   UNL     1      -6.368  -3.064 -34.724  1.00  0.00     0.031 A 
HETATM   30  C   UNL     1      -6.406  -4.362 -35.210  1.00  0.00     0.117 A 
HETATM   31  N   UNL     1      -5.418  -5.262 -35.025  1.00  0.00    -0.273 NA
HETATM   32  C   UNL     1      -4.343  -4.845 -34.328  1.00  0.00     0.117 A 
HETATM   33  C   UNL     1      -4.214  -3.568 -33.806  1.00  0.00     0.031 A 
ENDBRANCH  25  28
ENDBRANCH  19  22
ENDBRANCH   1  18
TORSDOF 8
ENDMDL
MODEL 4
REMARK VINA RESULT:      -8.2      3.853      8.205
REMARK  8 active torsions:
REMARK  status: ('A' for Active; 'I' for Inactive)
REMARK    1  A    between atoms: O_2  and  C_3 
REMARK    2  A    between atoms: C_7  and  C_9 
REMARK    3  A    between atoms: C_9  and  C_10 
REMARK    4  A    between atoms: C_9  and  N_18 
REMARK    5  A    between atoms: C_10  and  C_11 
REMARK    6  A    between atoms: C_11  and  N_12 
REMARK       I    between atoms: N_18  and  C_19 
REMARK    7  A    between atoms: C_19  and  C_21 
REMARK    8  A    between atoms: C_24  and  C_27 
ROOT
HETATM    1  C   UNL     1      -6.580   2.826 -34.212  1.00  0.00     0.119 C 
ENDROOT
BRANCH   1   2
HETATM    2  C   UNL     1      -6.382   1.319 -34.150  1.00  0.00    -0.033 A 
HETATM    3  C   UNL     1      -6.966   0.424 -35.058  1.00  0.00     0.009 A 
HETATM    4  C   UNL     1      -6.754  -0.950 -34.933  1.00  0.00     0.003 A 
HETATM    5  C   UNL     1      -5.977  -1.446 -33.888  1.00  0.00     0.037 A 
HETATM    6  C   UNL     1      -5.413  -0.581 -32.952  1.00  0.00     0.068 A 
HETATM    7  C   UNL     1      -5.609   0.794 -33.091  1.00  0.00     0.046 A 
BRANCH   6   8
HETATM    8  O   UNL     1      -4.695  -1.194 -31.965  1.00  0.00    -0.356 OA
HETATM    9  C   UNL     1      -3.301  -0.914 -31.911  1.00  0.00     0.210 C 
ENDBRANCH   6   8
ENDBRANCH   1   2
BRANCH   1  10
HETATM   10  C   UNL     1      -7.998   3.312 -33.828  1.00  0.00     0.057 C 
BRANCH  10  11
HETATM   11  C   UNL     1      -8.286   3.120 -32.339  1.00  0.00     0.237 C 
BRANCH  11  12
HETATM   12  N   UNL     1      -9.455   2.181 -32.130  1.00  0.00    -0.071 N 
HETATM   13  H   UNL     1     -10.064   2.594 -31.411  1.00  0.00     0.279 HD
HETATM   14  C   UNL     1      -9.099   0.776 -31.679  1.00  0.00     0.235 C 
HETATM   15  C   UNL     1      -9.665  -0.137 -32.750  1.00  0.00     0.029 C 
HETATM   16  C   UNL     1     -10.844   0.635 -33.302  1.00  0.00     0.029 C 
HETATM   17  C   UNL     1     -10.301   2.045 -33.386  1.00  0.00     0.235 C 
ENDBRANCH  11  12
ENDBRANCH  10  11
ENDBRANCH   1  10
BRANCH   1  18
HETATM   18  N   UNL     1      -5.563   3.450 -33.376  1.00  0.00    -0.348 N 
HETATM   19  C   UNL     1      -4.707   4.416 -33.858  1.00  0.00     0.252 C 
HETATM   20  O   UNL     1      -4.836   4.889 -34.985  1.00  0.00    -0.268 OA
HETATM   21  H   UNL     1      -5.473   3.114 -32.426  1.00  0.00     0.163 HD
BRANCH  19  22
HETATM   22  C   UNL     1      -3.676   4.945 -32.923  1.00  0.00     0.032 A 
HETATM   23  C   UNL     1      -2.385   4.418 -32.842  1.00  0.00     0.018 A 
HETATM   24  C   UNL     1      -1.486   4.911 -31.887  1.00  0.00     0.013 A 
HETATM   25  C   UNL     1      -1.852   5.941 -31.005  1.00  0.00    -0.026 A 
HETATM   26  C   UNL     1      -3.137   6.491 -31.131  1.00  0.00     0.013 A 
HETATM   27  C   UNL     1      -4.039   6.002 -32.081  1.00  0.00     0.018 A 
BRANCH  25  28
HETATM   28  C   UNL     1      -0.924   6.418 -29.968  1.00  0.00    -0.023 A 
HETATM   29  C   UNL     1      -0.009   5.556 -29.353  1.00  0.00     0.031 A 
HETATM   30  C   UNL     1       0.833   6.057 -28.372  1.00  0.00     0.117 A 
HETATM   31  N   UNL     1       0.826   7.342 -27.962  1.00  0.00    -0.273 NA
HETATM   32  C   UNL     1      -0.058   8.164 -28.562  1.00  0.00     0.117 A 
HETATM   33  C   UNL     1      -0.936   7.756 -29.553  1.00  0.00     0.031 A 
ENDBRANCH  25  28
ENDBRANCH  19  22
ENDBRANCH   1  18
TORSDOF 8
ENDMDL
MODEL 5
REMARK VINA RESULT:      -7.9      3.225      5.162
REMARK  8 active torsions:
REMARK  status: ('A' for Active; 'I' for Inactive)
REMARK    1  A    between atoms: O_2  and  C_3 
REMARK    2  A    between atoms: C_7  and  C_9 
REMARK    3  A    between atoms: C_9  and  C_10 
REMARK    4  A    between atoms: C_9  and  N_18 
REMARK    5  A    between atoms: C_10  and  C_11 
REMARK    6  A    between atoms: C_11  and  N_12 
REMARK       I    between atoms: N_18  and  C_19 
REMARK    7  A    between atoms: C_19  and  C_21 
REMARK    8  A    between atoms: C_24  and  C_27 
ROOT
HETATM    1  C   UNL     1      -5.379   5.309 -32.744  1.00  0.00     0.119 C 
ENDROOT
BRANCH   1   2
HETATM    2  C   UNL     1      -5.790   5.556 -31.301  1.00  0.00    -0.033 A 
HETATM    3  C   UNL     1      -5.291   4.820 -30.216  1.00  0.00     0.009 A 
HETATM    4  C   UNL     1      -5.724   5.091 -28.918  1.00  0.00     0.003 A 
HETATM    5  C   UNL     1      -6.677   6.082 -28.689  1.00  0.00     0.037 A 
HETATM    6  C   UNL     1      -7.214   6.806 -29.752  1.00  0.00     0.068 A 
HETATM    7  C   UNL     1      -6.764   6.548 -31.048  1.00  0.00     0.046 A 
BRANCH   6   8
HETATM    8  O   UNL     1      -8.155   7.731 -29.398  1.00  0.00    -0.356 OA
HETATM    9  C   UNL     1      -9.065   7.365 -28.367  1.00  0.00     0.210 C 
ENDBRANCH   6   8
ENDBRANCH   1   2
BRANCH   1  10
HETATM   10  C   UNL     1      -4.061   5.997 -33.171  1.00  0.00     0.057 C 
BRANCH  10  11
HETATM   11  C   UNL     1      -3.033   4.994 -33.692  1.00  0.00     0.237 C 
BRANCH  11  12
HETATM   12  N   UNL     1      -1.713   5.145 -32.967  1.00  0.00    -0.071 N 
HETATM   13  H   UNL     1      -1.034   4.516 -33.418  1.00  0.00     0.279 HD
HETATM   14  C   UNL     1      -1.733   4.812 -31.486  1.00  0.00     0.235 C 
HETATM   15  C   UNL     1      -1.278   6.082 -30.791  1.00  0.00     0.029 C 
HETATM   16  C   UNL     1      -0.388   6.758 -31.812  1.00  0.00     0.029 C 
HETATM   17  C   UNL     1      -1.153   6.552 -33.101  1.00  0.00     0.235 C 
ENDBRANCH  11  12
ENDBRANCH  10  11
ENDBRANCH   1  10
BRANCH   1  18
HETATM   18  N   UNL     1      -5.316   3.868 -32.955  1.00  0.00    -0.348 N 
HETATM   19  C   UNL     1      -6.361   3.161 -33.506  1.00  0.00     0.252 C 
HETATM   20  O   UNL     1      -7.354   3.723 -33.961  1.00  0.00    -0.268 OA
HETATM   21  H   UNL     1      -4.483   3.389 -32.636  1.00  0.00     0.163 HD
BRANCH  19  22
HETATM   22  C   UNL     1      -6.200   1.685 -33.627  1.00  0.00     0.032 A 
HETATM   23  C   UNL     1      -5.235   0.967 -32.915  1.00  0.00     0.018 A 
HETATM   24  C   UNL     1      -5.084  -0.408 -33.130  1.00  0.00     0.013 A 
HETATM   25  C   UNL     1      -5.895  -1.095 -34.051  1.00  0.00    -0.026 A 
HETATM   26  C   UNL     1      -6.889  -0.368 -34.723  1.00  0.00     0.013 A 
HETATM   27  C   UNL     1      -7.044   1.006 -34.513  1.00  0.00     0.018 A 
BRANCH  25  28
HETATM   28  C   UNL     1      -5.697  -2.528 -34.315  1.00  0.00    -0.023 A 
HETATM   29  C   UNL     1      -4.480  -3.162 -34.038  1.00  0.00     0.031 A 
HETATM   30  C   UNL     1      -4.345  -4.512 -34.320  1.00  0.00     0.117 A 
HETATM   31  N   UNL     1      -5.325  -5.268 -34.855  1.00  0.00    -0.273 NA
HETATM   32  C   UNL     1      -6.493  -4.649 -35.116  1.00  0.00     0.117 A 
HETATM   33  C   UNL     1      -6.723  -3.306 -34.867  1.00  0.00     0.031 A 
ENDBRANCH  25  28
ENDBRANCH  19  22
ENDBRANCH   1  18
TORSDOF 8
ENDMDL
MODEL 6
REMARK VINA RESULT:      -7.9      3.462      8.092
REMARK  8 active torsions:
REMARK  status: ('A' for Active; 'I' for Inactive)
REMARK    1  A    between atoms: O_2  and  C_3 
REMARK    2  A    between atoms: C_7  and  C_9 
REMARK    3  A    between atoms: C_9  and  C_10 
REMARK    4  A    between atoms: C_9  and  N_18 
REMARK    5  A    between atoms: C_10  and  C_11 
REMARK    6  A    between atoms: C_11  and  N_12 
REMARK       I    between atoms: N_18  and  C_19 
REMARK    7  A    between atoms: C_19  and  C_21 
REMARK    8  A    between atoms: C_24  and  C_27 
ROOT
HETATM    1  C   UNL     1      -6.765   1.106 -33.858  1.00  0.00     0.119 C 
ENDROOT
BRANCH   1   2
HETATM    2  C   UNL     1      -6.181  -0.287 -34.036  1.00  0.00    -0.033 A 
HETATM    3  C   UNL     1      -6.748  -1.264 -34.867  1.00  0.00     0.009 A 
HETATM    4  C   UNL     1      -6.168  -2.529 -34.970  1.00  0.00     0.003 A 
HETATM    5  C   UNL     1      -5.029  -2.840 -34.230  1.00  0.00     0.037 A 
HETATM    6  C   UNL     1      -4.464  -1.899 -33.371  1.00  0.00     0.068 A 
HETATM    7  C   UNL     1      -5.035  -0.628 -33.284  1.00  0.00     0.046 A 
BRANCH   6   8
HETATM    8  O   UNL     1      -3.366  -2.335 -32.685  1.00  0.00    -0.356 OA
HETATM    9  C   UNL     1      -2.620  -1.357 -31.970  1.00  0.00     0.210 C 
ENDBRANCH   6   8
ENDBRANCH   1   2
BRANCH   1  10
HETATM   10  C   UNL     1      -8.117   1.154 -33.108  1.00  0.00     0.057 C 
BRANCH  10  11
HETATM   11  C   UNL     1      -7.953   0.868 -31.615  1.00  0.00     0.237 C 
BRANCH  11  12
HETATM   12  N   UNL     1      -8.438   2.037 -30.784  1.00  0.00    -0.071 N 
HETATM   13  H   UNL     1      -9.037   1.662 -30.036  1.00  0.00     0.279 HD
HETATM   14  C   UNL     1      -9.237   3.089 -31.530  1.00  0.00     0.235 C 
HETATM   15  C   UNL     1      -8.465   4.381 -31.338  1.00  0.00     0.029 C 
HETATM   16  C   UNL     1      -7.760   4.190 -30.012  1.00  0.00     0.029 C 
HETATM   17  C   UNL     1      -7.288   2.755 -30.096  1.00  0.00     0.235 C 
ENDBRANCH  11  12
ENDBRANCH  10  11
ENDBRANCH   1  10
BRANCH   1  18
HETATM   18  N   UNL     1      -5.764   1.935 -33.199  1.00  0.00    -0.348 N 
HETATM   19  C   UNL     1      -5.616   3.274 -33.484  1.00  0.00     0.252 C 
HETATM   20  O   UNL     1      -6.400   3.869 -34.220  1.00  0.00    -0.268 OA
HETATM   21  H   UNL     1      -5.139   1.477 -32.547  1.00  0.00     0.163 HD
BRANCH  19  22
HETATM   22  C   UNL     1      -4.525   4.007 -32.782  1.00  0.00     0.032 A 
HETATM   23  C   UNL     1      -3.206   3.549 -32.747  1.00  0.00     0.018 A 
HETATM   24  C   UNL     1      -2.242   4.244 -32.005  1.00  0.00     0.013 A 
HETATM   25  C   UNL     1      -2.572   5.410 -31.294  1.00  0.00    -0.026 A 
HETATM   26  C   UNL     1      -3.892   5.882 -31.378  1.00  0.00     0.013 A 
HETATM   27  C   UNL     1      -4.858   5.192 -32.116  1.00  0.00     0.018 A 
BRANCH  25  28
HETATM   28  C   UNL     1      -1.572   6.107 -30.471  1.00  0.00    -0.023 A 
HETATM   29  C   UNL     1      -1.794   7.403 -29.992  1.00  0.00     0.031 A 
HETATM   30  C   UNL     1      -0.811   8.018 -29.232  1.00  0.00     0.117 A 
HETATM   31  N   UNL     1       0.368   7.440 -28.922  1.00  0.00    -0.273 NA
HETATM   32  C   UNL     1       0.571   6.192 -29.387  1.00  0.00     0.117 A 
HETATM   33  C   UNL     1      -0.353   5.497 -30.151  1.00  0.00     0.031 A 
ENDBRANCH  25  28
ENDBRANCH  19  22
ENDBRANCH   1  18
TORSDOF 8
ENDMDL
MODEL 7
REMARK VINA RESULT:      -7.8      3.449      8.353
REMARK  8 active torsions:
REMARK  status: ('A' for Active; 'I' for Inactive)
REMARK    1  A    between atoms: O_2  and  C_3 
REMARK    2  A    between atoms: C_7  and  C_9 
REMARK    3  A    between atoms: C_9  and  C_10 
REMARK    4  A    between atoms: C_9  and  N_18 
REMARK    5  A    between atoms: C_10  and  C_11 
REMARK    6  A    between atoms: C_11  and  N_12 
REMARK       I    between atoms: N_18  and  C_19 
REMARK    7  A    between atoms: C_19  and  C_21 
REMARK    8  A    between atoms: C_24  and  C_27 
ROOT
HETATM    1  C   UNL     1      -7.126   0.552 -33.334  1.00  0.00     0.119 C 
ENDROOT
BRANCH   1   2
HETATM    2  C   UNL     1      -6.351  -0.707 -33.693  1.00  0.00    -0.033 A 
HETATM    3  C   UNL     1      -6.748  -1.598 -34.702  1.00  0.00     0.009 A 
HETATM    4  C   UNL     1      -5.998  -2.744 -34.969  1.00  0.00     0.003 A 
HETATM    5  C   UNL     1      -4.858  -3.025 -34.218  1.00  0.00     0.037 A 
HETATM    6  C   UNL     1      -4.460  -2.174 -33.189  1.00  0.00     0.068 A 
HETATM    7  C   UNL     1      -5.200  -1.018 -32.937  1.00  0.00     0.046 A 
BRANCH   6   8
HETATM    8  O   UNL     1      -3.341  -2.575 -32.515  1.00  0.00    -0.356 OA
HETATM    9  C   UNL     1      -3.137  -3.976 -32.376  1.00  0.00     0.210 C 
ENDBRANCH   6   8
ENDBRANCH   1   2
BRANCH   1  10
HETATM   10  C   UNL     1      -8.374   0.318 -32.450  1.00  0.00     0.057 C 
BRANCH  10  11
HETATM   11  C   UNL     1      -9.024   1.631 -32.017  1.00  0.00     0.237 C 
BRANCH  11  12
HETATM   12  N   UNL     1     -10.496   1.648 -32.369  1.00  0.00    -0.071 N 
HETATM   13  H   UNL     1     -11.022   1.374 -31.527  1.00  0.00     0.279 HD
HETATM   14  C   UNL     1     -10.915   0.721 -33.495  1.00  0.00     0.235 C 
HETATM   15  C   UNL     1     -11.534   1.628 -34.542  1.00  0.00     0.029 C 
HETATM   16  C   UNL     1     -12.077   2.793 -33.741  1.00  0.00     0.029 C 
HETATM   17  C   UNL     1     -10.971   3.044 -32.739  1.00  0.00     0.235 C 
ENDBRANCH  11  12
ENDBRANCH  10  11
ENDBRANCH   1  10
BRANCH   1  18
HETATM   18  N   UNL     1      -6.201   1.487 -32.706  1.00  0.00    -0.348 N 
HETATM   19  C   UNL     1      -5.835   2.672 -33.306  1.00  0.00     0.252 C 
HETATM   20  O   UNL     1      -6.362   3.060 -34.345  1.00  0.00    -0.268 OA
HETATM   21  H   UNL     1      -5.793   1.213 -31.821  1.00  0.00     0.163 HD
BRANCH  19  22
HETATM   22  C   UNL     1      -4.844   3.524 -32.590  1.00  0.00     0.032 A 
HETATM   23  C   UNL     1      -5.107   4.846 -32.222  1.00  0.00     0.018 A 
HETATM   24  C   UNL     1      -4.106   5.617 -31.619  1.00  0.00     0.013 A 
HETATM   25  C   UNL     1      -2.830   5.086 -31.364  1.00  0.00    -0.026 A 
HETATM   26  C   UNL     1      -2.598   3.742 -31.698  1.00  0.00     0.013 A 
HETATM   27  C   UNL     1      -3.593   2.968 -32.301  1.00  0.00     0.018 A 
BRANCH  25  28
HETATM   28  C   UNL     1      -1.764   5.915 -30.781  1.00  0.00    -0.023 A 
HETATM   29  C   UNL     1      -0.424   5.742 -31.143  1.00  0.00     0.031 A 
HETATM   30  C   UNL     1       0.542   6.542 -30.552  1.00  0.00     0.117 A 
HETATM   31  N   UNL     1       0.269   7.492 -29.633  1.00  0.00    -0.273 NA
HETATM   32  C   UNL     1      -1.026   7.651 -29.293  1.00  0.00     0.117 A 
HETATM   33  C   UNL     1      -2.059   6.901 -29.831  1.00  0.00     0.031 A 
ENDBRANCH  25  28
ENDBRANCH  19  22
ENDBRANCH   1  18
TORSDOF 8
ENDMDL
MODEL 8
REMARK VINA RESULT:      -7.5      3.069      6.505
REMARK  8 active torsions:
REMARK  status: ('A' for Active; 'I' for Inactive)
REMARK    1  A    between atoms: O_2  and  C_3 
REMARK    2  A    between atoms: C_7  and  C_9 
REMARK    3  A    between atoms: C_9  and  C_10 
REMARK    4  A    between atoms: C_9  and  N_18 
REMARK    5  A    between atoms: C_10  and  C_11 
REMARK    6  A    between atoms: C_11  and  N_12 
REMARK       I    between atoms: N_18  and  C_19 
REMARK    7  A    between atoms: C_19  and  C_21 
REMARK    8  A    between atoms: C_24  and  C_27 
ROOT
HETATM    1  C   UNL     1      -9.631   1.367 -32.751  1.00  0.00     0.119 C 
ENDROOT
BRANCH   1   2
HETATM    2  C   UNL     1     -10.631   1.944 -33.742  1.00  0.00    -0.033 A 
HETATM    3  C   UNL     1     -10.403   3.118 -34.476  1.00  0.00     0.009 A 
HETATM    4  C   UNL     1     -11.371   3.599 -35.358  1.00  0.00     0.003 A 
HETATM    5  C   UNL     1     -12.585   2.929 -35.501  1.00  0.00     0.037 A 
HETATM    6  C   UNL     1     -12.849   1.779 -34.760  1.00  0.00     0.068 A 
HETATM    7  C   UNL     1     -11.872   1.287 -33.893  1.00  0.00     0.046 A 
BRANCH   6   8
HETATM    8  O   UNL     1     -14.082   1.230 -34.973  1.00  0.00    -0.356 OA
HETATM    9  C   UNL     1     -14.614   0.411 -33.938  1.00  0.00     0.210 C 
ENDBRANCH   6   8
ENDBRANCH   1   2
BRANCH   1  10
HETATM   10  C   UNL     1      -9.328  -0.139 -32.936  1.00  0.00     0.057 C 
BRANCH  10  11
HETATM   11  C   UNL     1      -8.237  -0.380 -33.978  1.00  0.00     0.237 C 
BRANCH  11  12
HETATM   12  N   UNL     1      -7.111  -1.212 -33.402  1.00  0.00    -0.071 N 
HETATM   13  H   UNL     1      -7.534  -1.996 -32.885  1.00  0.00     0.279 HD
HETATM   14  C   UNL     1      -6.176  -0.487 -32.452  1.00  0.00     0.235 C 
HETATM   15  C   UNL     1      -4.800  -0.617 -33.078  1.00  0.00     0.029 C 
HETATM   16  C   UNL     1      -4.877  -1.909 -33.863  1.00  0.00     0.029 C 
HETATM   17  C   UNL     1      -6.250  -1.829 -34.493  1.00  0.00     0.235 C 
ENDBRANCH  11  12
ENDBRANCH  10  11
ENDBRANCH   1  10
BRANCH   1  18
HETATM   18  N   UNL     1      -8.414   2.165 -32.821  1.00  0.00    -0.348 N 
HETATM   19  C   UNL     1      -7.944   2.884 -31.744  1.00  0.00     0.252 C 
HETATM   20  O   UNL     1      -8.460   2.794 -30.633  1.00  0.00    -0.268 OA
HETATM   21  H   UNL     1      -7.941   2.211 -33.715  1.00  0.00     0.163 HD
BRANCH  19  22
HETATM   22  C   UNL     1      -6.716   3.701 -31.951  1.00  0.00     0.032 A 
HETATM   23  C   UNL     1      -6.255   4.626 -31.010  1.00  0.00     0.018 A 
HETATM   24  C   UNL     1      -5.136   5.418 -31.298  1.00  0.00     0.013 A 
HETATM   25  C   UNL     1      -4.452   5.298 -32.520  1.00  0.00    -0.026 A 
HETATM   26  C   UNL     1      -4.902   4.332 -33.433  1.00  0.00     0.013 A 
HETATM   27  C   UNL     1      -6.018   3.539 -33.153  1.00  0.00     0.018 A 
BRANCH  25  28
HETATM   28  C   UNL     1      -3.312   6.169 -32.841  1.00  0.00    -0.023 A 
HETATM   29  C   UNL     1      -2.514   5.943 -33.968  1.00  0.00     0.031 A 
HETATM   30  C   UNL     1      -1.443   6.788 -34.216  1.00  0.00     0.117 A 
HETATM   31  N   UNL     1      -1.112   7.830 -33.426  1.00  0.00    -0.273 NA
HETATM   32  C   UNL     1      -1.888   8.040 -32.344  1.00  0.00     0.117 A 
HETATM   33  C   UNL     1      -2.979   7.252 -32.017  1.00  0.00     0.031 A 
ENDBRANCH  25  28
ENDBRANCH  19  22
ENDBRANCH   1  18
TORSDOF 8
ENDMDL
MODEL 9
REMARK VINA RESULT:      -7.3      3.079      6.753
REMARK  8 active torsions:
REMARK  status: ('A' for Active; 'I' for Inactive)
REMARK    1  A    between atoms: O_2  and  C_3 
REMARK    2  A    between atoms: C_7  and  C_9 
REMARK    3  A    between atoms: C_9  and  C_10 
REMARK    4  A    between atoms: C_9  and  N_18 
REMARK    5  A    between atoms: C_10  and  C_11 
REMARK    6  A    between atoms: C_11  and  N_12 
REMARK       I    between atoms: N_18  and  C_19 
REMARK    7  A    between atoms: C_19  and  C_21 
REMARK    8  A    between atoms: C_24  and  C_27 
ROOT
HETATM    1  C   UNL     1      -8.283   0.610 -33.632  1.00  0.00     0.119 C 
ENDROOT
BRANCH   1   2
HETATM    2  C   UNL     1      -9.494   1.514 -33.805  1.00  0.00    -0.033 A 
HETATM    3  C   UNL     1      -9.408   2.859 -34.195  1.00  0.00     0.009 A 
HETATM    4  C   UNL     1     -10.561   3.635 -34.320  1.00  0.00     0.003 A 
HETATM    5  C   UNL     1     -11.810   3.086 -34.035  1.00  0.00     0.037 A 
HETATM    6  C   UNL     1     -11.921   1.762 -33.614  1.00  0.00     0.068 A 
HETATM    7  C   UNL     1     -10.768   0.981 -33.510  1.00  0.00     0.046 A 
BRANCH   6   8
HETATM    8  O   UNL     1     -13.196   1.352 -33.345  1.00  0.00    -0.356 OA
HETATM    9  C   UNL     1     -13.565   0.053 -33.793  1.00  0.00     0.210 C 
ENDBRANCH   6   8
ENDBRANCH   1   2
BRANCH   1  10
HETATM   10  C   UNL     1      -8.004  -0.338 -34.822  1.00  0.00     0.057 C 
BRANCH  10  11
HETATM   11  C   UNL     1      -6.511  -0.614 -34.997  1.00  0.00     0.237 C 
BRANCH  11  12
HETATM   12  N   UNL     1      -6.087  -1.826 -34.195  1.00  0.00    -0.071 N 
HETATM   13  H   UNL     1      -6.929  -2.220 -33.754  1.00  0.00     0.279 HD
HETATM   14  C   UNL     1      -5.072  -1.566 -33.097  1.00  0.00     0.235 C 
HETATM   15  C   UNL     1      -3.886  -2.448 -33.441  1.00  0.00     0.029 C 
HETATM   16  C   UNL     1      -4.499  -3.607 -34.197  1.00  0.00     0.029 C 
HETATM   17  C   UNL     1      -5.514  -2.918 -35.084  1.00  0.00     0.235 C 
ENDBRANCH  11  12
ENDBRANCH  10  11
ENDBRANCH   1  10
BRANCH   1  18
HETATM   18  N   UNL     1      -7.129   1.453 -33.345  1.00  0.00    -0.348 N 
HETATM   19  C   UNL     1      -6.603   1.570 -32.077  1.00  0.00     0.252 C 
HETATM   20  O   UNL     1      -7.003   0.877 -31.145  1.00  0.00    -0.268 OA
HETATM   21  H   UNL     1      -6.748   1.993 -34.111  1.00  0.00     0.163 HD
BRANCH  19  22
HETATM   22  C   UNL     1      -5.453   2.499 -31.897  1.00  0.00     0.032 A 
HETATM   23  C   UNL     1      -5.562   3.719 -31.223  1.00  0.00     0.018 A 
HETATM   24  C   UNL     1      -4.461   4.582 -31.155  1.00  0.00     0.013 A 
HETATM   25  C   UNL     1      -3.232   4.244 -31.746  1.00  0.00    -0.026 A 
HETATM   26  C   UNL     1      -3.127   2.996 -32.379  1.00  0.00     0.013 A 
HETATM   27  C   UNL     1      -4.222   2.130 -32.452  1.00  0.00     0.018 A 
BRANCH  25  28
HETATM   28  C   UNL     1      -2.095   5.176 -31.720  1.00  0.00    -0.023 A 
HETATM   29  C   UNL     1      -1.002   4.973 -30.869  1.00  0.00     0.031 A 
HETATM   30  C   UNL     1       0.037   5.890 -30.876  1.00  0.00     0.117 A 
HETATM   31  N   UNL     1       0.063   6.987 -31.661  1.00  0.00    -0.273 NA
HETATM   32  C   UNL     1      -0.993   7.173 -32.477  1.00  0.00     0.117 A 
HETATM   33  C   UNL     1      -2.075   6.310 -32.542  1.00  0.00     0.031 A 
ENDBRANCH  25  28
ENDBRANCH  19  22
ENDBRANCH   1  18
TORSDOF 8
ENDMDL
MODEL 10
REMARK VINA RESULT:      -7.3      3.130      7.684
REMARK  8 active torsions:
REMARK  status: ('A' for Active; 'I' for Inactive)
REMARK    1  A    between atoms: O_2  and  C_3 
REMARK    2  A    between atoms: C_7  and  C_9 
REMARK    3  A    between atoms: C_9  and  C_10 
REMARK    4  A    between atoms: C_9  and  N_18 
REMARK    5  A    between atoms: C_10  and  C_11 
REMARK    6  A    between atoms: C_11  and  N_12 
REMARK       I    between atoms: N_18  and  C_19 
REMARK    7  A    between atoms: C_19  and  C_21 
REMARK    8  A    between atoms: C_24  and  C_27 
ROOT
HETATM    1  C   UNL     1      -5.401   1.156 -31.840  1.00  0.00     0.119 C 
ENDROOT
BRANCH   1   2
HETATM    2  C   UNL     1      -4.852  -0.195 -32.271  1.00  0.00    -0.033 A 
HETATM    3  C   UNL     1      -3.765  -0.825 -31.645  1.00  0.00     0.009 A 
HETATM    4  C   UNL     1      -3.303  -2.059 -32.103  1.00  0.00     0.003 A 
HETATM    5  C   UNL     1      -3.904  -2.668 -33.203  1.00  0.00     0.037 A 
HETATM    6  C   UNL     1      -4.963  -2.049 -33.864  1.00  0.00     0.068 A 
HETATM    7  C   UNL     1      -5.438  -0.824 -33.392  1.00  0.00     0.046 A 
BRANCH   6   8
HETATM    8  O   UNL     1      -5.448  -2.737 -34.940  1.00  0.00    -0.356 OA
HETATM    9  C   UNL     1      -5.482  -4.156 -34.837  1.00  0.00     0.210 C 
ENDBRANCH   6   8
ENDBRANCH   1   2
BRANCH   1  10
HETATM   10  C   UNL     1      -4.694   2.377 -32.476  1.00  0.00     0.057 C 
BRANCH  10  11
HETATM   11  C   UNL     1      -3.704   3.031 -31.513  1.00  0.00     0.237 C 
BRANCH  11  12
HETATM   12  N   UNL     1      -3.216   4.357 -32.056  1.00  0.00    -0.071 N 
HETATM   13  H   UNL     1      -3.737   5.103 -31.575  1.00  0.00     0.279 HD
HETATM   14  C   UNL     1      -3.392   4.562 -33.549  1.00  0.00     0.235 C 
HETATM   15  C   UNL     1      -1.993   4.806 -34.081  1.00  0.00     0.029 C 
HETATM   16  C   UNL     1      -1.259   5.421 -32.909  1.00  0.00     0.029 C 
HETATM   17  C   UNL     1      -1.746   4.587 -31.744  1.00  0.00     0.235 C 
ENDBRANCH  11  12
ENDBRANCH  10  11
ENDBRANCH   1  10
BRANCH   1  18
HETATM   18  N   UNL     1      -6.832   1.170 -32.115  1.00  0.00    -0.348 N 
HETATM   19  C   UNL     1      -7.369   1.860 -33.180  1.00  0.00     0.252 C 
HETATM   20  O   UNL     1      -6.658   2.399 -34.025  1.00  0.00    -0.268 OA
HETATM   21  H   UNL     1      -7.434   0.687 -31.461  1.00  0.00     0.163 HD
BRANCH  19  22
HETATM   22  C   UNL     1      -8.850   1.840 -33.331  1.00  0.00     0.032 A 
HETATM   23  C   UNL     1      -9.613   3.003 -33.466  1.00  0.00     0.018 A 
HETATM   24  C   UNL     1     -11.010   2.921 -33.527  1.00  0.00     0.013 A 
HETATM   25  C   UNL     1     -11.671   1.683 -33.464  1.00  0.00    -0.026 A 
HETATM   26  C   UNL     1     -10.887   0.522 -33.375  1.00  0.00     0.013 A 
HETATM   27  C   UNL     1      -9.493   0.597 -33.312  1.00  0.00     0.018 A 
BRANCH  25  28
HETATM   28  C   UNL     1     -13.140   1.604 -33.473  1.00  0.00    -0.023 A 
HETATM   29  C   UNL     1     -13.918   2.363 -32.590  1.00  0.00     0.031 A 
HETATM   30  C   UNL     1     -15.298   2.240 -32.633  1.00  0.00     0.117 A 
HETATM   31  N   UNL     1     -15.951   1.421 -33.483  1.00  0.00    -0.273 NA
HETATM   32  C   UNL     1     -15.193   0.696 -34.329  1.00  0.00     0.117 A 
HETATM   33  C   UNL     1     -13.809   0.754 -34.362  1.00  0.00     0.031 A 
ENDBRANCH  25  28
ENDBRANCH  19  22
ENDBRANCH   1  18
TORSDOF 8
ENDMDL
