MODEL 1
REMARK VINA RESULT:      -8.5      0.000      0.000
REMARK  6 active torsions:
REMARK  status: ('A' for Active; 'I' for Inactive)
REMARK    1  A    between atoms: C_2  and  N_3 
REMARK    2  A    between atoms: N_3  and  C_5 
REMARK    3  A    between atoms: N_3  and  C_17 
REMARK    4  A    between atoms: C_5  and  C_6 
REMARK       I    between atoms: C_6  and  N_7 
REMARK    5  A    between atoms: N_7  and  C_8 
REMARK    6  A    between atoms: C_17  and  C_18 
ROOT
HETATM    1  N   UNL     1      -7.759   1.422 -34.450  1.00  0.00    -0.059 N 
HETATM    2  H   UNL     1      -7.881   2.084 -35.226  1.00  0.00     0.280 HD
ENDROOT
BRANCH   1   3
HETATM    3  C   UNL     1      -6.406   1.711 -33.814  1.00  0.00     0.231 C 
HETATM    4  C   UNL     1      -6.554   2.570 -32.574  1.00  0.00     0.034 C 
ENDBRANCH   1   3
BRANCH   1   5
HETATM    5  C   UNL     1      -7.852   0.029 -35.104  1.00  0.00     0.337 C 
BRANCH   5   6
HETATM    6  C   UNL     1      -7.148  -1.088 -34.329  1.00  0.00     0.248 C 
HETATM    7  N   UNL     1      -6.017  -1.589 -34.951  1.00  0.00    -0.325 N 
HETATM    8  H   UNL     1      -5.890  -1.410 -35.936  1.00  0.00     0.169 HD
HETATM    9  O   UNL     1      -7.662  -1.531 -33.305  1.00  0.00    -0.271 OA
BRANCH   7  10
HETATM   10  C   UNL     1      -5.265  -2.681 -34.449  1.00  0.00     0.046 A 
HETATM   11  C   UNL     1      -4.225  -2.397 -33.532  1.00  0.00    -0.035 A 
HETATM   12  C   UNL     1      -3.850  -0.992 -33.138  1.00  0.00     0.050 C 
HETATM   13  C   UNL     1      -3.462  -3.451 -33.007  1.00  0.00     0.009 A 
HETATM   14  C   UNL     1      -3.723  -4.767 -33.372  1.00  0.00     0.001 A 
HETATM   15  C   UNL     1      -4.763  -5.047 -34.252  1.00  0.00     0.009 A 
HETATM   16  C   UNL     1      -5.564  -4.019 -34.781  1.00  0.00    -0.035 A 
HETATM   17  C   UNL     1      -6.728  -4.439 -35.640  1.00  0.00     0.050 C 
ENDBRANCH   7  10
ENDBRANCH   5   6
ENDBRANCH   1   5
BRANCH   1  18
HETATM   18  C   UNL     1      -8.891   1.689 -33.478  1.00  0.00     0.276 C 
BRANCH  18  19
HETATM   19  C   UNL     1     -10.238   1.970 -34.098  1.00  0.00    -0.003 A 
HETATM   20  C   UNL     1     -11.350   1.116 -33.907  1.00  0.00     0.069 A 
HETATM   21  C   UNL     1     -12.613   1.362 -34.444  1.00  0.00     0.012 A 
HETATM   22  N   UNL     1     -11.508  -0.060 -33.207  1.00  0.00    -0.277 N 
HETATM   23  C   UNL     1     -13.413   0.277 -34.021  1.00  0.00     0.152 A 
HETATM   24  C   UNL     1     -12.828   2.515 -35.212  1.00  0.00     0.015 A 
HETATM   25  N   UNL     1     -12.731  -0.593 -33.276  1.00  0.00    -0.186 NA
HETATM   26  C   UNL     1     -11.765   3.394 -35.407  1.00  0.00     0.002 A 
HETATM   27  C   UNL     1     -10.507   3.130 -34.858  1.00  0.00     0.011 A 
HETATM   28  H   UNL     1     -10.826  -0.566 -32.654  1.00  0.00     0.189 HD
ENDBRANCH  18  19
ENDBRANCH   1  18
TORSDOF 6
ENDMDL
MODEL 2
REMARK VINA RESULT:      -8.2      2.587      5.778
REMARK  6 active torsions:
REMARK  status: ('A' for Active; 'I' for Inactive)
REMARK    1  A    between atoms: C_2  and  N_3 
REMARK    2  A    between atoms: N_3  and  C_5 
REMARK    3  A    between atoms: N_3  and  C_17 
REMARK    4  A    between atoms: C_5  and  C_6 
REMARK       I    between atoms: C_6  and  N_7 
REMARK    5  A    between atoms: N_7  and  C_8 
REMARK    6  A    between atoms: C_17  and  C_18 
ROOT
HETATM    1  N   UNL     1      -7.417   2.132 -32.942  1.00  0.00    -0.059 N 
HETATM    2  H   UNL     1      -7.311   1.692 -32.019  1.00  0.00     0.280 HD
ENDROOT
BRANCH   1   3
HETATM    3  C   UNL     1      -8.907   2.178 -33.256  1.00  0.00     0.231 C 
HETATM    4  C   UNL     1      -9.276   1.158 -34.314  1.00  0.00     0.034 C 
ENDBRANCH   1   3
BRANCH   1   5
HETATM    5  C   UNL     1      -6.609   1.234 -33.899  1.00  0.00     0.337 C 
BRANCH   5   6
HETATM    6  C   UNL     1      -6.133  -0.086 -33.287  1.00  0.00     0.248 C 
HETATM    7  N   UNL     1      -4.926  -0.544 -33.789  1.00  0.00    -0.325 N 
HETATM    8  H   UNL     1      -4.594  -0.169 -34.664  1.00  0.00     0.169 HD
HETATM    9  O   UNL     1      -6.864  -0.690 -32.507  1.00  0.00    -0.271 OA
BRANCH   7  10
HETATM   10  C   UNL     1      -4.346  -1.785 -33.422  1.00  0.00     0.046 A 
HETATM   11  C   UNL     1      -3.538  -1.816 -32.260  1.00  0.00    -0.035 A 
HETATM   12  C   UNL     1      -3.220  -0.581 -31.459  1.00  0.00     0.050 C 
HETATM   13  C   UNL     1      -2.951  -3.026 -31.861  1.00  0.00     0.009 A 
HETATM   14  C   UNL     1      -3.162  -4.192 -32.589  1.00  0.00     0.001 A 
HETATM   15  C   UNL     1      -3.979  -4.166 -33.715  1.00  0.00     0.009 A 
HETATM   16  C   UNL     1      -4.602  -2.977 -34.132  1.00  0.00    -0.035 A 
HETATM   17  C   UNL     1      -5.548  -3.080 -35.300  1.00  0.00     0.050 C 
ENDBRANCH   7  10
ENDBRANCH   5   6
ENDBRANCH   1   5
BRANCH   1  18
HETATM   18  C   UNL     1      -6.838   3.527 -32.818  1.00  0.00     0.276 C 
BRANCH  18  19
HETATM   19  C   UNL     1      -5.343   3.605 -32.631  1.00  0.00    -0.003 A 
HETATM   20  C   UNL     1      -4.502   4.290 -33.540  1.00  0.00     0.069 A 
HETATM   21  C   UNL     1      -3.121   4.402 -33.380  1.00  0.00     0.012 A 
HETATM   22  N   UNL     1      -4.761   4.982 -34.703  1.00  0.00    -0.277 N 
HETATM   23  C   UNL     1      -2.680   5.148 -34.495  1.00  0.00     0.152 A 
HETATM   24  C   UNL     1      -2.503   3.824 -32.263  1.00  0.00     0.015 A 
HETATM   25  N   UNL     1      -3.681   5.489 -35.305  1.00  0.00    -0.186 NA
HETATM   26  C   UNL     1      -3.297   3.158 -31.332  1.00  0.00     0.002 A 
HETATM   27  C   UNL     1      -4.680   3.059 -31.509  1.00  0.00     0.011 A 
HETATM   28  H   UNL     1      -5.652   5.154 -35.154  1.00  0.00     0.189 HD
ENDBRANCH  18  19
ENDBRANCH   1  18
TORSDOF 6
ENDMDL
MODEL 3
REMARK VINA RESULT:      -8.2      3.790      7.285
REMARK  6 active torsions:
REMARK  status: ('A' for Active; 'I' for Inactive)
REMARK    1  A    between atoms: C_2  and  N_3 
REMARK    2  A    between atoms: N_3  and  C_5 
REMARK    3  A    between atoms: N_3  and  C_17 
REMARK    4  A    between atoms: C_5  and  C_6 
REMARK       I    between atoms: C_6  and  N_7 
REMARK    5  A    between atoms: N_7  and  C_8 
REMARK    6  A    between atoms: C_17  and  C_18 
ROOT
HETATM    1  N   UNL     1      -6.637   2.187 -30.865  1.00  0.00    -0.059 N 
HETATM    2  H   UNL     1      -6.571   2.544 -31.826  1.00  0.00     0.280 HD
ENDROOT
BRANCH   1   3
HETATM    3  C   UNL     1      -7.680   3.028 -30.139  1.00  0.00     0.231 C 
HETATM    4  C   UNL     1      -9.056   2.841 -30.747  1.00  0.00     0.034 C 
ENDBRANCH   1   3
BRANCH   1   5
HETATM    5  C   UNL     1      -5.214   2.335 -30.293  1.00  0.00     0.337 C 
BRANCH   5   6
HETATM    6  C   UNL     1      -4.145   2.701 -31.326  1.00  0.00     0.248 C 
HETATM    7  N   UNL     1      -4.143   4.036 -31.695  1.00  0.00    -0.325 N 
HETATM    8  H   UNL     1      -4.962   4.592 -31.500  1.00  0.00     0.169 HD
HETATM    9  O   UNL     1      -3.459   1.815 -31.827  1.00  0.00    -0.271 OA
BRANCH   7  10
HETATM   10  C   UNL     1      -3.294   4.570 -32.697  1.00  0.00     0.046 A 
HETATM   11  C   UNL     1      -3.853   4.808 -33.976  1.00  0.00    -0.035 A 
HETATM   12  C   UNL     1      -5.274   4.448 -34.320  1.00  0.00     0.050 C 
HETATM   13  C   UNL     1      -3.046   5.341 -34.992  1.00  0.00     0.009 A 
HETATM   14  C   UNL     1      -1.710   5.644 -34.753  1.00  0.00     0.001 A 
HETATM   15  C   UNL     1      -1.169   5.436 -33.488  1.00  0.00     0.009 A 
HETATM   16  C   UNL     1      -1.953   4.924 -32.439  1.00  0.00    -0.035 A 
HETATM   17  C   UNL     1      -1.300   4.836 -31.085  1.00  0.00     0.050 C 
ENDBRANCH   7  10
ENDBRANCH   5   6
ENDBRANCH   1   5
BRANCH   1  18
HETATM   18  C   UNL     1      -7.078   0.741 -30.975  1.00  0.00     0.276 C 
BRANCH  18  19
HETATM   19  C   UNL     1      -6.903   0.101 -32.330  1.00  0.00    -0.003 A 
HETATM   20  C   UNL     1      -5.772  -0.687 -32.653  1.00  0.00     0.069 A 
HETATM   21  C   UNL     1      -5.595  -1.313 -33.886  1.00  0.00     0.012 A 
HETATM   22  N   UNL     1      -4.655  -1.045 -31.932  1.00  0.00    -0.277 N 
HETATM   23  C   UNL     1      -4.354  -1.981 -33.786  1.00  0.00     0.152 A 
HETATM   24  C   UNL     1      -6.576  -1.182 -34.878  1.00  0.00     0.015 A 
HETATM   25  N   UNL     1      -3.779  -1.805 -32.597  1.00  0.00    -0.186 NA
HETATM   26  C   UNL     1      -7.715  -0.432 -34.595  1.00  0.00     0.002 A 
HETATM   27  C   UNL     1      -7.876   0.186 -33.351  1.00  0.00     0.011 A 
HETATM   28  H   UNL     1      -4.413  -0.811 -30.977  1.00  0.00     0.189 HD
ENDBRANCH  18  19
ENDBRANCH   1  18
TORSDOF 6
ENDMDL
MODEL 4
REMARK VINA RESULT:      -8.2      4.247      6.581
REMARK  6 active torsions:
REMARK  status: ('A' for Active; 'I' for Inactive)
REMARK    1  A    between atoms: C_2  and  N_3 
REMARK    2  A    between atoms: N_3  and  C_5 
REMARK    3  A    between atoms: N_3  and  C_17 
REMARK    4  A    between atoms: C_5  and  C_6 
REMARK       I    between atoms: C_6  and  N_7 
REMARK    5  A    between atoms: N_7  and  C_8 
REMARK    6  A    between atoms: C_17  and  C_18 
ROOT
HETATM    1  N   UNL     1      -4.929   2.171 -32.189  1.00  0.00    -0.059 N 
HETATM    2  H   UNL     1      -3.987   1.954 -32.539  1.00  0.00     0.280 HD
ENDROOT
BRANCH   1   3
HETATM    3  C   UNL     1      -4.959   1.810 -30.709  1.00  0.00     0.231 C 
HETATM    4  C   UNL     1      -6.299   2.152 -30.088  1.00  0.00     0.034 C 
ENDBRANCH   1   3
BRANCH   1   5
HETATM    5  C   UNL     1      -5.875   1.316 -33.055  1.00  0.00     0.337 C 
BRANCH   5   6
HETATM    6  C   UNL     1      -5.740  -0.195 -32.847  1.00  0.00     0.248 C 
HETATM    7  N   UNL     1      -4.707  -0.778 -33.562  1.00  0.00    -0.325 N 
HETATM    8  H   UNL     1      -4.313  -0.272 -34.341  1.00  0.00     0.169 HD
HETATM    9  O   UNL     1      -6.580  -0.792 -32.181  1.00  0.00    -0.271 OA
BRANCH   7  10
HETATM   10  C   UNL     1      -4.457  -2.174 -33.581  1.00  0.00     0.046 A 
HETATM   11  C   UNL     1      -3.514  -2.686 -32.658  1.00  0.00    -0.035 A 
HETATM   12  C   UNL     1      -2.727  -1.802 -31.726  1.00  0.00     0.050 C 
HETATM   13  C   UNL     1      -3.244  -4.063 -32.641  1.00  0.00     0.009 A 
HETATM   14  C   UNL     1      -3.898  -4.926 -33.514  1.00  0.00     0.001 A 
HETATM   15  C   UNL     1      -4.845  -4.424 -34.401  1.00  0.00     0.009 A 
HETATM   16  C   UNL     1      -5.158  -3.054 -34.432  1.00  0.00    -0.035 A 
HETATM   17  C   UNL     1      -6.271  -2.633 -35.355  1.00  0.00     0.050 C 
ENDBRANCH   7  10
ENDBRANCH   5   6
ENDBRANCH   1   5
BRANCH   1  18
HETATM   18  C   UNL     1      -5.129   3.658 -32.396  1.00  0.00     0.276 C 
BRANCH  18  19
HETATM   19  C   UNL     1      -4.004   4.383 -33.091  1.00  0.00    -0.003 A 
HETATM   20  C   UNL     1      -2.748   4.598 -32.475  1.00  0.00     0.069 A 
HETATM   21  C   UNL     1      -1.680   5.240 -33.101  1.00  0.00     0.012 A 
HETATM   22  N   UNL     1      -2.255   4.263 -31.232  1.00  0.00    -0.277 N 
HETATM   23  C   UNL     1      -0.640   5.245 -32.146  1.00  0.00     0.152 A 
HETATM   24  C   UNL     1      -1.824   5.702 -34.416  1.00  0.00     0.015 A 
HETATM   25  N   UNL     1      -0.999   4.658 -31.004  1.00  0.00    -0.186 NA
HETATM   26  C   UNL     1      -3.037   5.493 -35.068  1.00  0.00     0.002 A 
HETATM   27  C   UNL     1      -4.095   4.844 -34.424  1.00  0.00     0.011 A 
HETATM   28  H   UNL     1      -2.715   3.764 -30.481  1.00  0.00     0.189 HD
ENDBRANCH  18  19
ENDBRANCH   1  18
TORSDOF 6
ENDMDL
MODEL 5
REMARK VINA RESULT:      -8.1      4.536      7.685
REMARK  6 active torsions:
REMARK  status: ('A' for Active; 'I' for Inactive)
REMARK    1  A    between atoms: C_2  and  N_3 
REMARK    2  A    between atoms: N_3  and  C_5 
REMARK    3  A    between atoms: N_3  and  C_17 
REMARK    4  A    between atoms: C_5  and  C_6 
REMARK       I    between atoms: C_6  and  N_7 
REMARK    5  A    between atoms: N_7  and  C_8 
REMARK    6  A    between atoms: C_17  and  C_18 
ROOT
HETATM    1  N   UNL     1      -4.712   3.573 -30.961  1.00  0.00    -0.059 N 
HETATM    2  H   UNL     1      -4.896   3.033 -30.106  1.00  0.00     0.280 HD
ENDROOT
BRANCH   1   3
HETATM    3  C   UNL     1      -4.787   5.049 -30.590  1.00  0.00     0.231 C 
HETATM    4  C   UNL     1      -5.827   5.772 -31.423  1.00  0.00     0.034 C 
ENDBRANCH   1   3
BRANCH   1   5
HETATM    5  C   UNL     1      -5.806   3.126 -31.950  1.00  0.00     0.337 C 
BRANCH   5   6
HETATM    6  C   UNL     1      -5.906   1.612 -32.149  1.00  0.00     0.248 C 
HETATM    7  N   UNL     1      -5.489   1.172 -33.395  1.00  0.00    -0.325 N 
HETATM    8  H   UNL     1      -5.420   1.843 -34.145  1.00  0.00     0.169 HD
HETATM    9  O   UNL     1      -6.429   0.920 -31.280  1.00  0.00    -0.271 OA
BRANCH   7  10
HETATM   10  C   UNL     1      -5.576  -0.178 -33.818  1.00  0.00     0.046 A 
HETATM   11  C   UNL     1      -4.495  -1.037 -33.505  1.00  0.00    -0.035 A 
HETATM   12  C   UNL     1      -3.247  -0.553 -32.815  1.00  0.00     0.050 C 
HETATM   13  C   UNL     1      -4.547  -2.382 -33.901  1.00  0.00     0.009 A 
HETATM   14  C   UNL     1      -5.648  -2.878 -34.590  1.00  0.00     0.001 A 
HETATM   15  C   UNL     1      -6.721  -2.039 -34.873  1.00  0.00     0.009 A 
HETATM   16  C   UNL     1      -6.716  -0.692 -34.472  1.00  0.00    -0.035 A 
HETATM   17  C   UNL     1      -7.969   0.100 -34.735  1.00  0.00     0.050 C 
ENDBRANCH   7  10
ENDBRANCH   5   6
ENDBRANCH   1   5
BRANCH   1  18
HETATM   18  C   UNL     1      -3.318   3.191 -31.417  1.00  0.00     0.276 C 
BRANCH  18  19
HETATM   19  C   UNL     1      -2.580   4.234 -32.218  1.00  0.00    -0.003 A 
HETATM   20  C   UNL     1      -1.564   5.042 -31.654  1.00  0.00     0.069 A 
HETATM   21  C   UNL     1      -0.846   5.995 -32.376  1.00  0.00     0.012 A 
HETATM   22  N   UNL     1      -1.031   5.111 -30.386  1.00  0.00    -0.277 N 
HETATM   23  C   UNL     1       0.050   6.566 -31.445  1.00  0.00     0.152 A 
HETATM   24  C   UNL     1      -1.114   6.181 -33.739  1.00  0.00     0.015 A 
HETATM   25  N   UNL     1      -0.075   6.032 -30.230  1.00  0.00    -0.186 NA
HETATM   26  C   UNL     1      -2.092   5.391 -34.340  1.00  0.00     0.002 A 
HETATM   27  C   UNL     1      -2.800   4.440 -33.599  1.00  0.00     0.011 A 
HETATM   28  H   UNL     1      -1.266   4.563 -29.568  1.00  0.00     0.189 HD
ENDBRANCH  18  19
ENDBRANCH   1  18
TORSDOF 6
ENDMDL
MODEL 6
REMARK VINA RESULT:      -8.1      3.991      7.193
REMARK  6 active torsions:
REMARK  status: ('A' for Active; 'I' for Inactive)
REMARK    1  A    between atoms: C_2  and  N_3 
REMARK    2  A    between atoms: N_3  and  C_5 
REMARK    3  A    between atoms: N_3  and  C_17 
REMARK    4  A    between atoms: C_5  and  C_6 
REMARK       I    between atoms: C_6  and  N_7 
REMARK    5  A    between atoms: N_7  and  C_8 
REMARK    6  A    between atoms: C_17  and  C_18 
ROOT
HETATM    1  N   UNL     1      -5.527   3.748 -31.350  1.00  0.00    -0.059 N 
HETATM    2  H   UNL     1      -4.705   3.164 -31.545  1.00  0.00     0.280 HD
ENDROOT
BRANCH   1   3
HETATM    3  C   UNL     1      -5.659   3.856 -29.836  1.00  0.00     0.231 C 
HETATM    4  C   UNL     1      -7.008   4.424 -29.442  1.00  0.00     0.034 C 
ENDBRANCH   1   3
BRANCH   1   5
HETATM    5  C   UNL     1      -6.701   3.010 -32.023  1.00  0.00     0.337 C 
BRANCH   5   6
HETATM    6  C   UNL     1      -6.502   1.500 -32.176  1.00  0.00     0.248 C 
HETATM    7  N   UNL     1      -5.805   1.129 -33.314  1.00  0.00    -0.325 N 
HETATM    8  H   UNL     1      -5.723   1.795 -34.067  1.00  0.00     0.169 HD
HETATM    9  O   UNL     1      -7.040   0.734 -31.381  1.00  0.00    -0.271 OA
BRANCH   7  10
HETATM   10  C   UNL     1      -5.582  -0.219 -33.692  1.00  0.00     0.046 A 
HETATM   11  C   UNL     1      -6.491  -0.805 -34.606  1.00  0.00    -0.035 A 
HETATM   12  C   UNL     1      -7.706  -0.079 -35.122  1.00  0.00     0.050 C 
HETATM   13  C   UNL     1      -6.301  -2.135 -35.009  1.00  0.00     0.009 A 
HETATM   14  C   UNL     1      -5.229  -2.878 -34.527  1.00  0.00     0.001 A 
HETATM   15  C   UNL     1      -4.321  -2.292 -33.651  1.00  0.00     0.009 A 
HETATM   16  C   UNL     1      -4.466  -0.954 -33.242  1.00  0.00    -0.035 A 
HETATM   17  C   UNL     1      -3.372  -0.387 -32.376  1.00  0.00     0.050 C 
ENDBRANCH   7  10
ENDBRANCH   5   6
ENDBRANCH   1   5
BRANCH   1  18
HETATM   18  C   UNL     1      -5.249   5.100 -31.975  1.00  0.00     0.276 C 
BRANCH  18  19
HETATM   19  C   UNL     1      -3.986   5.199 -32.794  1.00  0.00    -0.003 A 
HETATM   20  C   UNL     1      -2.700   5.205 -32.203  1.00  0.00     0.069 A 
HETATM   21  C   UNL     1      -1.515   5.268 -32.935  1.00  0.00     0.012 A 
HETATM   22  N   UNL     1      -2.282   5.141 -30.892  1.00  0.00    -0.277 N 
HETATM   23  C   UNL     1      -0.484   5.256 -31.969  1.00  0.00     0.152 A 
HETATM   24  C   UNL     1      -1.565   5.320 -34.334  1.00  0.00     0.015 A 
HETATM   25  N   UNL     1      -0.957   5.190 -30.725  1.00  0.00    -0.186 NA
HETATM   26  C   UNL     1      -2.810   5.294 -34.958  1.00  0.00     0.002 A 
HETATM   27  C   UNL     1      -3.988   5.228 -34.207  1.00  0.00     0.011 A 
HETATM   28  H   UNL     1      -2.840   5.063 -30.051  1.00  0.00     0.189 HD
ENDBRANCH  18  19
ENDBRANCH   1  18
TORSDOF 6
ENDMDL
MODEL 7
REMARK VINA RESULT:      -7.9      1.345      2.630
REMARK  6 active torsions:
REMARK  status: ('A' for Active; 'I' for Inactive)
REMARK    1  A    between atoms: C_2  and  N_3 
REMARK    2  A    between atoms: N_3  and  C_5 
REMARK    3  A    between atoms: N_3  and  C_17 
REMARK    4  A    between atoms: C_5  and  C_6 
REMARK       I    between atoms: C_6  and  N_7 
REMARK    5  A    between atoms: N_7  and  C_8 
REMARK    6  A    between atoms: C_17  and  C_18 
ROOT
HETATM    1  N   UNL     1      -8.147   1.358 -34.014  1.00  0.00    -0.059 N 
HETATM    2  H   UNL     1      -8.465   2.024 -34.729  1.00  0.00     0.280 HD
ENDROOT
BRANCH   1   3
HETATM    3  C   UNL     1      -6.886   1.937 -33.383  1.00  0.00     0.231 C 
HETATM    4  C   UNL     1      -6.284   3.021 -34.255  1.00  0.00     0.034 C 
ENDBRANCH   1   3
BRANCH   1   5
HETATM    5  C   UNL     1      -7.908   0.043 -34.780  1.00  0.00     0.337 C 
BRANCH   5   6
HETATM    6  C   UNL     1      -7.086  -1.000 -34.019  1.00  0.00     0.248 C 
HETATM    7  N   UNL     1      -6.102  -1.614 -34.777  1.00  0.00    -0.325 N 
HETATM    8  H   UNL     1      -6.162  -1.558 -35.782  1.00  0.00     0.169 HD
HETATM    9  O   UNL     1      -7.401  -1.298 -32.871  1.00  0.00    -0.271 OA
BRANCH   7  10
HETATM   10  C   UNL     1      -5.283  -2.665 -34.293  1.00  0.00     0.046 A 
HETATM   11  C   UNL     1      -5.571  -3.979 -34.734  1.00  0.00    -0.035 A 
HETATM   12  C   UNL     1      -6.743  -4.299 -35.624  1.00  0.00     0.050 C 
HETATM   13  C   UNL     1      -4.779  -5.046 -34.282  1.00  0.00     0.009 A 
HETATM   14  C   UNL     1      -3.715  -4.824 -33.416  1.00  0.00     0.001 A 
HETATM   15  C   UNL     1      -3.417  -3.529 -33.005  1.00  0.00     0.009 A 
HETATM   16  C   UNL     1      -4.173  -2.432 -33.454  1.00  0.00    -0.035 A 
HETATM   17  C   UNL     1      -3.701  -1.065 -33.034  1.00  0.00     0.050 C 
ENDBRANCH   7  10
ENDBRANCH   5   6
ENDBRANCH   1   5
BRANCH   1  18
HETATM   18  C   UNL     1      -9.268   1.251 -33.000  1.00  0.00     0.276 C 
BRANCH  18  19
HETATM   19  C   UNL     1     -10.666   1.216 -33.567  1.00  0.00    -0.003 A 
HETATM   20  C   UNL     1     -11.136   2.190 -34.480  1.00  0.00     0.069 A 
HETATM   21  C   UNL     1     -12.413   2.169 -35.041  1.00  0.00     0.012 A 
HETATM   22  N   UNL     1     -10.545   3.304 -35.035  1.00  0.00    -0.277 N 
HETATM   23  C   UNL     1     -12.467   3.306 -35.877  1.00  0.00     0.152 A 
HETATM   24  C   UNL     1     -13.299   1.135 -34.711  1.00  0.00     0.015 A 
HETATM   25  N   UNL     1     -11.330   4.001 -35.861  1.00  0.00    -0.186 NA
HETATM   26  C   UNL     1     -12.869   0.143 -33.833  1.00  0.00     0.002 A 
HETATM   27  C   UNL     1     -11.584   0.180 -33.282  1.00  0.00     0.011 A 
HETATM   28  H   UNL     1      -9.606   3.658 -34.899  1.00  0.00     0.189 HD
ENDBRANCH  18  19
ENDBRANCH   1  18
TORSDOF 6
ENDMDL
MODEL 8
REMARK VINA RESULT:      -7.8      3.538      6.257
REMARK  6 active torsions:
REMARK  status: ('A' for Active; 'I' for Inactive)
REMARK    1  A    between atoms: C_2  and  N_3 
REMARK    2  A    between atoms: N_3  and  C_5 
REMARK    3  A    between atoms: N_3  and  C_17 
REMARK    4  A    between atoms: C_5  and  C_6 
REMARK       I    between atoms: C_6  and  N_7 
REMARK    5  A    between atoms: N_7  and  C_8 
REMARK    6  A    between atoms: C_17  and  C_18 
ROOT
HETATM    1  N   UNL     1      -6.706   2.290 -31.887  1.00  0.00    -0.059 N 
HETATM    2  H   UNL     1      -6.068   1.966 -31.150  1.00  0.00     0.280 HD
ENDROOT
BRANCH   1   3
HETATM    3  C   UNL     1      -8.114   2.286 -31.303  1.00  0.00     0.231 C 
HETATM    4  C   UNL     1      -8.215   3.215 -30.109  1.00  0.00     0.034 C 
ENDBRANCH   1   3
BRANCH   1   5
HETATM    5  C   UNL     1      -6.512   1.289 -33.042  1.00  0.00     0.337 C 
BRANCH   5   6
HETATM    6  C   UNL     1      -5.974  -0.080 -32.617  1.00  0.00     0.248 C 
HETATM    7  N   UNL     1      -5.065  -0.635 -33.502  1.00  0.00    -0.325 N 
HETATM    8  H   UNL     1      -5.025  -0.274 -34.443  1.00  0.00     0.169 HD
HETATM    9  O   UNL     1      -6.439  -0.631 -31.624  1.00  0.00    -0.271 OA
BRANCH   7  10
HETATM   10  C   UNL     1      -4.508  -1.929 -33.344  1.00  0.00     0.046 A 
HETATM   11  C   UNL     1      -4.985  -2.958 -34.192  1.00  0.00    -0.035 A 
HETATM   12  C   UNL     1      -6.096  -2.743 -35.186  1.00  0.00     0.050 C 
HETATM   13  C   UNL     1      -4.454  -4.251 -34.070  1.00  0.00     0.009 A 
HETATM   14  C   UNL     1      -3.464  -4.529 -33.135  1.00  0.00     0.001 A 
HETATM   15  C   UNL     1      -2.977  -3.510 -32.321  1.00  0.00     0.009 A 
HETATM   16  C   UNL     1      -3.468  -2.197 -32.430  1.00  0.00    -0.035 A 
HETATM   17  C   UNL     1      -2.800  -1.150 -31.577  1.00  0.00     0.050 C 
ENDBRANCH   7  10
ENDBRANCH   5   6
ENDBRANCH   1   5
BRANCH   1  18
HETATM   18  C   UNL     1      -6.265   3.694 -32.248  1.00  0.00     0.276 C 
BRANCH  18  19
HETATM   19  C   UNL     1      -4.776   3.909 -32.353  1.00  0.00    -0.003 A 
HETATM   20  C   UNL     1      -4.175   4.493 -33.494  1.00  0.00     0.069 A 
HETATM   21  C   UNL     1      -2.806   4.729 -33.610  1.00  0.00     0.012 A 
HETATM   22  N   UNL     1      -4.697   4.962 -34.679  1.00  0.00    -0.277 N 
HETATM   23  C   UNL     1      -2.638   5.309 -34.887  1.00  0.00     0.152 A 
HETATM   24  C   UNL     1      -1.951   4.389 -32.553  1.00  0.00     0.015 A 
HETATM   25  N   UNL     1      -3.792   5.439 -35.540  1.00  0.00    -0.186 NA
HETATM   26  C   UNL     1      -2.504   3.832 -31.401  1.00  0.00     0.002 A 
HETATM   27  C   UNL     1      -3.880   3.606 -31.303  1.00  0.00     0.011 A 
HETATM   28  H   UNL     1      -5.664   4.993 -34.979  1.00  0.00     0.189 HD
ENDBRANCH  18  19
ENDBRANCH   1  18
TORSDOF 6
ENDMDL
MODEL 9
REMARK VINA RESULT:      -7.8      2.145      7.510
REMARK  6 active torsions:
REMARK  status: ('A' for Active; 'I' for Inactive)
REMARK    1  A    between atoms: C_2  and  N_3 
REMARK    2  A    between atoms: N_3  and  C_5 
REMARK    3  A    between atoms: N_3  and  C_17 
REMARK    4  A    between atoms: C_5  and  C_6 
REMARK       I    between atoms: C_6  and  N_7 
REMARK    5  A    between atoms: N_7  and  C_8 
REMARK    6  A    between atoms: C_17  and  C_18 
ROOT
HETATM    1  N   UNL     1      -6.363   1.799 -31.790  1.00  0.00    -0.059 N 
HETATM    2  H   UNL     1      -7.063   1.050 -31.850  1.00  0.00     0.280 HD
ENDROOT
BRANCH   1   3
HETATM    3  C   UNL     1      -5.888   1.863 -30.344  1.00  0.00     0.231 C 
HETATM    4  C   UNL     1      -5.929   0.495 -29.692  1.00  0.00     0.034 C 
ENDBRANCH   1   3
BRANCH   1   5
HETATM    5  C   UNL     1      -7.106   3.067 -32.255  1.00  0.00     0.337 C 
BRANCH   5   6
HETATM    6  C   UNL     1      -8.615   2.890 -32.444  1.00  0.00     0.248 C 
HETATM    7  N   UNL     1      -8.975   2.334 -33.660  1.00  0.00    -0.325 N 
HETATM    8  H   UNL     1      -8.303   2.341 -34.412  1.00  0.00     0.169 HD
HETATM    9  O   UNL     1      -9.387   3.331 -31.598  1.00  0.00    -0.271 OA
BRANCH   7  10
HETATM   10  C   UNL     1     -10.320   2.160 -34.074  1.00  0.00     0.046 A 
HETATM   11  C   UNL     1     -10.991   0.986 -33.654  1.00  0.00    -0.035 A 
HETATM   12  C   UNL     1     -10.312  -0.098 -32.861  1.00  0.00     0.050 C 
HETATM   13  C   UNL     1     -12.325   0.781 -34.039  1.00  0.00     0.009 A 
HETATM   14  C   UNL     1     -12.993   1.720 -34.817  1.00  0.00     0.001 A 
HETATM   15  C   UNL     1     -12.340   2.886 -35.206  1.00  0.00     0.009 A 
HETATM   16  C   UNL     1     -11.011   3.137 -34.821  1.00  0.00    -0.035 A 
HETATM   17  C   UNL     1     -10.435   4.474 -35.206  1.00  0.00     0.050 C 
ENDBRANCH   7  10
ENDBRANCH   5   6
ENDBRANCH   1   5
BRANCH   1  18
HETATM   18  C   UNL     1      -5.235   1.406 -32.722  1.00  0.00     0.276 C 
BRANCH  18  19
HETATM   19  C   UNL     1      -5.350   0.041 -33.354  1.00  0.00    -0.003 A 
HETATM   20  C   UNL     1      -4.531  -1.045 -32.961  1.00  0.00     0.069 A 
HETATM   21  C   UNL     1      -4.632  -2.324 -33.507  1.00  0.00     0.012 A 
HETATM   22  N   UNL     1      -3.527  -1.159 -32.026  1.00  0.00    -0.277 N 
HETATM   23  C   UNL     1      -3.644  -3.087 -32.846  1.00  0.00     0.152 A 
HETATM   24  C   UNL     1      -5.592  -2.584 -34.495  1.00  0.00     0.015 A 
HETATM   25  N   UNL     1      -2.965  -2.369 -31.952  1.00  0.00    -0.186 NA
HETATM   26  C   UNL     1      -6.433  -1.548 -34.896  1.00  0.00     0.002 A 
HETATM   27  C   UNL     1      -6.318  -0.273 -34.334  1.00  0.00     0.011 A 
HETATM   28  H   UNL     1      -3.163  -0.454 -31.396  1.00  0.00     0.189 HD
ENDBRANCH  18  19
ENDBRANCH   1  18
TORSDOF 6
ENDMDL
MODEL 10
REMARK VINA RESULT:      -7.8      1.764      2.658
REMARK  6 active torsions:
REMARK  status: ('A' for Active; 'I' for Inactive)
REMARK    1  A    between atoms: C_2  and  N_3 
REMARK    2  A    between atoms: N_3  and  C_5 
REMARK    3  A    between atoms: N_3  and  C_17 
REMARK    4  A    between atoms: C_5  and  C_6 
REMARK       I    between atoms: C_6  and  N_7 
REMARK    5  A    between atoms: N_7  and  C_8 
REMARK    6  A    between atoms: C_17  and  C_18 
ROOT
HETATM    1  N   UNL     1      -5.924   2.803 -32.441  1.00  0.00    -0.059 N 
HETATM    2  H   UNL     1      -6.149   2.248 -33.276  1.00  0.00     0.280 HD
ENDROOT
BRANCH   1   3
HETATM    3  C   UNL     1      -4.921   3.870 -32.861  1.00  0.00     0.231 C 
HETATM    4  C   UNL     1      -5.267   4.443 -34.221  1.00  0.00     0.034 C 
ENDBRANCH   1   3
BRANCH   1   5
HETATM    5  C   UNL     1      -5.357   1.783 -31.434  1.00  0.00     0.337 C 
BRANCH   5   6
HETATM    6  C   UNL     1      -5.560   0.317 -31.827  1.00  0.00     0.248 C 
HETATM    7  N   UNL     1      -4.825  -0.083 -32.931  1.00  0.00    -0.325 N 
HETATM    8  H   UNL     1      -4.449   0.625 -33.543  1.00  0.00     0.169 HD
HETATM    9  O   UNL     1      -6.403  -0.356 -31.241  1.00  0.00    -0.271 OA
BRANCH   7  10
HETATM   10  C   UNL     1      -4.926  -1.372 -33.513  1.00  0.00     0.046 A 
HETATM   11  C   UNL     1      -4.042  -2.376 -33.047  1.00  0.00    -0.035 A 
HETATM   12  C   UNL     1      -2.970  -2.103 -32.025  1.00  0.00     0.050 C 
HETATM   13  C   UNL     1      -4.116  -3.666 -33.594  1.00  0.00     0.009 A 
HETATM   14  C   UNL     1      -5.048  -3.968 -34.580  1.00  0.00     0.001 A 
HETATM   15  C   UNL     1      -5.934  -2.987 -35.017  1.00  0.00     0.009 A 
HETATM   16  C   UNL     1      -5.906  -1.690 -34.477  1.00  0.00    -0.035 A 
HETATM   17  C   UNL     1      -6.975  -0.737 -34.943  1.00  0.00     0.050 C 
ENDBRANCH   7  10
ENDBRANCH   5   6
ENDBRANCH   1   5
BRANCH   1  18
HETATM   18  C   UNL     1      -7.226   3.424 -31.977  1.00  0.00     0.276 C 
BRANCH  18  19
HETATM   19  C   UNL     1      -8.417   3.203 -32.876  1.00  0.00    -0.003 A 
HETATM   20  C   UNL     1      -9.147   1.990 -32.878  1.00  0.00     0.069 A 
HETATM   21  C   UNL     1     -10.268   1.766 -33.677  1.00  0.00     0.012 A 
HETATM   22  N   UNL     1      -9.001   0.818 -32.169  1.00  0.00    -0.277 N 
HETATM   23  C   UNL     1     -10.678   0.448 -33.376  1.00  0.00     0.152 A 
HETATM   24  C   UNL     1     -10.728   2.780 -34.528  1.00  0.00     0.015 A 
HETATM   25  N   UNL     1      -9.896  -0.129 -32.465  1.00  0.00    -0.186 NA
HETATM   26  C   UNL     1     -10.051   3.998 -34.541  1.00  0.00     0.002 A 
HETATM   27  C   UNL     1      -8.931   4.204 -33.731  1.00  0.00     0.011 A 
HETATM   28  H   UNL     1      -8.314   0.585 -31.463  1.00  0.00     0.189 HD
ENDBRANCH  18  19
ENDBRANCH   1  18
TORSDOF 6
ENDMDL
