MODEL 1
REMARK VINA RESULT:      -9.3      0.000      0.000
REMARK  4 active torsions:
REMARK  status: ('A' for Active; 'I' for Inactive)
REMARK    1  A    between atoms: C_9  and  C_10 
REMARK    2  A    between atoms: C_10  and  C_11 
REMARK       I    between atoms: C_11  and  N_12 
REMARK    3  A    between atoms: N_12  and  C_13 
REMARK    4  A    between atoms: C_15  and  C_16 
ROOT
HETATM    1  C   UNL     1      -5.085   0.885 -31.667  1.00  0.00     0.227 C 
HETATM    2  N   UNL     1      -4.880   0.452 -32.955  1.00  0.00    -0.327 N 
HETATM    3  O   UNL     1      -5.487   0.180 -30.741  1.00  0.00    -0.273 OA
HETATM    4  H   UNL     1      -4.531   1.160 -33.603  1.00  0.00     0.169 HD
ENDROOT
BRANCH   1   5
HETATM    5  C   UNL     1      -4.775   2.341 -31.375  1.00  0.00     0.165 C 
BRANCH   5   6
HETATM    6  C   UNL     1      -4.465   3.334 -32.481  1.00  0.00     0.074 A 
HETATM    7  C   UNL     1      -3.203   4.118 -32.385  1.00  0.00     0.006 A 
HETATM    8  C   UNL     1      -2.286   3.973 -31.336  1.00  0.00     0.014 A 
HETATM    9  C   UNL     1      -2.937   5.035 -33.401  1.00  0.00     0.046 A 
HETATM   10  C   UNL     1      -1.123   4.748 -31.309  1.00  0.00     0.001 A 
HETATM   11  C   UNL     1      -0.866   5.668 -32.326  1.00  0.00     0.001 A 
HETATM   12  C   UNL     1      -1.773   5.811 -33.375  1.00  0.00     0.018 A 
HETATM   13  C   UNL     1      -3.891   5.171 -34.509  1.00  0.00     0.272 A 
HETATM   14  O   UNL     1      -3.706   5.963 -35.426  1.00  0.00    -0.266 OA
HETATM   15  N   UNL     1      -4.997   4.358 -34.458  1.00  0.00    -0.243 N 
HETATM   16  N   UNL     1      -5.291   3.462 -33.479  1.00  0.00    -0.175 NA
HETATM   17  H   UNL     1      -5.659   4.445 -35.224  1.00  0.00     0.192 HD
ENDBRANCH   5   6
ENDBRANCH   1   5
BRANCH   2  18
HETATM   18  C   UNL     1      -5.098  -0.829 -33.495  1.00  0.00     0.035 A 
HETATM   19  C   UNL     1      -4.280  -1.935 -33.252  1.00  0.00     0.047 A 
HETATM   20  C   UNL     1      -4.559  -3.197 -33.823  1.00  0.00     0.071 A 
HETATM   21  C   UNL     1      -5.680  -3.326 -34.648  1.00  0.00     0.049 A 
HETATM   22 CL   UNL     1      -6.108  -4.823 -35.392  1.00  0.00    -0.083 Cl
HETATM   23  C   UNL     1      -6.503  -2.226 -34.897  1.00  0.00     0.027 A 
HETATM   24  C   UNL     1      -6.214  -0.986 -34.323  1.00  0.00     0.031 A 
BRANCH  20  25
HETATM   25  C   UNL     1      -3.657  -4.366 -33.535  1.00  0.00     0.419 C 
HETATM   26  F   UNL     1      -4.331  -5.504 -33.200  1.00  0.00    -0.166 F 
HETATM   27  F   UNL     1      -2.882  -4.713 -34.601  1.00  0.00    -0.166 F 
HETATM   28  F   UNL     1      -2.804  -4.137 -32.499  1.00  0.00    -0.166 F 
ENDBRANCH  20  25
ENDBRANCH   2  18
TORSDOF 4
ENDMDL
MODEL 2
REMARK VINA RESULT:      -9.1      6.233      8.595
REMARK  4 active torsions:
REMARK  status: ('A' for Active; 'I' for Inactive)
REMARK    1  A    between atoms: C_9  and  C_10 
REMARK    2  A    between atoms: C_10  and  C_11 
REMARK       I    between atoms: C_11  and  N_12 
REMARK    3  A    between atoms: N_12  and  C_13 
REMARK    4  A    between atoms: C_15  and  C_16 
ROOT
HETATM    1  C   UNL     1      -8.456   0.338 -33.988  1.00  0.00     0.227 C 
HETATM    2  N   UNL     1      -9.360   1.099 -34.689  1.00  0.00    -0.327 N 
HETATM    3  O   UNL     1      -8.575   0.010 -32.806  1.00  0.00    -0.273 OA
HETATM    4  H   UNL     1      -9.120   1.271 -35.667  1.00  0.00     0.169 HD
ENDROOT
BRANCH   1   5
HETATM    5  C   UNL     1      -7.230  -0.141 -34.743  1.00  0.00     0.165 C 
BRANCH   5   6
HETATM    6  C   UNL     1      -5.966  -0.580 -34.025  1.00  0.00     0.074 A 
HETATM    7  C   UNL     1      -5.550  -2.005 -34.147  1.00  0.00     0.006 A 
HETATM    8  C   UNL     1      -6.257  -2.950 -34.901  1.00  0.00     0.014 A 
HETATM    9  C   UNL     1      -4.395  -2.398 -33.472  1.00  0.00     0.046 A 
HETATM   10  C   UNL     1      -5.810  -4.273 -34.966  1.00  0.00     0.001 A 
HETATM   11  C   UNL     1      -4.657  -4.660 -34.283  1.00  0.00     0.001 A 
HETATM   12  C   UNL     1      -3.946  -3.722 -33.536  1.00  0.00     0.018 A 
HETATM   13  C   UNL     1      -3.646  -1.400 -32.697  1.00  0.00     0.272 A 
HETATM   14  O   UNL     1      -2.626  -1.693 -32.085  1.00  0.00    -0.266 OA
HETATM   15  N   UNL     1      -4.153  -0.123 -32.704  1.00  0.00    -0.243 N 
HETATM   16  N   UNL     1      -5.280   0.290 -33.342  1.00  0.00    -0.175 NA
HETATM   17  H   UNL     1      -3.636   0.572 -32.173  1.00  0.00     0.192 HD
ENDBRANCH   5   6
ENDBRANCH   1   5
BRANCH   2  18
HETATM   18  C   UNL     1     -10.560   1.676 -34.234  1.00  0.00     0.035 A 
HETATM   19  C   UNL     1     -11.770   0.987 -34.116  1.00  0.00     0.047 A 
HETATM   20  C   UNL     1     -12.938   1.628 -33.647  1.00  0.00     0.071 A 
HETATM   21  C   UNL     1     -12.868   2.980 -33.298  1.00  0.00     0.049 A 
HETATM   22 CL   UNL     1     -14.238   3.852 -32.714  1.00  0.00    -0.083 Cl
HETATM   23  C   UNL     1     -11.663   3.676 -33.413  1.00  0.00     0.027 A 
HETATM   24  C   UNL     1     -10.517   3.027 -33.877  1.00  0.00     0.031 A 
BRANCH  20  25
HETATM   25  C   UNL     1     -14.222   0.853 -33.530  1.00  0.00     0.419 C 
HETATM   26  F   UNL     1     -14.977   1.209 -32.451  1.00  0.00    -0.166 F 
HETATM   27  F   UNL     1     -15.041   1.018 -34.607  1.00  0.00    -0.166 F 
HETATM   28  F   UNL     1     -14.024  -0.489 -33.401  1.00  0.00    -0.166 F 
ENDBRANCH  20  25
ENDBRANCH   2  18
TORSDOF 4
ENDMDL
MODEL 3
REMARK VINA RESULT:      -8.9      5.153      8.793
REMARK  4 active torsions:
REMARK  status: ('A' for Active; 'I' for Inactive)
REMARK    1  A    between atoms: C_9  and  C_10 
REMARK    2  A    between atoms: C_10  and  C_11 
REMARK       I    between atoms: C_11  and  N_12 
REMARK    3  A    between atoms: N_12  and  C_13 
REMARK    4  A    between atoms: C_15  and  C_16 
ROOT
HETATM    1  C   UNL     1      -4.300   2.574 -31.621  1.00  0.00     0.227 C 
HETATM    2  N   UNL     1      -3.514   3.536 -32.207  1.00  0.00    -0.327 N 
HETATM    3  O   UNL     1      -4.624   2.554 -30.433  1.00  0.00    -0.273 OA
HETATM    4  H   UNL     1      -3.349   3.415 -33.208  1.00  0.00     0.169 HD
ENDROOT
BRANCH   1   5
HETATM    5  C   UNL     1      -4.814   1.465 -32.521  1.00  0.00     0.165 C 
BRANCH   5   6
HETATM    6  C   UNL     1      -4.280   0.046 -32.431  1.00  0.00     0.074 A 
HETATM    7  C   UNL     1      -4.885  -0.987 -33.317  1.00  0.00     0.006 A 
HETATM    8  C   UNL     1      -5.906  -0.710 -34.235  1.00  0.00     0.014 A 
HETATM    9  C   UNL     1      -4.393  -2.287 -33.215  1.00  0.00     0.046 A 
HETATM   10  C   UNL     1      -6.429  -1.733 -35.030  1.00  0.00     0.001 A 
HETATM   11  C   UNL     1      -5.937  -3.033 -34.919  1.00  0.00     0.001 A 
HETATM   12  C   UNL     1      -4.916  -3.313 -34.011  1.00  0.00     0.018 A 
HETATM   13  C   UNL     1      -3.309  -2.570 -32.265  1.00  0.00     0.272 A 
HETATM   14  O   UNL     1      -2.843  -3.696 -32.136  1.00  0.00    -0.266 OA
HETATM   15  N   UNL     1      -2.849  -1.500 -31.537  1.00  0.00    -0.243 N 
HETATM   16  N   UNL     1      -3.311  -0.224 -31.604  1.00  0.00    -0.175 NA
HETATM   17  H   UNL     1      -2.096  -1.690 -30.881  1.00  0.00     0.192 HD
ENDBRANCH   5   6
ENDBRANCH   1   5
BRANCH   2  18
HETATM   18  C   UNL     1      -2.903   4.654 -31.608  1.00  0.00     0.035 A 
HETATM   19  C   UNL     1      -1.525   4.796 -31.431  1.00  0.00     0.047 A 
HETATM   20  C   UNL     1      -0.975   5.948 -30.826  1.00  0.00     0.071 A 
HETATM   21  C   UNL     1      -1.842   6.959 -30.399  1.00  0.00     0.049 A 
HETATM   22 CL   UNL     1      -1.271   8.405 -29.649  1.00  0.00    -0.083 Cl
HETATM   23  C   UNL     1      -3.221   6.825 -30.571  1.00  0.00     0.027 A 
HETATM   24  C   UNL     1      -3.747   5.680 -31.173  1.00  0.00     0.031 A 
BRANCH  20  25
HETATM   25  C   UNL     1       0.514   6.067 -30.655  1.00  0.00     0.419 C 
HETATM   26  F   UNL     1       0.899   6.268 -29.361  1.00  0.00    -0.166 F 
HETATM   27  F   UNL     1       1.186   4.952 -31.057  1.00  0.00    -0.166 F 
HETATM   28  F   UNL     1       1.048   7.108 -31.352  1.00  0.00    -0.166 F 
ENDBRANCH  20  25
ENDBRANCH   2  18
TORSDOF 4
ENDMDL
MODEL 4
REMARK VINA RESULT:      -8.8      1.517      2.062
REMARK  4 active torsions:
REMARK  status: ('A' for Active; 'I' for Inactive)
REMARK    1  A    between atoms: C_9  and  C_10 
REMARK    2  A    between atoms: C_10  and  C_11 
REMARK       I    between atoms: C_11  and  N_12 
REMARK    3  A    between atoms: N_12  and  C_13 
REMARK    4  A    between atoms: C_15  and  C_16 
ROOT
HETATM    1  C   UNL     1      -4.598   1.144 -31.092  1.00  0.00     0.227 C 
HETATM    2  N   UNL     1      -4.103   0.548 -32.226  1.00  0.00    -0.327 N 
HETATM    3  O   UNL     1      -5.154   0.551 -30.167  1.00  0.00    -0.273 OA
HETATM    4  H   UNL     1      -3.658   1.181 -32.893  1.00  0.00     0.169 HD
ENDROOT
BRANCH   1   5
HETATM    5  C   UNL     1      -4.427   2.648 -30.976  1.00  0.00     0.165 C 
BRANCH   5   6
HETATM    6  C   UNL     1      -4.222   3.529 -32.195  1.00  0.00     0.074 A 
HETATM    7  C   UNL     1      -2.984   4.354 -32.263  1.00  0.00     0.006 A 
HETATM    8  C   UNL     1      -1.998   4.344 -31.268  1.00  0.00     0.014 A 
HETATM    9  C   UNL     1      -2.814   5.167 -33.382  1.00  0.00     0.046 A 
HETATM   10  C   UNL     1      -0.864   5.150 -31.397  1.00  0.00     0.001 A 
HETATM   11  C   UNL     1      -0.704   5.966 -32.517  1.00  0.00     0.001 A 
HETATM   12  C   UNL     1      -1.679   5.975 -33.513  1.00  0.00     0.018 A 
HETATM   13  C   UNL     1      -3.841   5.161 -34.433  1.00  0.00     0.272 A 
HETATM   14  O   UNL     1      -3.741   5.859 -35.436  1.00  0.00    -0.266 OA
HETATM   15  N   UNL     1      -4.913   4.327 -34.226  1.00  0.00    -0.243 N 
HETATM   16  N   UNL     1      -5.114   3.530 -33.144  1.00  0.00    -0.175 NA
HETATM   17  H   UNL     1      -5.624   4.316 -34.952  1.00  0.00     0.192 HD
ENDBRANCH   5   6
ENDBRANCH   1   5
BRANCH   2  18
HETATM   18  C   UNL     1      -4.139  -0.811 -32.590  1.00  0.00     0.035 A 
HETATM   19  C   UNL     1      -5.048  -1.358 -33.499  1.00  0.00     0.047 A 
HETATM   20  C   UNL     1      -5.026  -2.733 -33.824  1.00  0.00     0.071 A 
HETATM   21  C   UNL     1      -4.070  -3.551 -33.214  1.00  0.00     0.049 A 
HETATM   22 CL   UNL     1      -3.960  -5.242 -33.544  1.00  0.00    -0.083 Cl
HETATM   23  C   UNL     1      -3.159  -3.012 -32.304  1.00  0.00     0.027 A 
HETATM   24  C   UNL     1      -3.193  -1.651 -31.995  1.00  0.00     0.031 A 
BRANCH  20  25
HETATM   25  C   UNL     1      -6.019  -3.286 -34.809  1.00  0.00     0.419 C 
HETATM   26  F   UNL     1      -7.001  -2.401 -35.148  1.00  0.00    -0.166 F 
HETATM   27  F   UNL     1      -5.446  -3.651 -35.991  1.00  0.00    -0.166 F 
HETATM   28  F   UNL     1      -6.674  -4.386 -34.344  1.00  0.00    -0.166 F 
ENDBRANCH  20  25
ENDBRANCH   2  18
TORSDOF 4
ENDMDL
MODEL 5
REMARK VINA RESULT:      -8.8      6.313      7.922
REMARK  4 active torsions:
REMARK  status: ('A' for Active; 'I' for Inactive)
REMARK    1  A    between atoms: C_9  and  C_10 
REMARK    2  A    between atoms: C_10  and  C_11 
REMARK       I    between atoms: C_11  and  N_12 
REMARK    3  A    between atoms: N_12  and  C_13 
REMARK    4  A    between atoms: C_15  and  C_16 
ROOT
HETATM    1  C   UNL     1     -10.111   1.060 -34.183  1.00  0.00     0.227 C 
HETATM    2  N   UNL     1      -8.894   1.087 -34.819  1.00  0.00    -0.327 N 
HETATM    3  O   UNL     1     -10.356   0.430 -33.154  1.00  0.00    -0.273 OA
HETATM    4  H   UNL     1      -8.851   1.670 -35.657  1.00  0.00     0.169 HD
ENDROOT
BRANCH   1   5
HETATM    5  C   UNL     1     -11.225   1.887 -34.797  1.00  0.00     0.165 C 
BRANCH   5   6
HETATM    6  C   UNL     1     -12.634   1.881 -34.232  1.00  0.00     0.074 A 
HETATM    7  C   UNL     1     -12.910   2.715 -33.029  1.00  0.00     0.006 A 
HETATM    8  C   UNL     1     -11.940   3.513 -32.409  1.00  0.00     0.014 A 
HETATM    9  C   UNL     1     -14.205   2.690 -32.513  1.00  0.00     0.046 A 
HETATM   10  C   UNL     1     -12.271   4.267 -31.279  1.00  0.00     0.001 A 
HETATM   11  C   UNL     1     -13.567   4.232 -30.764  1.00  0.00     0.001 A 
HETATM   12  C   UNL     1     -14.537   3.444 -31.382  1.00  0.00     0.018 A 
HETATM   13  C   UNL     1     -15.224   1.867 -33.178  1.00  0.00     0.272 A 
HETATM   14  O   UNL     1     -16.376   1.809 -32.764  1.00  0.00    -0.266 OA
HETATM   15  N   UNL     1     -14.810   1.173 -34.289  1.00  0.00    -0.243 N 
HETATM   16  N   UNL     1     -13.556   1.167 -34.812  1.00  0.00    -0.175 NA
HETATM   17  H   UNL     1     -15.513   0.605 -34.755  1.00  0.00     0.192 HD
ENDBRANCH   5   6
ENDBRANCH   1   5
BRANCH   2  18
HETATM   18  C   UNL     1      -7.708   0.410 -34.475  1.00  0.00     0.035 A 
HETATM   19  C   UNL     1      -7.424  -0.910 -34.835  1.00  0.00     0.047 A 
HETATM   20  C   UNL     1      -6.210  -1.529 -34.460  1.00  0.00     0.071 A 
HETATM   21  C   UNL     1      -5.285  -0.794 -33.712  1.00  0.00     0.049 A 
HETATM   22 CL   UNL     1      -3.775  -1.458 -33.206  1.00  0.00    -0.083 Cl
HETATM   23  C   UNL     1      -5.563   0.525 -33.348  1.00  0.00     0.027 A 
HETATM   24  C   UNL     1      -6.766   1.123 -33.728  1.00  0.00     0.031 A 
BRANCH  20  25
HETATM   25  C   UNL     1      -5.937  -2.950 -34.868  1.00  0.00     0.419 C 
HETATM   26  F   UNL     1      -5.106  -3.057 -35.945  1.00  0.00    -0.166 F 
HETATM   27  F   UNL     1      -5.339  -3.679 -33.884  1.00  0.00    -0.166 F 
HETATM   28  F   UNL     1      -7.064  -3.630 -35.217  1.00  0.00    -0.166 F 
ENDBRANCH  20  25
ENDBRANCH   2  18
TORSDOF 4
ENDMDL
MODEL 6
REMARK VINA RESULT:      -8.7      6.935      8.876
REMARK  4 active torsions:
REMARK  status: ('A' for Active; 'I' for Inactive)
REMARK    1  A    between atoms: C_9  and  C_10 
REMARK    2  A    between atoms: C_10  and  C_11 
REMARK       I    between atoms: C_11  and  N_12 
REMARK    3  A    between atoms: N_12  and  C_13 
REMARK    4  A    between atoms: C_15  and  C_16 
ROOT
HETATM    1  C   UNL     1      -9.351   0.718 -33.890  1.00  0.00     0.227 C 
HETATM    2  N   UNL     1     -10.419   1.362 -34.467  1.00  0.00    -0.327 N 
HETATM    3  O   UNL     1      -9.352   0.215 -32.766  1.00  0.00    -0.273 OA
HETATM    4  H   UNL     1     -10.259   1.713 -35.413  1.00  0.00     0.169 HD
ENDROOT
BRANCH   1   5
HETATM    5  C   UNL     1      -8.083   0.614 -34.719  1.00  0.00     0.165 C 
BRANCH   5   6
HETATM    6  C   UNL     1      -6.724   0.386 -34.082  1.00  0.00     0.074 A 
HETATM    7  C   UNL     1      -6.117  -0.969 -34.191  1.00  0.00     0.006 A 
HETATM    8  C   UNL     1      -6.730  -2.034 -34.864  1.00  0.00     0.014 A 
HETATM    9  C   UNL     1      -4.875  -1.167 -33.590  1.00  0.00     0.046 A 
HETATM   10  C   UNL     1      -6.102  -3.281 -34.921  1.00  0.00     0.001 A 
HETATM   11  C   UNL     1      -4.862  -3.474 -34.312  1.00  0.00     0.001 A 
HETATM   12  C   UNL     1      -4.245  -2.416 -33.647  1.00  0.00     0.018 A 
HETATM   13  C   UNL     1      -4.226  -0.043 -32.901  1.00  0.00     0.272 A 
HETATM   14  O   UNL     1      -3.136  -0.165 -32.356  1.00  0.00    -0.266 OA
HETATM   15  N   UNL     1      -4.911   1.147 -32.909  1.00  0.00    -0.243 N 
HETATM   16  N   UNL     1      -6.126   1.372 -33.476  1.00  0.00    -0.175 NA
HETATM   17  H   UNL     1      -4.465   1.929 -32.438  1.00  0.00     0.192 HD
ENDBRANCH   5   6
ENDBRANCH   1   5
BRANCH   2  18
HETATM   18  C   UNL     1     -11.693   1.609 -33.922  1.00  0.00     0.035 A 
HETATM   19  C   UNL     1     -12.036   2.764 -33.216  1.00  0.00     0.047 A 
HETATM   20  C   UNL     1     -13.337   2.951 -32.698  1.00  0.00     0.071 A 
HETATM   21  C   UNL     1     -14.291   1.949 -32.903  1.00  0.00     0.049 A 
HETATM   22 CL   UNL     1     -15.907   2.082 -32.313  1.00  0.00    -0.083 Cl
HETATM   23  C   UNL     1     -13.955   0.791 -33.607  1.00  0.00     0.027 A 
HETATM   24  C   UNL     1     -12.665   0.623 -34.114  1.00  0.00     0.031 A 
BRANCH  20  25
HETATM   25  C   UNL     1     -13.671   4.210 -31.946  1.00  0.00     0.419 C 
HETATM   26  F   UNL     1     -12.638   5.100 -31.887  1.00  0.00    -0.166 F 
HETATM   27  F   UNL     1     -14.705   4.902 -32.502  1.00  0.00    -0.166 F 
HETATM   28  F   UNL     1     -14.018   3.978 -30.649  1.00  0.00    -0.166 F 
ENDBRANCH  20  25
ENDBRANCH   2  18
TORSDOF 4
ENDMDL
MODEL 7
REMARK VINA RESULT:      -8.6      1.625      2.305
REMARK  4 active torsions:
REMARK  status: ('A' for Active; 'I' for Inactive)
REMARK    1  A    between atoms: C_9  and  C_10 
REMARK    2  A    between atoms: C_10  and  C_11 
REMARK       I    between atoms: C_11  and  N_12 
REMARK    3  A    between atoms: N_12  and  C_13 
REMARK    4  A    between atoms: C_15  and  C_16 
ROOT
HETATM    1  C   UNL     1      -3.429   0.683 -31.749  1.00  0.00     0.227 C 
HETATM    2  N   UNL     1      -4.468   0.410 -32.607  1.00  0.00    -0.327 N 
HETATM    3  O   UNL     1      -2.555  -0.120 -31.420  1.00  0.00    -0.273 OA
HETATM    4  H   UNL     1      -5.102   1.190 -32.787  1.00  0.00     0.169 HD
ENDROOT
BRANCH   1   5
HETATM    5  C   UNL     1      -3.358   2.089 -31.183  1.00  0.00     0.165 C 
BRANCH   5   6
HETATM    6  C   UNL     1      -3.344   3.315 -32.079  1.00  0.00     0.074 A 
HETATM    7  C   UNL     1      -4.579   4.143 -32.152  1.00  0.00     0.006 A 
HETATM    8  C   UNL     1      -5.742   3.855 -31.426  1.00  0.00     0.014 A 
HETATM    9  C   UNL     1      -4.557   5.258 -32.988  1.00  0.00     0.046 A 
HETATM   10  C   UNL     1      -6.867   4.675 -31.549  1.00  0.00     0.001 A 
HETATM   11  C   UNL     1      -6.839   5.786 -32.393  1.00  0.00     0.001 A 
HETATM   12  C   UNL     1      -5.682   6.081 -33.113  1.00  0.00     0.018 A 
HETATM   13  C   UNL     1      -3.329   5.568 -33.734  1.00  0.00     0.272 A 
HETATM   14  O   UNL     1      -3.258   6.535 -34.483  1.00  0.00    -0.266 OA
HETATM   15  N   UNL     1      -2.271   4.715 -33.538  1.00  0.00    -0.243 N 
HETATM   16  N   UNL     1      -2.263   3.615 -32.739  1.00  0.00    -0.175 NA
HETATM   17  H   UNL     1      -1.419   4.927 -34.049  1.00  0.00     0.192 HD
ENDBRANCH   5   6
ENDBRANCH   1   5
BRANCH   2  18
HETATM   18  C   UNL     1      -4.775  -0.801 -33.255  1.00  0.00     0.035 A 
HETATM   19  C   UNL     1      -4.063  -1.990 -33.079  1.00  0.00     0.047 A 
HETATM   20  C   UNL     1      -4.428  -3.174 -33.758  1.00  0.00     0.071 A 
HETATM   21  C   UNL     1      -5.526  -3.139 -34.624  1.00  0.00     0.049 A 
HETATM   22 CL   UNL     1      -6.053  -4.529 -35.499  1.00  0.00    -0.083 Cl
HETATM   23  C   UNL     1      -6.242  -1.954 -34.806  1.00  0.00     0.027 A 
HETATM   24  C   UNL     1      -5.869  -0.793 -34.125  1.00  0.00     0.031 A 
BRANCH  20  25
HETATM   25  C   UNL     1      -3.640  -4.436 -33.542  1.00  0.00     0.419 C 
HETATM   26  F   UNL     1      -4.417  -5.520 -33.253  1.00  0.00    -0.166 F 
HETATM   27  F   UNL     1      -2.911  -4.801 -34.634  1.00  0.00    -0.166 F 
HETATM   28  F   UNL     1      -2.760  -4.343 -32.507  1.00  0.00    -0.166 F 
ENDBRANCH  20  25
ENDBRANCH   2  18
TORSDOF 4
ENDMDL
MODEL 8
REMARK VINA RESULT:      -8.6      5.073      8.002
REMARK  4 active torsions:
REMARK  status: ('A' for Active; 'I' for Inactive)
REMARK    1  A    between atoms: C_9  and  C_10 
REMARK    2  A    between atoms: C_10  and  C_11 
REMARK       I    between atoms: C_11  and  N_12 
REMARK    3  A    between atoms: N_12  and  C_13 
REMARK    4  A    between atoms: C_15  and  C_16 
ROOT
HETATM    1  C   UNL     1      -3.562   1.282 -31.083  1.00  0.00     0.227 C 
HETATM    2  N   UNL     1      -3.930   2.536 -31.506  1.00  0.00    -0.327 N 
HETATM    3  O   UNL     1      -2.402   0.878 -30.999  1.00  0.00    -0.273 OA
HETATM    4  H   UNL     1      -4.935   2.719 -31.506  1.00  0.00     0.169 HD
ENDROOT
BRANCH   1   5
HETATM    5  C   UNL     1      -4.679   0.338 -30.678  1.00  0.00     0.165 C 
BRANCH   5   6
HETATM    6  C   UNL     1      -5.968   0.232 -31.473  1.00  0.00     0.074 A 
HETATM    7  C   UNL     1      -5.991  -0.680 -32.650  1.00  0.00     0.006 A 
HETATM    8  C   UNL     1      -4.892  -1.452 -33.047  1.00  0.00     0.014 A 
HETATM    9  C   UNL     1      -7.177  -0.758 -33.379  1.00  0.00     0.046 A 
HETATM   10  C   UNL     1      -4.986  -2.282 -34.168  1.00  0.00     0.001 A 
HETATM   11  C   UNL     1      -6.174  -2.350 -34.895  1.00  0.00     0.001 A 
HETATM   12  C   UNL     1      -7.273  -1.589 -34.501  1.00  0.00     0.018 A 
HETATM   13  C   UNL     1      -8.335   0.038 -32.949  1.00  0.00     0.272 A 
HETATM   14  O   UNL     1      -9.399   0.007 -33.555  1.00  0.00    -0.266 OA
HETATM   15  N   UNL     1      -8.153   0.813 -31.829  1.00  0.00    -0.243 N 
HETATM   16  N   UNL     1      -7.009   0.919 -31.102  1.00  0.00    -0.175 NA
HETATM   17  H   UNL     1      -8.952   1.362 -31.525  1.00  0.00     0.192 HD
ENDBRANCH   5   6
ENDBRANCH   1   5
BRANCH   2  18
HETATM   18  C   UNL     1      -3.108   3.590 -31.947  1.00  0.00     0.035 A 
HETATM   19  C   UNL     1      -2.131   4.206 -31.162  1.00  0.00     0.047 A 
HETATM   20  C   UNL     1      -1.335   5.258 -31.669  1.00  0.00     0.071 A 
HETATM   21  C   UNL     1      -1.543   5.682 -32.985  1.00  0.00     0.049 A 
HETATM   22 CL   UNL     1      -0.624   6.957 -33.698  1.00  0.00    -0.083 Cl
HETATM   23  C   UNL     1      -2.519   5.072 -33.776  1.00  0.00     0.027 A 
HETATM   24  C   UNL     1      -3.296   4.032 -33.260  1.00  0.00     0.031 A 
BRANCH  20  25
HETATM   25  C   UNL     1      -0.289   5.895 -30.796  1.00  0.00     0.419 C 
HETATM   26  F   UNL     1      -0.281   5.416 -29.518  1.00  0.00    -0.166 F 
HETATM   27  F   UNL     1       0.978   5.700 -31.257  1.00  0.00    -0.166 F 
HETATM   28  F   UNL     1      -0.449   7.242 -30.671  1.00  0.00    -0.166 F 
ENDBRANCH  20  25
ENDBRANCH   2  18
TORSDOF 4
ENDMDL
MODEL 9
REMARK VINA RESULT:      -8.5      4.891      6.604
REMARK  4 active torsions:
REMARK  status: ('A' for Active; 'I' for Inactive)
REMARK    1  A    between atoms: C_9  and  C_10 
REMARK    2  A    between atoms: C_10  and  C_11 
REMARK       I    between atoms: C_11  and  N_12 
REMARK    3  A    between atoms: N_12  and  C_13 
REMARK    4  A    between atoms: C_15  and  C_16 
ROOT
HETATM    1  C   UNL     1      -7.283   1.137 -33.993  1.00  0.00     0.227 C 
HETATM    2  N   UNL     1      -7.242  -0.079 -33.355  1.00  0.00    -0.327 N 
HETATM    3  O   UNL     1      -6.523   1.486 -34.897  1.00  0.00    -0.273 OA
HETATM    4  H   UNL     1      -7.952  -0.218 -32.634  1.00  0.00     0.169 HD
ENDROOT
BRANCH   1   5
HETATM    5  C   UNL     1      -8.361   2.109 -33.550  1.00  0.00     0.165 C 
BRANCH   5   6
HETATM    6  C   UNL     1      -9.836   1.752 -33.608  1.00  0.00     0.074 A 
HETATM    7  C   UNL     1     -10.769   2.730 -34.234  1.00  0.00     0.006 A 
HETATM    8  C   UNL     1     -10.350   3.949 -34.783  1.00  0.00     0.014 A 
HETATM    9  C   UNL     1     -12.121   2.395 -34.270  1.00  0.00     0.046 A 
HETATM   10  C   UNL     1     -11.285   4.820 -35.349  1.00  0.00     0.001 A 
HETATM   11  C   UNL     1     -12.638   4.482 -35.376  1.00  0.00     0.001 A 
HETATM   12  C   UNL     1     -13.058   3.267 -34.837  1.00  0.00     0.018 A 
HETATM   13  C   UNL     1     -12.554   1.107 -33.710  1.00  0.00     0.272 A 
HETATM   14  O   UNL     1     -13.731   0.766 -33.715  1.00  0.00    -0.266 OA
HETATM   15  N   UNL     1     -11.564   0.311 -33.188  1.00  0.00    -0.243 N 
HETATM   16  N   UNL     1     -10.239   0.611 -33.130  1.00  0.00    -0.175 NA
HETATM   17  H   UNL     1     -11.858  -0.582 -32.804  1.00  0.00     0.192 HD
ENDBRANCH   5   6
ENDBRANCH   1   5
BRANCH   2  18
HETATM   18  C   UNL     1      -6.347  -1.146 -33.557  1.00  0.00     0.035 A 
HETATM   19  C   UNL     1      -6.631  -2.275 -34.329  1.00  0.00     0.047 A 
HETATM   20  C   UNL     1      -5.683  -3.310 -34.496  1.00  0.00     0.071 A 
HETATM   21  C   UNL     1      -4.440  -3.188 -33.867  1.00  0.00     0.049 A 
HETATM   22 CL   UNL     1      -3.215  -4.395 -34.009  1.00  0.00    -0.083 Cl
HETATM   23  C   UNL     1      -4.148  -2.063 -33.093  1.00  0.00     0.027 A 
HETATM   24  C   UNL     1      -5.096  -1.048 -32.941  1.00  0.00     0.031 A 
BRANCH  20  25
HETATM   25  C   UNL     1      -6.023  -4.510 -35.336  1.00  0.00     0.419 C 
HETATM   26  F   UNL     1      -5.328  -5.632 -34.991  1.00  0.00    -0.166 F 
HETATM   27  F   UNL     1      -7.336  -4.864 -35.250  1.00  0.00    -0.166 F 
HETATM   28  F   UNL     1      -5.763  -4.322 -36.660  1.00  0.00    -0.166 F 
ENDBRANCH  20  25
ENDBRANCH   2  18
TORSDOF 4
ENDMDL
MODEL 10
REMARK VINA RESULT:      -8.5      5.854      7.870
REMARK  4 active torsions:
REMARK  status: ('A' for Active; 'I' for Inactive)
REMARK    1  A    between atoms: C_9  and  C_10 
REMARK    2  A    between atoms: C_10  and  C_11 
REMARK       I    between atoms: C_11  and  N_12 
REMARK    3  A    between atoms: N_12  and  C_13 
REMARK    4  A    between atoms: C_15  and  C_16 
ROOT
HETATM    1  C   UNL     1      -9.287   1.202 -34.208  1.00  0.00     0.227 C 
HETATM    2  N   UNL     1      -8.954  -0.015 -33.664  1.00  0.00    -0.327 N 
HETATM    3  O   UNL     1      -8.480   2.064 -34.558  1.00  0.00    -0.273 OA
HETATM    4  H   UNL     1      -9.743  -0.623 -33.439  1.00  0.00     0.169 HD
ENDROOT
BRANCH   1   5
HETATM    5  C   UNL     1     -10.765   1.486 -34.402  1.00  0.00     0.165 C 
BRANCH   5   6
HETATM    6  C   UNL     1     -11.580   2.240 -33.367  1.00  0.00     0.074 A 
HETATM    7  C   UNL     1     -13.050   2.003 -33.324  1.00  0.00     0.006 A 
HETATM    8  C   UNL     1     -13.710   1.110 -34.178  1.00  0.00     0.014 A 
HETATM    9  C   UNL     1     -13.787   2.711 -32.377  1.00  0.00     0.046 A 
HETATM   10  C   UNL     1     -15.094   0.943 -34.084  1.00  0.00     0.001 A 
HETATM   11  C   UNL     1     -15.827   1.660 -33.138  1.00  0.00     0.001 A 
HETATM   12  C   UNL     1     -15.174   2.545 -32.281  1.00  0.00     0.018 A 
HETATM   13  C   UNL     1     -13.089   3.633 -31.470  1.00  0.00     0.272 A 
HETATM   14  O   UNL     1     -13.691   4.280 -30.621  1.00  0.00    -0.266 OA
HETATM   15  N   UNL     1     -11.728   3.720 -31.627  1.00  0.00    -0.243 N 
HETATM   16  N   UNL     1     -10.980   3.052 -32.545  1.00  0.00    -0.175 NA
HETATM   17  H   UNL     1     -11.240   4.353 -31.000  1.00  0.00     0.192 HD
ENDBRANCH   5   6
ENDBRANCH   1   5
BRANCH   2  18
HETATM   18  C   UNL     1      -7.675  -0.522 -33.367  1.00  0.00     0.035 A 
HETATM   19  C   UNL     1      -7.025  -1.505 -34.117  1.00  0.00     0.047 A 
HETATM   20  C   UNL     1      -5.737  -1.967 -33.766  1.00  0.00     0.071 A 
HETATM   21  C   UNL     1      -5.112  -1.421 -32.640  1.00  0.00     0.049 A 
HETATM   22 CL   UNL     1      -3.540  -1.917 -32.128  1.00  0.00    -0.083 Cl
HETATM   23  C   UNL     1      -5.755  -0.439 -31.884  1.00  0.00     0.027 A 
HETATM   24  C   UNL     1      -7.028   0.008 -32.247  1.00  0.00     0.031 A 
BRANCH  20  25
HETATM   25  C   UNL     1      -5.067  -3.025 -34.599  1.00  0.00     0.419 C 
HETATM   26  F   UNL     1      -3.878  -2.623 -35.136  1.00  0.00    -0.166 F 
HETATM   27  F   UNL     1      -4.775  -4.152 -33.892  1.00  0.00    -0.166 F 
HETATM   28  F   UNL     1      -5.822  -3.423 -35.661  1.00  0.00    -0.166 F 
ENDBRANCH  20  25
ENDBRANCH   2  18
TORSDOF 4
ENDMDL
