MODEL 1
REMARK VINA RESULT:      -8.1      0.000      0.000
REMARK  6 active torsions:
REMARK  status: ('A' for Active; 'I' for Inactive)
REMARK    1  A    between atoms: C_2  and  C_3 
REMARK    2  A    between atoms: C_3  and  O_4 
REMARK    3  A    between atoms: C_3  and  C_12 
REMARK    4  A    between atoms: O_4  and  C_5 
REMARK    5  A    between atoms: C_12  and  N_13 
REMARK       I    between atoms: N_13  and  C_14 
REMARK       I    between atoms: C_14  and  N_15 
REMARK    6  A    between atoms: N_15  and  C_16 
ROOT
HETATM    1  N   UNL     1      -3.584   0.651 -32.642  1.00  0.00    -0.340 N 
HETATM    2  C   UNL     1      -4.345  -0.501 -32.624  1.00  0.00     0.320 C 
HETATM    3  N   UNL     1      -4.210  -1.201 -33.804  1.00  0.00    -0.307 N 
HETATM    4  O   UNL     1      -5.042  -0.816 -31.671  1.00  0.00    -0.247 OA
HETATM    5  H   UNL     1      -2.961   0.807 -33.417  1.00  0.00     0.164 HD
HETATM    6  H   UNL     1      -3.590  -0.796 -34.484  1.00  0.00     0.170 HD
ENDROOT
BRANCH   1   7
HETATM    7  C   UNL     1      -3.355   1.430 -31.430  1.00  0.00     0.156 C 
BRANCH   7   8
HETATM    8  C   UNL     1      -3.540   2.943 -31.692  1.00  0.00     0.146 C 
BRANCH   8   9
HETATM    9  C   UNL     1      -4.558   3.576 -30.732  1.00  0.00     0.029 C 
HETATM   10  C   UNL     1      -5.520   2.577 -30.111  1.00  0.00     0.007 C 
ENDBRANCH   8   9
BRANCH   8  11
HETATM   11  O   UNL     1      -2.267   3.570 -31.477  1.00  0.00    -0.343 OA
BRANCH  11  12
HETATM   12  C   UNL     1      -1.908   4.691 -32.173  1.00  0.00     0.091 A 
HETATM   13  C   UNL     1      -0.914   5.496 -31.591  1.00  0.00     0.067 A 
HETATM   14 CL   UNL     1      -0.225   5.108 -30.051  1.00  0.00    -0.081 Cl
HETATM   15  C   UNL     1      -0.460   6.652 -32.232  1.00  0.00     0.026 A 
HETATM   16  C   UNL     1      -0.986   7.013 -33.470  1.00  0.00     0.002 A 
HETATM   17  C   UNL     1      -1.967   6.221 -34.060  1.00  0.00     0.003 A 
HETATM   18  C   UNL     1      -2.427   5.065 -33.416  1.00  0.00     0.038 A 
ENDBRANCH  11  12
ENDBRANCH   8  11
ENDBRANCH   7   8
ENDBRANCH   1   7
BRANCH   3  19
HETATM   19  C   UNL     1      -4.802  -2.440 -34.140  1.00  0.00     0.059 A 
HETATM   20  C   UNL     1      -6.122  -2.459 -34.634  1.00  0.00    -0.032 A 
HETATM   21  C   UNL     1      -6.931  -1.206 -34.831  1.00  0.00     0.050 C 
HETATM   22  C   UNL     1      -6.703  -3.690 -34.967  1.00  0.00     0.028 A 
HETATM   23  C   UNL     1      -5.967  -4.851 -34.800  1.00  0.00     0.117 A 
HETATM   24  N   UNL     1      -4.707  -4.870 -34.331  1.00  0.00    -0.271 NA
HETATM   25  C   UNL     1      -4.153  -3.670 -34.016  1.00  0.00     0.146 A 
ENDBRANCH   3  19
TORSDOF 6
ENDMDL
MODEL 2
REMARK VINA RESULT:      -7.9      2.538      8.086
REMARK  6 active torsions:
REMARK  status: ('A' for Active; 'I' for Inactive)
REMARK    1  A    between atoms: C_2  and  C_3 
REMARK    2  A    between atoms: C_3  and  O_4 
REMARK    3  A    between atoms: C_3  and  C_12 
REMARK    4  A    between atoms: O_4  and  C_5 
REMARK    5  A    between atoms: C_12  and  N_13 
REMARK       I    between atoms: N_13  and  C_14 
REMARK       I    between atoms: C_14  and  N_15 
REMARK    6  A    between atoms: N_15  and  C_16 
ROOT
HETATM    1  N   UNL     1      -4.536   1.877 -32.712  1.00  0.00    -0.340 N 
HETATM    2  C   UNL     1      -4.090   3.090 -32.227  1.00  0.00     0.320 C 
HETATM    3  N   UNL     1      -2.846   3.398 -32.736  1.00  0.00    -0.307 N 
HETATM    4  O   UNL     1      -4.740   3.767 -31.444  1.00  0.00    -0.247 OA
HETATM    5  H   UNL     1      -3.998   1.412 -33.424  1.00  0.00     0.164 HD
HETATM    6  H   UNL     1      -2.456   2.726 -33.373  1.00  0.00     0.170 HD
ENDROOT
BRANCH   1   7
HETATM    7  C   UNL     1      -5.918   1.447 -32.529  1.00  0.00     0.156 C 
BRANCH   7   8
HETATM    8  C   UNL     1      -6.108  -0.029 -32.950  1.00  0.00     0.146 C 
BRANCH   8   9
HETATM    9  C   UNL     1      -7.276  -0.204 -33.932  1.00  0.00     0.029 C 
HETATM   10  C   UNL     1      -7.023   0.401 -35.302  1.00  0.00     0.007 C 
ENDBRANCH   8   9
BRANCH   8  11
HETATM   11  O   UNL     1      -4.901  -0.442 -33.606  1.00  0.00    -0.343 OA
BRANCH  11  12
HETATM   12  C   UNL     1      -4.430  -1.720 -33.475  1.00  0.00     0.091 A 
HETATM   13  C   UNL     1      -3.610  -1.973 -32.362  1.00  0.00     0.067 A 
HETATM   14 CL   UNL     1      -3.182  -0.716 -31.252  1.00  0.00    -0.081 Cl
HETATM   15  C   UNL     1      -3.097  -3.251 -32.124  1.00  0.00     0.026 A 
HETATM   16  C   UNL     1      -3.405  -4.297 -32.991  1.00  0.00     0.002 A 
HETATM   17  C   UNL     1      -4.222  -4.061 -34.093  1.00  0.00     0.003 A 
HETATM   18  C   UNL     1      -4.733  -2.780 -34.336  1.00  0.00     0.038 A 
ENDBRANCH  11  12
ENDBRANCH   8  11
ENDBRANCH   7   8
ENDBRANCH   1   7
BRANCH   3  19
HETATM   19  C   UNL     1      -2.087   4.568 -32.501  1.00  0.00     0.059 A 
HETATM   20  C   UNL     1      -1.803   5.430 -33.579  1.00  0.00    -0.032 A 
HETATM   21  C   UNL     1      -2.284   5.163 -34.979  1.00  0.00     0.050 C 
HETATM   22  C   UNL     1      -1.052   6.589 -33.338  1.00  0.00     0.028 A 
HETATM   23  C   UNL     1      -0.610   6.853 -32.053  1.00  0.00     0.117 A 
HETATM   24  N   UNL     1      -0.863   6.053 -31.003  1.00  0.00    -0.271 NA
HETATM   25  C   UNL     1      -1.596   4.935 -31.247  1.00  0.00     0.146 A 
ENDBRANCH   3  19
TORSDOF 6
ENDMDL
MODEL 3
REMARK VINA RESULT:      -7.7      2.889      8.137
REMARK  6 active torsions:
REMARK  status: ('A' for Active; 'I' for Inactive)
REMARK    1  A    between atoms: C_2  and  C_3 
REMARK    2  A    between atoms: C_3  and  O_4 
REMARK    3  A    between atoms: C_3  and  C_12 
REMARK    4  A    between atoms: O_4  and  C_5 
REMARK    5  A    between atoms: C_12  and  N_13 
REMARK       I    between atoms: N_13  and  C_14 
REMARK       I    between atoms: C_14  and  N_15 
REMARK    6  A    between atoms: N_15  and  C_16 
ROOT
HETATM    1  N   UNL     1      -6.220   1.717 -32.582  1.00  0.00    -0.340 N 
HETATM    2  C   UNL     1      -4.874   2.020 -32.577  1.00  0.00     0.320 C 
HETATM    3  N   UNL     1      -4.674   3.381 -32.670  1.00  0.00    -0.307 N 
HETATM    4  O   UNL     1      -4.005   1.164 -32.507  1.00  0.00    -0.247 OA
HETATM    5  H   UNL     1      -6.887   2.470 -32.548  1.00  0.00     0.164 HD
HETATM    6  H   UNL     1      -5.506   3.943 -32.716  1.00  0.00     0.170 HD
ENDROOT
BRANCH   1   7
HETATM    7  C   UNL     1      -6.700   0.381 -32.242  1.00  0.00     0.156 C 
BRANCH   7   8
HETATM    8  C   UNL     1      -7.139  -0.396 -33.504  1.00  0.00     0.146 C 
BRANCH   8   9
HETATM    9  C   UNL     1      -7.855   0.507 -34.520  1.00  0.00     0.029 C 
HETATM   10  C   UNL     1      -9.323   0.743 -34.204  1.00  0.00     0.007 C 
ENDBRANCH   8   9
BRANCH   8  11
HETATM   11  O   UNL     1      -5.951  -0.913 -34.120  1.00  0.00    -0.343 OA
BRANCH  11  12
HETATM   12  C   UNL     1      -5.803  -2.253 -34.351  1.00  0.00     0.091 A 
HETATM   13  C   UNL     1      -4.629  -2.846 -33.857  1.00  0.00     0.067 A 
HETATM   14 CL   UNL     1      -3.417  -1.912 -33.048  1.00  0.00    -0.081 Cl
HETATM   15  C   UNL     1      -4.393  -4.214 -34.019  1.00  0.00     0.026 A 
HETATM   16  C   UNL     1      -5.333  -5.010 -34.669  1.00  0.00     0.002 A 
HETATM   17  C   UNL     1      -6.503  -4.436 -35.157  1.00  0.00     0.003 A 
HETATM   18  C   UNL     1      -6.739  -3.065 -35.000  1.00  0.00     0.038 A 
ENDBRANCH  11  12
ENDBRANCH   8  11
ENDBRANCH   7   8
ENDBRANCH   1   7
BRANCH   3  19
HETATM   19  C   UNL     1      -3.440   4.071 -32.657  1.00  0.00     0.059 A 
HETATM   20  C   UNL     1      -3.099   4.890 -33.752  1.00  0.00    -0.032 A 
HETATM   21  C   UNL     1      -4.005   5.073 -34.940  1.00  0.00     0.050 C 
HETATM   22  C   UNL     1      -1.875   5.573 -33.732  1.00  0.00     0.028 A 
HETATM   23  C   UNL     1      -1.035   5.421 -32.642  1.00  0.00     0.117 A 
HETATM   24  N   UNL     1      -1.328   4.648 -31.582  1.00  0.00    -0.271 NA
HETATM   25  C   UNL     1      -2.520   3.996 -31.610  1.00  0.00     0.146 A 
ENDBRANCH   3  19
TORSDOF 6
ENDMDL
MODEL 4
REMARK VINA RESULT:      -7.6      3.205      8.447
REMARK  6 active torsions:
REMARK  status: ('A' for Active; 'I' for Inactive)
REMARK    1  A    between atoms: C_2  and  C_3 
REMARK    2  A    between atoms: C_3  and  O_4 
REMARK    3  A    between atoms: C_3  and  C_12 
REMARK    4  A    between atoms: O_4  and  C_5 
REMARK    5  A    between atoms: C_12  and  N_13 
REMARK       I    between atoms: N_13  and  C_14 
REMARK       I    between atoms: C_14  and  N_15 
REMARK    6  A    between atoms: N_15  and  C_16 
ROOT
HETATM    1  N   UNL     1      -4.743   2.184 -32.589  1.00  0.00    -0.340 N 
HETATM    2  C   UNL     1      -3.664   2.918 -32.139  1.00  0.00     0.320 C 
HETATM    3  N   UNL     1      -3.654   4.176 -32.702  1.00  0.00    -0.307 N 
HETATM    4  O   UNL     1      -2.843   2.469 -31.353  1.00  0.00    -0.247 OA
HETATM    5  H   UNL     1      -5.433   2.639 -33.163  1.00  0.00     0.164 HD
HETATM    6  H   UNL     1      -4.412   4.381 -33.329  1.00  0.00     0.170 HD
ENDROOT
BRANCH   1   7
HETATM    7  C   UNL     1      -5.121   0.923 -31.959  1.00  0.00     0.156 C 
BRANCH   7   8
HETATM    8  C   UNL     1      -5.872   0.003 -32.949  1.00  0.00     0.146 C 
BRANCH   8   9
HETATM    9  C   UNL     1      -6.789   0.796 -33.893  1.00  0.00     0.029 C 
HETATM   10  C   UNL     1      -6.999   0.135 -35.245  1.00  0.00     0.007 C 
ENDBRANCH   8   9
BRANCH   8  11
HETATM   11  O   UNL     1      -4.882  -0.668 -33.741  1.00  0.00    -0.343 OA
BRANCH  11  12
HETATM   12  C   UNL     1      -4.303  -1.829 -33.309  1.00  0.00     0.091 A 
HETATM   13  C   UNL     1      -4.540  -2.974 -34.090  1.00  0.00     0.067 A 
HETATM   14 CL   UNL     1      -5.553  -2.916 -35.491  1.00  0.00    -0.081 Cl
HETATM   15  C   UNL     1      -3.976  -4.206 -33.747  1.00  0.00     0.026 A 
HETATM   16  C   UNL     1      -3.158  -4.309 -32.624  1.00  0.00     0.002 A 
HETATM   17  C   UNL     1      -2.911  -3.181 -31.846  1.00  0.00     0.003 A 
HETATM   18  C   UNL     1      -3.479  -1.947 -32.185  1.00  0.00     0.038 A 
ENDBRANCH  11  12
ENDBRANCH   8  11
ENDBRANCH   7   8
ENDBRANCH   1   7
BRANCH   3  19
HETATM   19  C   UNL     1      -2.732   5.219 -32.455  1.00  0.00     0.059 A 
HETATM   20  C   UNL     1      -1.874   5.637 -33.493  1.00  0.00    -0.032 A 
HETATM   21  C   UNL     1      -1.905   5.023 -34.866  1.00  0.00     0.050 C 
HETATM   22  C   UNL     1      -0.964   6.673 -33.244  1.00  0.00     0.028 A 
HETATM   23  C   UNL     1      -0.929   7.254 -31.988  1.00  0.00     0.117 A 
HETATM   24  N   UNL     1      -1.731   6.880 -30.975  1.00  0.00    -0.271 NA
HETATM   25  C   UNL     1      -2.614   5.879 -31.231  1.00  0.00     0.146 A 
ENDBRANCH   3  19
TORSDOF 6
ENDMDL
MODEL 5
REMARK VINA RESULT:      -7.6      1.701      2.066
REMARK  6 active torsions:
REMARK  status: ('A' for Active; 'I' for Inactive)
REMARK    1  A    between atoms: C_2  and  C_3 
REMARK    2  A    between atoms: C_3  and  O_4 
REMARK    3  A    between atoms: C_3  and  C_12 
REMARK    4  A    between atoms: O_4  and  C_5 
REMARK    5  A    between atoms: C_12  and  N_13 
REMARK       I    between atoms: N_13  and  C_14 
REMARK       I    between atoms: C_14  and  N_15 
REMARK    6  A    between atoms: N_15  and  C_16 
ROOT
HETATM    1  N   UNL     1      -3.776   0.821 -32.559  1.00  0.00    -0.340 N 
HETATM    2  C   UNL     1      -4.492  -0.360 -32.565  1.00  0.00     0.320 C 
HETATM    3  N   UNL     1      -4.274  -1.063 -33.730  1.00  0.00    -0.307 N 
HETATM    4  O   UNL     1      -5.219  -0.695 -31.641  1.00  0.00    -0.247 OA
HETATM    5  H   UNL     1      -3.125   0.996 -33.306  1.00  0.00     0.164 HD
HETATM    6  H   UNL     1      -3.640  -0.640 -34.385  1.00  0.00     0.170 HD
ENDROOT
BRANCH   1   7
HETATM    7  C   UNL     1      -3.635   1.618 -31.345  1.00  0.00     0.156 C 
BRANCH   7   8
HETATM    8  C   UNL     1      -4.668   2.767 -31.305  1.00  0.00     0.146 C 
BRANCH   8   9
HETATM    9  C   UNL     1      -5.507   2.746 -30.019  1.00  0.00     0.029 C 
HETATM   10  C   UNL     1      -6.952   2.330 -30.234  1.00  0.00     0.007 C 
ENDBRANCH   8   9
BRANCH   8  11
HETATM   11  O   UNL     1      -3.934   4.000 -31.345  1.00  0.00    -0.343 OA
BRANCH  11  12
HETATM   12  C   UNL     1      -3.344   4.431 -32.501  1.00  0.00     0.091 A 
HETATM   13  C   UNL     1      -4.210   4.812 -33.540  1.00  0.00     0.067 A 
HETATM   14 CL   UNL     1      -5.928   4.688 -33.375  1.00  0.00    -0.081 Cl
HETATM   15  C   UNL     1      -3.707   5.288 -34.755  1.00  0.00     0.026 A 
HETATM   16  C   UNL     1      -2.332   5.400 -34.942  1.00  0.00     0.002 A 
HETATM   17  C   UNL     1      -1.464   5.033 -33.918  1.00  0.00     0.003 A 
HETATM   18  C   UNL     1      -1.965   4.550 -32.703  1.00  0.00     0.038 A 
ENDBRANCH  11  12
ENDBRANCH   8  11
ENDBRANCH   7   8
ENDBRANCH   1   7
BRANCH   3  19
HETATM   19  C   UNL     1      -4.801  -2.328 -34.081  1.00  0.00     0.059 A 
HETATM   20  C   UNL     1      -6.100  -2.404 -34.624  1.00  0.00    -0.032 A 
HETATM   21  C   UNL     1      -6.953  -1.187 -34.858  1.00  0.00     0.050 C 
HETATM   22  C   UNL     1      -6.615  -3.660 -34.972  1.00  0.00     0.028 A 
HETATM   23  C   UNL     1      -5.839  -4.788 -34.770  1.00  0.00     0.117 A 
HETATM   24  N   UNL     1      -4.598  -4.752 -34.254  1.00  0.00    -0.271 NA
HETATM   25  C   UNL     1      -4.107  -3.529 -33.926  1.00  0.00     0.146 A 
ENDBRANCH   3  19
TORSDOF 6
ENDMDL
MODEL 6
REMARK VINA RESULT:      -7.3      2.299      4.295
REMARK  6 active torsions:
REMARK  status: ('A' for Active; 'I' for Inactive)
REMARK    1  A    between atoms: C_2  and  C_3 
REMARK    2  A    between atoms: C_3  and  O_4 
REMARK    3  A    between atoms: C_3  and  C_12 
REMARK    4  A    between atoms: O_4  and  C_5 
REMARK    5  A    between atoms: C_12  and  N_13 
REMARK       I    between atoms: N_13  and  C_14 
REMARK       I    between atoms: C_14  and  N_15 
REMARK    6  A    between atoms: N_15  and  C_16 
ROOT
HETATM    1  N   UNL     1      -3.782   0.889 -32.585  1.00  0.00    -0.340 N 
HETATM    2  C   UNL     1      -4.431  -0.329 -32.545  1.00  0.00     0.320 C 
HETATM    3  N   UNL     1      -4.351  -0.971 -33.763  1.00  0.00    -0.307 N 
HETATM    4  O   UNL     1      -4.997  -0.742 -31.544  1.00  0.00    -0.247 OA
HETATM    5  H   UNL     1      -3.257   1.131 -33.409  1.00  0.00     0.164 HD
HETATM    6  H   UNL     1      -3.842  -0.486 -34.481  1.00  0.00     0.170 HD
ENDROOT
BRANCH   1   7
HETATM    7  C   UNL     1      -3.504   1.642 -31.367  1.00  0.00     0.156 C 
BRANCH   7   8
HETATM    8  C   UNL     1      -3.711   3.159 -31.586  1.00  0.00     0.146 C 
BRANCH   8   9
HETATM    9  C   UNL     1      -2.591   3.779 -32.435  1.00  0.00     0.029 C 
HETATM   10  C   UNL     1      -1.757   4.810 -31.695  1.00  0.00     0.007 C 
ENDBRANCH   8   9
BRANCH   8  11
HETATM   11  O   UNL     1      -4.952   3.322 -32.286  1.00  0.00    -0.343 OA
BRANCH  11  12
HETATM   12  C   UNL     1      -6.145   3.305 -31.618  1.00  0.00     0.091 A 
HETATM   13  C   UNL     1      -7.249   2.795 -32.323  1.00  0.00     0.067 A 
HETATM   14 CL   UNL     1      -7.106   2.269 -33.966  1.00  0.00    -0.081 Cl
HETATM   15  C   UNL     1      -8.509   2.713 -31.723  1.00  0.00     0.026 A 
HETATM   16  C   UNL     1      -8.680   3.130 -30.405  1.00  0.00     0.002 A 
HETATM   17  C   UNL     1      -7.593   3.630 -29.694  1.00  0.00     0.003 A 
HETATM   18  C   UNL     1      -6.332   3.719 -30.295  1.00  0.00     0.038 A 
ENDBRANCH  11  12
ENDBRANCH   8  11
ENDBRANCH   7   8
ENDBRANCH   1   7
BRANCH   3  19
HETATM   19  C   UNL     1      -4.861  -2.248 -34.095  1.00  0.00     0.059 A 
HETATM   20  C   UNL     1      -6.177  -2.355 -34.586  1.00  0.00    -0.032 A 
HETATM   21  C   UNL     1      -7.069  -1.160 -34.784  1.00  0.00     0.050 C 
HETATM   22  C   UNL     1      -6.675  -3.623 -34.916  1.00  0.00     0.028 A 
HETATM   23  C   UNL     1      -5.863  -4.732 -34.748  1.00  0.00     0.117 A 
HETATM   24  N   UNL     1      -4.604  -4.666 -34.281  1.00  0.00    -0.271 NA
HETATM   25  C   UNL     1      -4.131  -3.431 -33.971  1.00  0.00     0.146 A 
ENDBRANCH   3  19
TORSDOF 6
ENDMDL
MODEL 7
REMARK VINA RESULT:      -7.2      2.099      2.715
REMARK  6 active torsions:
REMARK  status: ('A' for Active; 'I' for Inactive)
REMARK    1  A    between atoms: C_2  and  C_3 
REMARK    2  A    between atoms: C_3  and  O_4 
REMARK    3  A    between atoms: C_3  and  C_12 
REMARK    4  A    between atoms: O_4  and  C_5 
REMARK    5  A    between atoms: C_12  and  N_13 
REMARK       I    between atoms: N_13  and  C_14 
REMARK       I    between atoms: C_14  and  N_15 
REMARK    6  A    between atoms: N_15  and  C_16 
ROOT
HETATM    1  N   UNL     1      -6.336   1.196 -33.775  1.00  0.00    -0.340 N 
HETATM    2  C   UNL     1      -6.064  -0.009 -33.157  1.00  0.00     0.320 C 
HETATM    3  N   UNL     1      -4.937  -0.595 -33.694  1.00  0.00    -0.307 N 
HETATM    4  O   UNL     1      -6.761  -0.464 -32.263  1.00  0.00    -0.247 OA
HETATM    5  H   UNL     1      -5.673   1.560 -34.439  1.00  0.00     0.164 HD
HETATM    6  H   UNL     1      -4.481  -0.078 -34.425  1.00  0.00     0.170 HD
ENDROOT
BRANCH   1   7
HETATM    7  C   UNL     1      -7.317   2.127 -33.227  1.00  0.00     0.156 C 
BRANCH   7   8
HETATM    8  C   UNL     1      -6.628   3.332 -32.546  1.00  0.00     0.146 C 
BRANCH   8   9
HETATM    9  C   UNL     1      -7.048   3.485 -31.077  1.00  0.00     0.029 C 
HETATM   10  C   UNL     1      -6.204   2.673 -30.109  1.00  0.00     0.007 C 
ENDBRANCH   8   9
BRANCH   8  11
HETATM   11  O   UNL     1      -5.214   3.094 -32.589  1.00  0.00    -0.343 OA
BRANCH  11  12
HETATM   12  C   UNL     1      -4.386   3.899 -33.321  1.00  0.00     0.091 A 
HETATM   13  C   UNL     1      -3.079   4.062 -32.830  1.00  0.00     0.067 A 
HETATM   14 CL   UNL     1      -2.571   3.322 -31.350  1.00  0.00    -0.081 Cl
HETATM   15  C   UNL     1      -2.147   4.846 -33.516  1.00  0.00     0.026 A 
HETATM   16  C   UNL     1      -2.506   5.470 -34.709  1.00  0.00     0.002 A 
HETATM   17  C   UNL     1      -3.796   5.311 -35.209  1.00  0.00     0.003 A 
HETATM   18  C   UNL     1      -4.732   4.530 -34.520  1.00  0.00     0.038 A 
ENDBRANCH  11  12
ENDBRANCH   8  11
ENDBRANCH   7   8
ENDBRANCH   1   7
BRANCH   3  19
HETATM   19  C   UNL     1      -4.329  -1.808 -33.297  1.00  0.00     0.059 A 
HETATM   20  C   UNL     1      -4.559  -2.972 -34.058  1.00  0.00    -0.032 A 
HETATM   21  C   UNL     1      -5.421  -2.977 -35.290  1.00  0.00     0.050 C 
HETATM   22  C   UNL     1      -3.951  -4.171 -33.661  1.00  0.00     0.028 A 
HETATM   23  C   UNL     1      -3.147  -4.180 -32.534  1.00  0.00     0.117 A 
HETATM   24  N   UNL     1      -2.908  -3.090 -31.785  1.00  0.00    -0.271 NA
HETATM   25  C   UNL     1      -3.498  -1.932 -32.183  1.00  0.00     0.146 A 
ENDBRANCH   3  19
TORSDOF 6
ENDMDL
MODEL 8
REMARK VINA RESULT:      -7.2      3.332      8.910
REMARK  6 active torsions:
REMARK  status: ('A' for Active; 'I' for Inactive)
REMARK    1  A    between atoms: C_2  and  C_3 
REMARK    2  A    between atoms: C_3  and  O_4 
REMARK    3  A    between atoms: C_3  and  C_12 
REMARK    4  A    between atoms: O_4  and  C_5 
REMARK    5  A    between atoms: C_12  and  N_13 
REMARK       I    between atoms: N_13  and  C_14 
REMARK       I    between atoms: C_14  and  N_15 
REMARK    6  A    between atoms: N_15  and  C_16 
ROOT
HETATM    1  N   UNL     1      -3.508   2.433 -31.465  1.00  0.00    -0.340 N 
HETATM    2  C   UNL     1      -3.050   3.617 -32.007  1.00  0.00     0.320 C 
HETATM    3  N   UNL     1      -3.078   4.630 -31.072  1.00  0.00    -0.307 N 
HETATM    4  O   UNL     1      -2.687   3.714 -33.169  1.00  0.00    -0.247 OA
HETATM    5  H   UNL     1      -3.705   2.395 -30.478  1.00  0.00     0.164 HD
HETATM    6  H   UNL     1      -3.405   4.373 -30.157  1.00  0.00     0.170 HD
ENDROOT
BRANCH   1   7
HETATM    7  C   UNL     1      -3.343   1.163 -32.164  1.00  0.00     0.156 C 
BRANCH   7   8
HETATM    8  C   UNL     1      -4.374   0.117 -31.681  1.00  0.00     0.146 C 
BRANCH   8   9
HETATM    9  C   UNL     1      -5.649   0.774 -31.130  1.00  0.00     0.029 C 
HETATM   10  C   UNL     1      -5.920   0.460 -29.669  1.00  0.00     0.007 C 
ENDBRANCH   8   9
BRANCH   8  11
HETATM   11  O   UNL     1      -4.733  -0.683 -32.817  1.00  0.00    -0.343 OA
BRANCH  11  12
HETATM   12  C   UNL     1      -4.304  -1.976 -32.931  1.00  0.00     0.091 A 
HETATM   13  C   UNL     1      -4.831  -2.716 -34.003  1.00  0.00     0.067 A 
HETATM   14 CL   UNL     1      -5.998  -2.035 -35.084  1.00  0.00    -0.081 Cl
HETATM   15  C   UNL     1      -4.440  -4.040 -34.222  1.00  0.00     0.026 A 
HETATM   16  C   UNL     1      -3.508  -4.639 -33.377  1.00  0.00     0.002 A 
HETATM   17  C   UNL     1      -2.974  -3.915 -32.316  1.00  0.00     0.003 A 
HETATM   18  C   UNL     1      -3.369  -2.590 -32.092  1.00  0.00     0.038 A 
ENDBRANCH  11  12
ENDBRANCH   8  11
ENDBRANCH   7   8
ENDBRANCH   1   7
BRANCH   3  19
HETATM   19  C   UNL     1      -2.653   5.968 -31.244  1.00  0.00     0.059 A 
HETATM   20  C   UNL     1      -1.322   6.311 -30.930  1.00  0.00    -0.032 A 
HETATM   21  C   UNL     1      -0.323   5.306 -30.427  1.00  0.00     0.050 C 
HETATM   22  C   UNL     1      -0.907   7.639 -31.105  1.00  0.00     0.028 A 
HETATM   23  C   UNL     1      -1.812   8.574 -31.576  1.00  0.00     0.117 A 
HETATM   24  N   UNL     1      -3.088   8.281 -31.883  1.00  0.00    -0.271 NA
HETATM   25  C   UNL     1      -3.478   6.990 -31.716  1.00  0.00     0.146 A 
ENDBRANCH   3  19
TORSDOF 6
ENDMDL
MODEL 9
REMARK VINA RESULT:      -7.1      3.224      5.434
REMARK  6 active torsions:
REMARK  status: ('A' for Active; 'I' for Inactive)
REMARK    1  A    between atoms: C_2  and  C_3 
REMARK    2  A    between atoms: C_3  and  O_4 
REMARK    3  A    between atoms: C_3  and  C_12 
REMARK    4  A    between atoms: O_4  and  C_5 
REMARK    5  A    between atoms: C_12  and  N_13 
REMARK       I    between atoms: N_13  and  C_14 
REMARK       I    between atoms: C_14  and  N_15 
REMARK    6  A    between atoms: N_15  and  C_16 
ROOT
HETATM    1  N   UNL     1      -4.552   0.881 -32.648  1.00  0.00    -0.340 N 
HETATM    2  C   UNL     1      -5.064  -0.398 -32.742  1.00  0.00     0.320 C 
HETATM    3  N   UNL     1      -4.248  -1.200 -33.511  1.00  0.00    -0.307 N 
HETATM    4  O   UNL     1      -6.110  -0.731 -32.206  1.00  0.00    -0.247 OA
HETATM    5  H   UNL     1      -3.641   1.068 -33.033  1.00  0.00     0.164 HD
HETATM    6  H   UNL     1      -3.420  -0.763 -33.874  1.00  0.00     0.170 HD
ENDROOT
BRANCH   1   7
HETATM    7  C   UNL     1      -5.087   1.845 -31.692  1.00  0.00     0.156 C 
BRANCH   7   8
HETATM    8  C   UNL     1      -5.602   3.116 -32.405  1.00  0.00     0.146 C 
BRANCH   8   9
HETATM    9  C   UNL     1      -4.453   4.005 -32.903  1.00  0.00     0.029 C 
HETATM   10  C   UNL     1      -3.306   4.138 -31.917  1.00  0.00     0.007 C 
ENDBRANCH   8   9
BRANCH   8  11
HETATM   11  O   UNL     1      -6.366   2.686 -33.541  1.00  0.00    -0.343 OA
BRANCH  11  12
HETATM   12  C   UNL     1      -7.682   2.339 -33.414  1.00  0.00     0.091 A 
HETATM   13  C   UNL     1      -8.140   1.310 -34.255  1.00  0.00     0.067 A 
HETATM   14 CL   UNL     1      -7.100   0.566 -35.420  1.00  0.00    -0.081 Cl
HETATM   15  C   UNL     1      -9.464   0.864 -34.187  1.00  0.00     0.026 A 
HETATM   16  C   UNL     1     -10.344   1.434 -33.272  1.00  0.00     0.002 A 
HETATM   17  C   UNL     1      -9.901   2.449 -32.429  1.00  0.00     0.003 A 
HETATM   18  C   UNL     1      -8.577   2.901 -32.498  1.00  0.00     0.038 A 
ENDBRANCH  11  12
ENDBRANCH   8  11
ENDBRANCH   7   8
ENDBRANCH   1   7
BRANCH   3  19
HETATM   19  C   UNL     1      -4.421  -2.574 -33.801  1.00  0.00     0.059 A 
HETATM   20  C   UNL     1      -3.736  -3.531 -33.027  1.00  0.00    -0.032 A 
HETATM   21  C   UNL     1      -2.828  -3.153 -31.888  1.00  0.00     0.050 C 
HETATM   22  C   UNL     1      -3.914  -4.891 -33.318  1.00  0.00     0.028 A 
HETATM   23  C   UNL     1      -4.753  -5.254 -34.358  1.00  0.00     0.117 A 
HETATM   24  N   UNL     1      -5.421  -4.368 -35.116  1.00  0.00    -0.271 NA
HETATM   25  C   UNL     1      -5.245  -3.054 -34.821  1.00  0.00     0.146 A 
ENDBRANCH   3  19
TORSDOF 6
ENDMDL
MODEL 10
REMARK VINA RESULT:      -7.1      4.448      6.582
REMARK  6 active torsions:
REMARK  status: ('A' for Active; 'I' for Inactive)
REMARK    1  A    between atoms: C_2  and  C_3 
REMARK    2  A    between atoms: C_3  and  O_4 
REMARK    3  A    between atoms: C_3  and  C_12 
REMARK    4  A    between atoms: O_4  and  C_5 
REMARK    5  A    between atoms: C_12  and  N_13 
REMARK       I    between atoms: N_13  and  C_14 
REMARK       I    between atoms: C_14  and  N_15 
REMARK    6  A    between atoms: N_15  and  C_16 
ROOT
HETATM    1  N   UNL     1      -6.093   1.269 -32.927  1.00  0.00    -0.340 N 
HETATM    2  C   UNL     1      -5.838  -0.023 -32.514  1.00  0.00     0.320 C 
HETATM    3  N   UNL     1      -4.880  -0.615 -33.308  1.00  0.00    -0.307 N 
HETATM    4  O   UNL     1      -6.415  -0.539 -31.569  1.00  0.00    -0.247 OA
HETATM    5  H   UNL     1      -5.520   1.668 -33.652  1.00  0.00     0.164 HD
HETATM    6  H   UNL     1      -4.506  -0.042 -34.044  1.00  0.00     0.170 HD
ENDROOT
BRANCH   1   7
HETATM    7  C   UNL     1      -6.873   2.190 -32.107  1.00  0.00     0.156 C 
BRANCH   7   8
HETATM    8  C   UNL     1      -7.851   3.020 -32.970  1.00  0.00     0.146 C 
BRANCH   8   9
HETATM    9  C   UNL     1      -7.137   4.150 -33.728  1.00  0.00     0.029 C 
HETATM   10  C   UNL     1      -7.789   5.512 -33.558  1.00  0.00     0.007 C 
ENDBRANCH   8   9
BRANCH   8  11
HETATM   11  O   UNL     1      -8.431   2.129 -33.933  1.00  0.00    -0.343 OA
BRANCH  11  12
HETATM   12  C   UNL     1      -9.781   2.111 -34.152  1.00  0.00     0.091 A 
HETATM   13  C   UNL     1     -10.494   1.047 -33.573  1.00  0.00     0.067 A 
HETATM   14 CL   UNL     1      -9.690  -0.197 -32.678  1.00  0.00    -0.081 Cl
HETATM   15  C   UNL     1     -11.881   0.950 -33.718  1.00  0.00     0.026 A 
HETATM   16  C   UNL     1     -12.576   1.921 -34.435  1.00  0.00     0.002 A 
HETATM   17  C   UNL     1     -11.882   2.983 -35.007  1.00  0.00     0.003 A 
HETATM   18  C   UNL     1     -10.492   3.080 -34.868  1.00  0.00     0.038 A 
ENDBRANCH  11  12
ENDBRANCH   8  11
ENDBRANCH   7   8
ENDBRANCH   1   7
BRANCH   3  19
HETATM   19  C   UNL     1      -4.333  -1.913 -33.172  1.00  0.00     0.059 A 
HETATM   20  C   UNL     1      -4.694  -2.911 -34.100  1.00  0.00    -0.032 A 
HETATM   21  C   UNL     1      -5.634  -2.651 -35.245  1.00  0.00     0.050 C 
HETATM   22  C   UNL     1      -4.147  -4.194 -33.960  1.00  0.00     0.028 A 
HETATM   23  C   UNL     1      -3.273  -4.445 -32.917  1.00  0.00     0.117 A 
HETATM   24  N   UNL     1      -2.908  -3.518 -32.014  1.00  0.00    -0.271 NA
HETATM   25  C   UNL     1      -3.440  -2.277 -32.163  1.00  0.00     0.146 A 
ENDBRANCH   3  19
TORSDOF 6
ENDMDL
