MODEL 1
REMARK VINA RESULT:     -10.0      0.000      0.000
REMARK  4 active torsions:
REMARK  status: ('A' for Active; 'I' for Inactive)
REMARK    1  A    between atoms: C_7  and  C_8 
REMARK       I    between atoms: C_8  and  N_9 
REMARK    2  A    between atoms: N_9  and  N_10 
REMARK       I    between atoms: N_10  and  C_11 
REMARK    3  A    between atoms: C_11  and  C_12 
REMARK    4  A    between atoms: C_12  and  C_13 
ROOT
HETATM    1  C   UNL     1     -11.612   2.216 -34.374  1.00  0.00     0.273 C 
HETATM    2  N   UNL     1     -10.597   1.454 -33.822  1.00  0.00    -0.263 N 
HETATM    3  O   UNL     1     -11.457   2.859 -35.410  1.00  0.00    -0.266 OA
HETATM    4  H   UNL     1     -10.860   0.678 -33.215  1.00  0.00     0.190 HD
ENDROOT
BRANCH   2   5
HETATM    5  N   UNL     1      -9.449   1.218 -34.613  1.00  0.00    -0.267 N 
HETATM    6  C   UNL     1      -8.614   0.204 -34.192  1.00  0.00     0.240 C 
HETATM    7  O   UNL     1      -8.771  -0.345 -33.097  1.00  0.00    -0.272 OA
HETATM    8  H   UNL     1      -9.556   1.428 -35.607  1.00  0.00     0.190 HD
BRANCH   6   9
HETATM    9  C   UNL     1      -7.445  -0.163 -35.088  1.00  0.00     0.144 C 
BRANCH   9  10
HETATM   10  C   UNL     1      -6.213  -0.733 -34.414  1.00  0.00    -0.038 A 
HETATM   11  C   UNL     1      -5.866  -2.111 -34.490  1.00  0.00    -0.019 A 
HETATM   12  C   UNL     1      -4.706  -2.558 -33.806  1.00  0.00    -0.025 A 
HETATM   13  C   UNL     1      -6.610  -3.075 -35.209  1.00  0.00     0.013 A 
HETATM   14  C   UNL     1      -4.343  -3.915 -33.842  1.00  0.00     0.012 A 
HETATM   15  C   UNL     1      -3.916  -1.644 -33.094  1.00  0.00     0.012 A 
HETATM   16  C   UNL     1      -5.105  -4.841 -34.551  1.00  0.00     0.001 A 
HETATM   17  C   UNL     1      -6.235  -4.421 -35.238  1.00  0.00     0.001 A 
HETATM   18  C   UNL     1      -4.252  -0.295 -33.046  1.00  0.00     0.001 A 
HETATM   19  C   UNL     1      -5.390   0.158 -33.700  1.00  0.00     0.008 A 
ENDBRANCH   9  10
ENDBRANCH   6   9
ENDBRANCH   2   5
BRANCH   1  20
HETATM   20  C   UNL     1     -12.887   2.135 -33.660  1.00  0.00     0.068 A 
HETATM   21  C   UNL     1     -13.634   0.993 -33.379  1.00  0.00     0.022 A 
HETATM   22  C   UNL     1     -13.383  -0.451 -33.636  1.00  0.00     0.069 C 
HETATM   23  N   UNL     1     -14.771   1.393 -32.717  1.00  0.00    -0.358 N 
HETATM   24  H   UNL     1     -15.501   0.776 -32.389  1.00  0.00     0.166 HD
HETATM   25  C   UNL     1     -14.774   2.754 -32.531  1.00  0.00     0.043 A 
HETATM   26  C   UNL     1     -13.599   3.247 -33.095  1.00  0.00     0.008 A 
HETATM   27  C   UNL     1     -15.722   3.574 -31.907  1.00  0.00     0.030 A 
HETATM   28  C   UNL     1     -13.361   4.636 -33.032  1.00  0.00     0.015 A 
HETATM   29  C   UNL     1     -14.296   5.473 -32.414  1.00  0.00     0.001 A 
HETATM   30  C   UNL     1     -15.460   4.946 -31.860  1.00  0.00     0.002 A 
ENDBRANCH   1  20
TORSDOF 4
ENDMDL
MODEL 2
REMARK VINA RESULT:      -9.9      1.241      2.105
REMARK  4 active torsions:
REMARK  status: ('A' for Active; 'I' for Inactive)
REMARK    1  A    between atoms: C_7  and  C_8 
REMARK       I    between atoms: C_8  and  N_9 
REMARK    2  A    between atoms: N_9  and  N_10 
REMARK       I    between atoms: N_10  and  C_11 
REMARK    3  A    between atoms: C_11  and  C_12 
REMARK    4  A    between atoms: C_12  and  C_13 
ROOT
HETATM    1  C   UNL     1     -10.652   2.849 -33.823  1.00  0.00     0.273 C 
HETATM    2  N   UNL     1      -9.696   2.026 -33.254  1.00  0.00    -0.263 N 
HETATM    3  O   UNL     1     -10.519   3.324 -34.949  1.00  0.00    -0.266 OA
HETATM    4  H   UNL     1      -9.995   1.381 -32.524  1.00  0.00     0.190 HD
ENDROOT
BRANCH   2   5
HETATM    5  N   UNL     1      -8.674   1.528 -34.095  1.00  0.00    -0.267 N 
HETATM    6  C   UNL     1      -8.374   0.188 -33.967  1.00  0.00     0.240 C 
HETATM    7  O   UNL     1      -8.849  -0.491 -33.051  1.00  0.00    -0.272 OA
HETATM    8  H   UNL     1      -8.588   1.998 -34.999  1.00  0.00     0.190 HD
BRANCH   6   9
HETATM    9  C   UNL     1      -7.378  -0.408 -34.944  1.00  0.00     0.144 C 
BRANCH   9  10
HETATM   10  C   UNL     1      -6.093  -0.965 -34.364  1.00  0.00    -0.038 A 
HETATM   11  C   UNL     1      -5.746  -2.342 -34.451  1.00  0.00    -0.019 A 
HETATM   12  C   UNL     1      -4.533  -2.776 -33.857  1.00  0.00    -0.025 A 
HETATM   13  C   UNL     1      -6.541  -3.318 -35.097  1.00  0.00     0.013 A 
HETATM   14  C   UNL     1      -4.168  -4.132 -33.906  1.00  0.00     0.012 A 
HETATM   15  C   UNL     1      -3.693  -1.850 -33.221  1.00  0.00     0.012 A 
HETATM   16  C   UNL     1      -4.979  -5.070 -34.540  1.00  0.00     0.001 A 
HETATM   17  C   UNL     1      -6.162  -4.662 -35.140  1.00  0.00     0.001 A 
HETATM   18  C   UNL     1      -4.031  -0.502 -33.162  1.00  0.00     0.001 A 
HETATM   19  C   UNL     1      -5.220  -0.062 -33.729  1.00  0.00     0.008 A 
ENDBRANCH   9  10
ENDBRANCH   6   9
ENDBRANCH   2   5
BRANCH   1  20
HETATM   20  C   UNL     1     -11.847   3.045 -33.003  1.00  0.00     0.068 A 
HETATM   21  C   UNL     1     -11.983   3.851 -31.875  1.00  0.00     0.022 A 
HETATM   22  C   UNL     1     -11.041   4.779 -31.193  1.00  0.00     0.069 C 
HETATM   23  N   UNL     1     -13.270   3.706 -31.413  1.00  0.00    -0.358 N 
HETATM   24  H   UNL     1     -13.654   4.173 -30.603  1.00  0.00     0.166 HD
HETATM   25  C   UNL     1     -13.986   2.855 -32.219  1.00  0.00     0.043 A 
HETATM   26  C   UNL     1     -13.128   2.437 -33.235  1.00  0.00     0.008 A 
HETATM   27  C   UNL     1     -15.317   2.434 -32.125  1.00  0.00     0.030 A 
HETATM   28  C   UNL     1     -13.631   1.547 -34.208  1.00  0.00     0.015 A 
HETATM   29  C   UNL     1     -14.959   1.113 -34.131  1.00  0.00     0.001 A 
HETATM   30  C   UNL     1     -15.788   1.552 -33.101  1.00  0.00     0.002 A 
ENDBRANCH   1  20
TORSDOF 4
ENDMDL
MODEL 3
REMARK VINA RESULT:      -9.7      1.491      3.085
REMARK  4 active torsions:
REMARK  status: ('A' for Active; 'I' for Inactive)
REMARK    1  A    between atoms: C_7  and  C_8 
REMARK       I    between atoms: C_8  and  N_9 
REMARK    2  A    between atoms: N_9  and  N_10 
REMARK       I    between atoms: N_10  and  C_11 
REMARK    3  A    between atoms: C_11  and  C_12 
REMARK    4  A    between atoms: C_12  and  C_13 
ROOT
HETATM    1  C   UNL     1     -10.013   2.271 -33.810  1.00  0.00     0.273 C 
HETATM    2  N   UNL     1      -9.698   0.924 -33.846  1.00  0.00    -0.263 N 
HETATM    3  O   UNL     1      -9.294   3.125 -34.327  1.00  0.00    -0.266 OA
HETATM    4  H   UNL     1     -10.460   0.254 -33.752  1.00  0.00     0.190 HD
ENDROOT
BRANCH   2   5
HETATM    5  N   UNL     1      -8.661   0.516 -34.717  1.00  0.00    -0.267 N 
HETATM    6  C   UNL     1      -7.594  -0.136 -34.134  1.00  0.00     0.240 C 
HETATM    7  O   UNL     1      -7.474  -0.201 -32.907  1.00  0.00    -0.272 OA
HETATM    8  H   UNL     1      -8.957   0.286 -35.667  1.00  0.00     0.190 HD
BRANCH   6   9
HETATM    9  C   UNL     1      -6.529  -0.704 -35.053  1.00  0.00     0.144 C 
BRANCH   9  10
HETATM   10  C   UNL     1      -6.047  -2.112 -34.763  1.00  0.00    -0.038 A 
HETATM   11  C   UNL     1      -5.003  -2.390 -33.837  1.00  0.00    -0.019 A 
HETATM   12  C   UNL     1      -4.602  -3.737 -33.649  1.00  0.00    -0.025 A 
HETATM   13  C   UNL     1      -4.329  -1.398 -33.086  1.00  0.00     0.013 A 
HETATM   14  C   UNL     1      -3.561  -4.047 -32.758  1.00  0.00     0.012 A 
HETATM   15  C   UNL     1      -5.249  -4.766 -34.351  1.00  0.00     0.012 A 
HETATM   16  C   UNL     1      -2.910  -3.046 -32.042  1.00  0.00     0.001 A 
HETATM   17  C   UNL     1      -3.297  -1.723 -32.202  1.00  0.00     0.001 A 
HETATM   18  C   UNL     1      -6.284  -4.485 -35.236  1.00  0.00     0.001 A 
HETATM   19  C   UNL     1      -6.681  -3.170 -35.441  1.00  0.00     0.008 A 
ENDBRANCH   9  10
ENDBRANCH   6   9
ENDBRANCH   2   5
BRANCH   1  20
HETATM   20  C   UNL     1     -11.292   2.577 -33.170  1.00  0.00     0.068 A 
HETATM   21  C   UNL     1     -11.534   3.490 -32.144  1.00  0.00     0.022 A 
HETATM   22  C   UNL     1     -10.646   4.449 -31.434  1.00  0.00     0.069 C 
HETATM   23  N   UNL     1     -12.873   3.425 -31.839  1.00  0.00    -0.358 N 
HETATM   24  H   UNL     1     -13.335   3.977 -31.129  1.00  0.00     0.166 HD
HETATM   25  C   UNL     1     -13.517   2.524 -32.650  1.00  0.00     0.043 A 
HETATM   26  C   UNL     1     -12.557   1.988 -33.507  1.00  0.00     0.008 A 
HETATM   27  C   UNL     1     -14.866   2.151 -32.689  1.00  0.00     0.030 A 
HETATM   28  C   UNL     1     -12.971   1.026 -34.453  1.00  0.00     0.015 A 
HETATM   29  C   UNL     1     -14.315   0.639 -34.507  1.00  0.00     0.001 A 
HETATM   30  C   UNL     1     -15.247   1.196 -33.635  1.00  0.00     0.002 A 
ENDBRANCH   1  20
TORSDOF 4
ENDMDL
MODEL 4
REMARK VINA RESULT:      -9.7      1.860      9.249
REMARK  4 active torsions:
REMARK  status: ('A' for Active; 'I' for Inactive)
REMARK    1  A    between atoms: C_7  and  C_8 
REMARK       I    between atoms: C_8  and  N_9 
REMARK    2  A    between atoms: N_9  and  N_10 
REMARK       I    between atoms: N_10  and  C_11 
REMARK    3  A    between atoms: C_11  and  C_12 
REMARK    4  A    between atoms: C_12  and  C_13 
ROOT
HETATM    1  C   UNL     1      -7.168  -0.129 -34.684  1.00  0.00     0.273 C 
HETATM    2  N   UNL     1      -8.236  -0.015 -33.812  1.00  0.00    -0.263 N 
HETATM    3  O   UNL     1      -7.174   0.392 -35.798  1.00  0.00    -0.266 OA
HETATM    4  H   UNL     1      -8.052  -0.126 -32.816  1.00  0.00     0.190 HD
ENDROOT
BRANCH   2   5
HETATM    5  N   UNL     1      -9.238   0.933 -34.122  1.00  0.00    -0.267 N 
HETATM    6  C   UNL     1      -9.320   2.031 -33.292  1.00  0.00     0.240 C 
HETATM    7  O   UNL     1      -8.672   2.092 -32.242  1.00  0.00    -0.272 OA
HETATM    8  H   UNL     1      -9.470   1.011 -35.114  1.00  0.00     0.190 HD
BRANCH   6   9
HETATM    9  C   UNL     1     -10.294   3.131 -33.672  1.00  0.00     0.144 C 
BRANCH   9  10
HETATM   10  C   UNL     1     -11.569   3.233 -32.860  1.00  0.00    -0.038 A 
HETATM   11  C   UNL     1     -12.744   2.495 -33.179  1.00  0.00    -0.019 A 
HETATM   12  C   UNL     1     -13.899   2.674 -32.375  1.00  0.00    -0.025 A 
HETATM   13  C   UNL     1     -12.835   1.586 -34.259  1.00  0.00     0.013 A 
HETATM   14  C   UNL     1     -15.082   1.978 -32.673  1.00  0.00     0.012 A 
HETATM   15  C   UNL     1     -13.861   3.547 -31.278  1.00  0.00     0.012 A 
HETATM   16  C   UNL     1     -15.142   1.098 -33.752  1.00  0.00     0.001 A 
HETATM   17  C   UNL     1     -14.019   0.899 -34.541  1.00  0.00     0.001 A 
HETATM   18  C   UNL     1     -12.701   4.246 -30.961  1.00  0.00     0.001 A 
HETATM   19  C   UNL     1     -11.564   4.091 -31.744  1.00  0.00     0.008 A 
ENDBRANCH   9  10
ENDBRANCH   6   9
ENDBRANCH   2   5
BRANCH   1  20
HETATM   20  C   UNL     1      -6.020  -0.858 -34.144  1.00  0.00     0.068 A 
HETATM   21  C   UNL     1      -4.987  -0.356 -33.356  1.00  0.00     0.022 A 
HETATM   22  C   UNL     1      -4.739   0.992 -32.778  1.00  0.00     0.069 C 
HETATM   23  N   UNL     1      -4.115  -1.390 -33.105  1.00  0.00    -0.358 N 
HETATM   24  H   UNL     1      -3.268  -1.318 -32.558  1.00  0.00     0.166 HD
HETATM   25  C   UNL     1      -4.562  -2.555 -33.679  1.00  0.00     0.043 A 
HETATM   26  C   UNL     1      -5.762  -2.260 -34.322  1.00  0.00     0.008 A 
HETATM   27  C   UNL     1      -3.997  -3.836 -33.670  1.00  0.00     0.030 A 
HETATM   28  C   UNL     1      -6.432  -3.304 -34.995  1.00  0.00     0.015 A 
HETATM   29  C   UNL     1      -5.883  -4.591 -34.999  1.00  0.00     0.001 A 
HETATM   30  C   UNL     1      -4.681  -4.850 -34.345  1.00  0.00     0.002 A 
ENDBRANCH   1  20
TORSDOF 4
ENDMDL
MODEL 5
REMARK VINA RESULT:      -9.5      6.516     10.020
REMARK  4 active torsions:
REMARK  status: ('A' for Active; 'I' for Inactive)
REMARK    1  A    between atoms: C_7  and  C_8 
REMARK       I    between atoms: C_8  and  N_9 
REMARK    2  A    between atoms: N_9  and  N_10 
REMARK       I    between atoms: N_10  and  C_11 
REMARK    3  A    between atoms: C_11  and  C_12 
REMARK    4  A    between atoms: C_12  and  C_13 
ROOT
HETATM    1  C   UNL     1      -3.656   2.352 -32.210  1.00  0.00     0.273 C 
HETATM    2  N   UNL     1      -3.324   3.349 -33.110  1.00  0.00    -0.263 N 
HETATM    3  O   UNL     1      -2.943   2.077 -31.247  1.00  0.00    -0.266 OA
HETATM    4  H   UNL     1      -4.079   3.782 -33.642  1.00  0.00     0.190 HD
ENDROOT
BRANCH   2   5
HETATM    5  N   UNL     1      -2.274   4.228 -32.758  1.00  0.00    -0.267 N 
HETATM    6  C   UNL     1      -1.833   5.082 -33.747  1.00  0.00     0.240 C 
HETATM    7  O   UNL     1      -2.215   4.963 -34.916  1.00  0.00    -0.272 OA
HETATM    8  H   UNL     1      -2.257   4.513 -31.777  1.00  0.00     0.190 HD
BRANCH   6   9
HETATM    9  C   UNL     1      -0.801   6.127 -33.367  1.00  0.00     0.144 C 
BRANCH   9  10
HETATM   10  C   UNL     1      -1.075   6.945 -32.121  1.00  0.00    -0.038 A 
HETATM   11  C   UNL     1      -0.528   6.613 -30.849  1.00  0.00    -0.019 A 
HETATM   12  C   UNL     1      -0.859   7.424 -29.734  1.00  0.00    -0.025 A 
HETATM   13  C   UNL     1       0.334   5.515 -30.623  1.00  0.00     0.013 A 
HETATM   14  C   UNL     1      -0.354   7.115 -28.460  1.00  0.00     0.012 A 
HETATM   15  C   UNL     1      -1.693   8.540 -29.902  1.00  0.00     0.012 A 
HETATM   16  C   UNL     1       0.483   6.018 -28.269  1.00  0.00     0.001 A 
HETATM   17  C   UNL     1       0.831   5.222 -29.350  1.00  0.00     0.001 A 
HETATM   18  C   UNL     1      -2.204   8.869 -31.153  1.00  0.00     0.001 A 
HETATM   19  C   UNL     1      -1.898   8.079 -32.254  1.00  0.00     0.008 A 
ENDBRANCH   9  10
ENDBRANCH   6   9
ENDBRANCH   2   5
BRANCH   1  20
HETATM   20  C   UNL     1      -4.945   1.709 -32.467  1.00  0.00     0.068 A 
HETATM   21  C   UNL     1      -6.217   2.229 -32.234  1.00  0.00     0.022 A 
HETATM   22  C   UNL     1      -6.676   3.553 -31.734  1.00  0.00     0.069 C 
HETATM   23  N   UNL     1      -7.131   1.268 -32.597  1.00  0.00    -0.358 N 
HETATM   24  H   UNL     1      -8.135   1.367 -32.536  1.00  0.00     0.166 HD
HETATM   25  C   UNL     1      -6.499   0.152 -33.086  1.00  0.00     0.043 A 
HETATM   26  C   UNL     1      -5.129   0.402 -33.034  1.00  0.00     0.008 A 
HETATM   27  C   UNL     1      -7.036  -1.047 -33.569  1.00  0.00     0.030 A 
HETATM   28  C   UNL     1      -4.249  -0.603 -33.489  1.00  0.00     0.015 A 
HETATM   29  C   UNL     1      -4.766  -1.809 -33.975  1.00  0.00     0.001 A 
HETATM   30  C   UNL     1      -6.141  -2.025 -34.012  1.00  0.00     0.002 A 
ENDBRANCH   1  20
TORSDOF 4
ENDMDL
MODEL 6
REMARK VINA RESULT:      -9.5      1.725      9.369
REMARK  4 active torsions:
REMARK  status: ('A' for Active; 'I' for Inactive)
REMARK    1  A    between atoms: C_7  and  C_8 
REMARK       I    between atoms: C_8  and  N_9 
REMARK    2  A    between atoms: N_9  and  N_10 
REMARK       I    between atoms: N_10  and  C_11 
REMARK    3  A    between atoms: C_11  and  C_12 
REMARK    4  A    between atoms: C_12  and  C_13 
ROOT
HETATM    1  C   UNL     1      -7.694  -0.183 -33.774  1.00  0.00     0.273 C 
HETATM    2  N   UNL     1      -7.734   0.906 -34.626  1.00  0.00    -0.263 N 
HETATM    3  O   UNL     1      -8.685  -0.565 -33.155  1.00  0.00    -0.266 OA
HETATM    4  H   UNL     1      -7.038   0.955 -35.369  1.00  0.00     0.190 HD
ENDROOT
BRANCH   2   5
HETATM    5  N   UNL     1      -9.004   1.420 -34.976  1.00  0.00    -0.267 N 
HETATM    6  C   UNL     1      -9.374   2.602 -34.370  1.00  0.00     0.240 C 
HETATM    7  O   UNL     1      -8.710   3.086 -33.448  1.00  0.00    -0.272 OA
HETATM    8  H   UNL     1      -9.315   1.199 -35.924  1.00  0.00     0.190 HD
BRANCH   6   9
HETATM    9  C   UNL     1     -10.671   3.249 -34.821  1.00  0.00     0.144 C 
BRANCH   9  10
HETATM   10  C   UNL     1     -11.959   2.660 -34.282  1.00  0.00    -0.038 A 
HETATM   11  C   UNL     1     -12.632   3.195 -33.148  1.00  0.00    -0.019 A 
HETATM   12  C   UNL     1     -13.820   2.562 -32.701  1.00  0.00    -0.025 A 
HETATM   13  C   UNL     1     -12.187   4.329 -32.428  1.00  0.00     0.013 A 
HETATM   14  C   UNL     1     -14.500   3.051 -31.572  1.00  0.00     0.012 A 
HETATM   15  C   UNL     1     -14.320   1.446 -33.387  1.00  0.00     0.012 A 
HETATM   16  C   UNL     1     -14.029   4.163 -30.879  1.00  0.00     0.001 A 
HETATM   17  C   UNL     1     -12.876   4.805 -31.310  1.00  0.00     0.001 A 
HETATM   18  C   UNL     1     -13.668   0.945 -34.508  1.00  0.00     0.001 A 
HETATM   19  C   UNL     1     -12.497   1.546 -34.953  1.00  0.00     0.008 A 
ENDBRANCH   9  10
ENDBRANCH   6   9
ENDBRANCH   2   5
BRANCH   1  20
HETATM   20  C   UNL     1      -6.403  -0.869 -33.727  1.00  0.00     0.068 A 
HETATM   21  C   UNL     1      -5.183  -0.358 -33.287  1.00  0.00     0.022 A 
HETATM   22  C   UNL     1      -4.807   0.954 -32.696  1.00  0.00     0.069 C 
HETATM   23  N   UNL     1      -4.237  -1.344 -33.449  1.00  0.00    -0.358 N 
HETATM   24  H   UNL     1      -3.258  -1.255 -33.215  1.00  0.00     0.166 HD
HETATM   25  C   UNL     1      -4.806  -2.488 -33.951  1.00  0.00     0.043 A 
HETATM   26  C   UNL     1      -6.165  -2.230 -34.120  1.00  0.00     0.008 A 
HETATM   27  C   UNL     1      -4.221  -3.722 -34.260  1.00  0.00     0.030 A 
HETATM   28  C   UNL     1      -6.982  -3.262 -34.627  1.00  0.00     0.015 A 
HETATM   29  C   UNL     1      -6.417  -4.502 -34.944  1.00  0.00     0.001 A 
HETATM   30  C   UNL     1      -5.054  -4.726 -34.763  1.00  0.00     0.002 A 
ENDBRANCH   1  20
TORSDOF 4
ENDMDL
MODEL 7
REMARK VINA RESULT:      -9.5      0.670      2.305
REMARK  4 active torsions:
REMARK  status: ('A' for Active; 'I' for Inactive)
REMARK    1  A    between atoms: C_7  and  C_8 
REMARK       I    between atoms: C_8  and  N_9 
REMARK    2  A    between atoms: N_9  and  N_10 
REMARK       I    between atoms: N_10  and  C_11 
REMARK    3  A    between atoms: C_11  and  C_12 
REMARK    4  A    between atoms: C_12  and  C_13 
ROOT
HETATM    1  C   UNL     1     -11.666   2.378 -34.334  1.00  0.00     0.273 C 
HETATM    2  N   UNL     1     -10.611   1.678 -33.775  1.00  0.00    -0.263 N 
HETATM    3  O   UNL     1     -11.540   3.037 -35.365  1.00  0.00    -0.266 OA
HETATM    4  H   UNL     1     -10.830   0.883 -33.176  1.00  0.00     0.190 HD
ENDROOT
BRANCH   2   5
HETATM    5  N   UNL     1      -9.440   1.522 -34.554  1.00  0.00    -0.267 N 
HETATM    6  C   UNL     1      -8.638   0.445 -34.243  1.00  0.00     0.240 C 
HETATM    7  O   UNL     1      -8.842  -0.238 -33.234  1.00  0.00    -0.272 OA
HETATM    8  H   UNL     1      -9.510   1.861 -35.515  1.00  0.00     0.190 HD
BRANCH   6   9
HETATM    9  C   UNL     1      -7.447   0.171 -35.142  1.00  0.00     0.144 C 
BRANCH   9  10
HETATM   10  C   UNL     1      -6.394  -0.785 -34.619  1.00  0.00    -0.038 A 
HETATM   11  C   UNL     1      -5.386  -0.387 -33.696  1.00  0.00    -0.019 A 
HETATM   12  C   UNL     1      -4.427  -1.347 -33.281  1.00  0.00    -0.025 A 
HETATM   13  C   UNL     1      -5.276   0.917 -33.162  1.00  0.00     0.013 A 
HETATM   14  C   UNL     1      -3.406  -0.985 -32.387  1.00  0.00     0.012 A 
HETATM   15  C   UNL     1      -4.499  -2.663 -33.762  1.00  0.00     0.012 A 
HETATM   16  C   UNL     1      -3.319   0.313 -31.888  1.00  0.00     0.001 A 
HETATM   17  C   UNL     1      -4.256   1.261 -32.271  1.00  0.00     0.001 A 
HETATM   18  C   UNL     1      -5.502  -3.047 -34.645  1.00  0.00     0.001 A 
HETATM   19  C   UNL     1      -6.442  -2.117 -35.071  1.00  0.00     0.008 A 
ENDBRANCH   9  10
ENDBRANCH   6   9
ENDBRANCH   2   5
BRANCH   1  20
HETATM   20  C   UNL     1     -12.941   2.211 -33.637  1.00  0.00     0.068 A 
HETATM   21  C   UNL     1     -13.625   1.023 -33.387  1.00  0.00     0.022 A 
HETATM   22  C   UNL     1     -13.290  -0.399 -33.669  1.00  0.00     0.069 C 
HETATM   23  N   UNL     1     -14.789   1.344 -32.729  1.00  0.00    -0.358 N 
HETATM   24  H   UNL     1     -15.486   0.681 -32.421  1.00  0.00     0.166 HD
HETATM   25  C   UNL     1     -14.872   2.699 -32.517  1.00  0.00     0.043 A 
HETATM   26  C   UNL     1     -13.721   3.268 -33.058  1.00  0.00     0.008 A 
HETATM   27  C   UNL     1     -15.871   3.451 -31.887  1.00  0.00     0.030 A 
HETATM   28  C   UNL     1     -13.563   4.667 -32.965  1.00  0.00     0.015 A 
HETATM   29  C   UNL     1     -14.550   5.437 -32.340  1.00  0.00     0.001 A 
HETATM   30  C   UNL     1     -15.688   4.834 -31.811  1.00  0.00     0.002 A 
ENDBRANCH   1  20
TORSDOF 4
ENDMDL
MODEL 8
REMARK VINA RESULT:      -9.3      5.280      8.969
REMARK  4 active torsions:
REMARK  status: ('A' for Active; 'I' for Inactive)
REMARK    1  A    between atoms: C_7  and  C_8 
REMARK       I    between atoms: C_8  and  N_9 
REMARK    2  A    between atoms: N_9  and  N_10 
REMARK       I    between atoms: N_10  and  C_11 
REMARK    3  A    between atoms: C_11  and  C_12 
REMARK    4  A    between atoms: C_12  and  C_13 
ROOT
HETATM    1  C   UNL     1      -3.406   3.501 -31.526  1.00  0.00     0.273 C 
HETATM    2  N   UNL     1      -4.375   3.399 -30.543  1.00  0.00    -0.263 N 
HETATM    3  O   UNL     1      -3.018   2.526 -32.166  1.00  0.00    -0.266 OA
HETATM    4  H   UNL     1      -4.914   4.234 -30.316  1.00  0.00     0.190 HD
ENDROOT
BRANCH   2   5
HETATM    5  N   UNL     1      -5.104   2.189 -30.463  1.00  0.00    -0.267 N 
HETATM    6  C   UNL     1      -6.337   2.176 -31.080  1.00  0.00     0.240 C 
HETATM    7  O   UNL     1      -6.844   3.211 -31.523  1.00  0.00    -0.272 OA
HETATM    8  H   UNL     1      -4.534   1.342 -30.416  1.00  0.00     0.190 HD
BRANCH   6   9
HETATM    9  C   UNL     1      -7.086   0.858 -31.128  1.00  0.00     0.144 C 
BRANCH   9  10
HETATM   10  C   UNL     1      -7.023   0.076 -32.425  1.00  0.00    -0.038 A 
HETATM   11  C   UNL     1      -5.955  -0.813 -32.734  1.00  0.00    -0.019 A 
HETATM   12  C   UNL     1      -5.970  -1.484 -33.984  1.00  0.00    -0.025 A 
HETATM   13  C   UNL     1      -4.868  -1.072 -31.867  1.00  0.00     0.013 A 
HETATM   14  C   UNL     1      -4.922  -2.353 -34.332  1.00  0.00     0.012 A 
HETATM   15  C   UNL     1      -7.033  -1.281 -34.876  1.00  0.00     0.012 A 
HETATM   16  C   UNL     1      -3.859  -2.578 -33.459  1.00  0.00     0.001 A 
HETATM   17  C   UNL     1      -3.835  -1.942 -32.226  1.00  0.00     0.001 A 
HETATM   18  C   UNL     1      -8.084  -0.429 -34.554  1.00  0.00     0.001 A 
HETATM   19  C   UNL     1      -8.080   0.245 -33.339  1.00  0.00     0.008 A 
ENDBRANCH   9  10
ENDBRANCH   6   9
ENDBRANCH   2   5
BRANCH   1  20
HETATM   20  C   UNL     1      -2.940   4.865 -31.777  1.00  0.00     0.068 A 
HETATM   21  C   UNL     1      -3.628   5.897 -32.412  1.00  0.00     0.022 A 
HETATM   22  C   UNL     1      -5.006   5.983 -32.965  1.00  0.00     0.069 C 
HETATM   23  N   UNL     1      -2.795   6.991 -32.450  1.00  0.00    -0.358 N 
HETATM   24  H   UNL     1      -3.029   7.887 -32.855  1.00  0.00     0.166 HD
HETATM   25  C   UNL     1      -1.599   6.715 -31.834  1.00  0.00     0.043 A 
HETATM   26  C   UNL     1      -1.664   5.397 -31.386  1.00  0.00     0.008 A 
HETATM   27  C   UNL     1      -0.479   7.531 -31.640  1.00  0.00     0.030 A 
HETATM   28  C   UNL     1      -0.545   4.867 -30.708  1.00  0.00     0.015 A 
HETATM   29  C   UNL     1       0.585   5.667 -30.505  1.00  0.00     0.001 A 
HETATM   30  C   UNL     1       0.615   6.980 -30.967  1.00  0.00     0.002 A 
ENDBRANCH   1  20
TORSDOF 4
ENDMDL
MODEL 9
REMARK VINA RESULT:      -9.3      6.677     10.296
REMARK  4 active torsions:
REMARK  status: ('A' for Active; 'I' for Inactive)
REMARK    1  A    between atoms: C_7  and  C_8 
REMARK       I    between atoms: C_8  and  N_9 
REMARK    2  A    between atoms: N_9  and  N_10 
REMARK       I    between atoms: N_10  and  C_11 
REMARK    3  A    between atoms: C_11  and  C_12 
REMARK    4  A    between atoms: C_12  and  C_13 
ROOT
HETATM    1  C   UNL     1      -3.631   2.402 -32.151  1.00  0.00     0.273 C 
HETATM    2  N   UNL     1      -3.351   3.440 -33.022  1.00  0.00    -0.263 N 
HETATM    3  O   UNL     1      -2.916   2.150 -31.183  1.00  0.00    -0.266 OA
HETATM    4  H   UNL     1      -4.124   3.837 -33.555  1.00  0.00     0.190 HD
ENDROOT
BRANCH   2   5
HETATM    5  N   UNL     1      -2.364   4.375 -32.632  1.00  0.00    -0.267 N 
HETATM    6  C   UNL     1      -1.762   5.087 -33.648  1.00  0.00     0.240 C 
HETATM    7  O   UNL     1      -1.950   4.799 -34.834  1.00  0.00    -0.272 OA
HETATM    8  H   UNL     1      -2.503   4.795 -31.711  1.00  0.00     0.190 HD
BRANCH   6   9
HETATM    9  C   UNL     1      -0.796   6.191 -33.258  1.00  0.00     0.144 C 
BRANCH   9  10
HETATM   10  C   UNL     1      -0.530   6.383 -31.778  1.00  0.00    -0.038 A 
HETATM   11  C   UNL     1      -1.088   7.457 -31.031  1.00  0.00    -0.019 A 
HETATM   12  C   UNL     1      -0.763   7.569 -29.654  1.00  0.00    -0.025 A 
HETATM   13  C   UNL     1      -1.955   8.432 -31.577  1.00  0.00     0.013 A 
HETATM   14  C   UNL     1      -1.279   8.629 -28.890  1.00  0.00     0.012 A 
HETATM   15  C   UNL     1       0.076   6.619 -29.053  1.00  0.00     0.012 A 
HETATM   16  C   UNL     1      -2.122   9.580 -29.462  1.00  0.00     0.001 A 
HETATM   17  C   UNL     1      -2.463   9.478 -30.803  1.00  0.00     0.001 A 
HETATM   18  C   UNL     1       0.598   5.560 -29.787  1.00  0.00     0.001 A 
HETATM   19  C   UNL     1       0.298   5.441 -31.138  1.00  0.00     0.008 A 
ENDBRANCH   9  10
ENDBRANCH   6   9
ENDBRANCH   2   5
BRANCH   1  20
HETATM   20  C   UNL     1      -4.872   1.685 -32.442  1.00  0.00     0.068 A 
HETATM   21  C   UNL     1      -6.178   2.133 -32.255  1.00  0.00     0.022 A 
HETATM   22  C   UNL     1      -6.729   3.431 -31.781  1.00  0.00     0.069 C 
HETATM   23  N   UNL     1      -7.025   1.119 -32.639  1.00  0.00    -0.358 N 
HETATM   24  H   UNL     1      -8.034   1.161 -32.610  1.00  0.00     0.166 HD
HETATM   25  C   UNL     1      -6.314   0.038 -33.098  1.00  0.00     0.043 A 
HETATM   26  C   UNL     1      -4.963   0.366 -33.005  1.00  0.00     0.008 A 
HETATM   27  C   UNL     1      -6.766  -1.193 -33.588  1.00  0.00     0.030 A 
HETATM   28  C   UNL     1      -4.014  -0.590 -33.424  1.00  0.00     0.015 A 
HETATM   29  C   UNL     1      -4.445  -1.827 -33.916  1.00  0.00     0.001 A 
HETATM   30  C   UNL     1      -5.804  -2.122 -33.994  1.00  0.00     0.002 A 
ENDBRANCH   1  20
TORSDOF 4
ENDMDL
MODEL 10
REMARK VINA RESULT:      -9.3      5.998      8.540
REMARK  4 active torsions:
REMARK  status: ('A' for Active; 'I' for Inactive)
REMARK    1  A    between atoms: C_7  and  C_8 
REMARK       I    between atoms: C_8  and  N_9 
REMARK    2  A    between atoms: N_9  and  N_10 
REMARK       I    between atoms: N_10  and  C_11 
REMARK    3  A    between atoms: C_11  and  C_12 
REMARK    4  A    between atoms: C_12  and  C_13 
ROOT
HETATM    1  C   UNL     1      -2.772   4.193 -32.081  1.00  0.00     0.273 C 
HETATM    2  N   UNL     1      -3.140   2.939 -31.627  1.00  0.00    -0.263 N 
HETATM    3  O   UNL     1      -2.169   4.353 -33.141  1.00  0.00    -0.266 OA
HETATM    4  H   UNL     1      -3.925   2.878 -30.979  1.00  0.00     0.190 HD
ENDROOT
BRANCH   2   5
HETATM    5  N   UNL     1      -3.041   1.857 -32.533  1.00  0.00    -0.267 N 
HETATM    6  C   UNL     1      -3.419   0.621 -32.053  1.00  0.00     0.240 C 
HETATM    7  O   UNL     1      -3.662   0.443 -30.855  1.00  0.00    -0.272 OA
HETATM    8  H   UNL     1      -3.178   2.100 -33.516  1.00  0.00     0.190 HD
BRANCH   6   9
HETATM    9  C   UNL     1      -3.451  -0.536 -33.035  1.00  0.00     0.144 C 
BRANCH   9  10
HETATM   10  C   UNL     1      -4.802  -0.918 -33.606  1.00  0.00    -0.038 A 
HETATM   11  C   UNL     1      -5.121  -2.248 -33.999  1.00  0.00    -0.019 A 
HETATM   12  C   UNL     1      -6.404  -2.506 -34.546  1.00  0.00    -0.025 A 
HETATM   13  C   UNL     1      -4.232  -3.341 -33.878  1.00  0.00     0.013 A 
HETATM   14  C   UNL     1      -6.746  -3.803 -34.963  1.00  0.00     0.012 A 
HETATM   15  C   UNL     1      -7.335  -1.465 -34.671  1.00  0.00     0.012 A 
HETATM   16  C   UNL     1      -5.843  -4.856 -34.842  1.00  0.00     0.001 A 
HETATM   17  C   UNL     1      -4.589  -4.627 -34.295  1.00  0.00     0.001 A 
HETATM   18  C   UNL     1      -7.021  -0.173 -34.262  1.00  0.00     0.001 A 
HETATM   19  C   UNL     1      -5.766   0.100 -33.734  1.00  0.00     0.008 A 
ENDBRANCH   9  10
ENDBRANCH   6   9
ENDBRANCH   2   5
BRANCH   1  20
HETATM   20  C   UNL     1      -3.215   5.299 -31.232  1.00  0.00     0.068 A 
HETATM   21  C   UNL     1      -4.524   5.674 -30.937  1.00  0.00     0.022 A 
HETATM   22  C   UNL     1      -5.838   5.083 -31.309  1.00  0.00     0.069 C 
HETATM   23  N   UNL     1      -4.465   6.782 -30.125  1.00  0.00    -0.358 N 
HETATM   24  H   UNL     1      -5.266   7.275 -29.754  1.00  0.00     0.166 HD
HETATM   25  C   UNL     1      -3.162   7.123 -29.857  1.00  0.00     0.043 A 
HETATM   26  C   UNL     1      -2.354   6.203 -30.522  1.00  0.00     0.008 A 
HETATM   27  C   UNL     1      -2.648   8.167 -29.080  1.00  0.00     0.030 A 
HETATM   28  C   UNL     1      -0.954   6.336 -30.402  1.00  0.00     0.015 A 
HETATM   29  C   UNL     1      -0.420   7.374 -29.630  1.00  0.00     0.001 A 
HETATM   30  C   UNL     1      -1.258   8.276 -28.980  1.00  0.00     0.002 A 
ENDBRANCH   1  20
TORSDOF 4
ENDMDL
