MODEL 1
REMARK VINA RESULT:      -7.9      0.000      0.000
REMARK  3 active torsions:
REMARK  status: ('A' for Active; 'I' for Inactive)
REMARK    1  A    between atoms: C_6  and  N_7 
REMARK    2  A    between atoms: N_7  and  C_8 
REMARK    3  A    between atoms: C_8  and  C_9 
ROOT
HETATM    1  C   UNL     1      -4.391  -2.507 -33.903  1.00  0.00     0.024 A 
HETATM    2  C   UNL     1      -5.659  -2.680 -34.460  1.00  0.00     0.046 A 
HETATM    3  C   UNL     1      -6.041  -3.948 -35.013  1.00  0.00     0.099 C 
HETATM    4  N   UNL     1      -6.402  -4.954 -35.461  1.00  0.00    -0.191 NA
HETATM    5  C   UNL     1      -6.580  -1.619 -34.467  1.00  0.00     0.047 A 
HETATM    6  C   UNL     1      -6.243  -0.362 -33.947  1.00  0.00     0.032 A 
HETATM    7  C   UNL     1      -4.965  -0.226 -33.355  1.00  0.00     0.055 A 
HETATM    8 CL   UNL     1      -4.498   1.274 -32.630  1.00  0.00    -0.082 Cl
HETATM    9  C   UNL     1      -4.046  -1.279 -33.344  1.00  0.00     0.027 A 
ENDROOT
BRANCH   6  10
HETATM   10  N   UNL     1      -7.172   0.699 -33.855  1.00  0.00    -0.286 NA
HETATM   11  H   UNL     1      -7.664   0.773 -34.755  1.00  0.00     0.128 HD
BRANCH  10  12
HETATM   12  C   UNL     1      -8.101   0.785 -32.719  1.00  0.00     0.149 C 
BRANCH  12  13
HETATM   13  C   UNL     1      -9.480   1.117 -33.266  1.00  0.00     0.029 A 
HETATM   14  N   UNL     1      -9.572   2.313 -33.957  1.00  0.00    -0.338 N 
HETATM   15  H   UNL     1      -8.731   2.888 -34.042  1.00  0.00     0.168 HD
HETATM   16  C   UNL     1     -10.707   2.705 -34.472  1.00  0.00     0.158 A 
HETATM   17  N   UNL     1     -11.801   1.983 -34.355  1.00  0.00    -0.269 N 
HETATM   18  S   UNL     1     -10.923   4.187 -35.349  1.00  0.00    -0.064 SA
HETATM   19  C   UNL     1     -11.849   0.747 -33.676  1.00  0.00     0.255 A 
HETATM   20  C   UNL     1     -12.893   2.565 -34.967  1.00  0.00     0.109 A 
HETATM   21  O   UNL     1     -12.877   0.103 -33.589  1.00  0.00    -0.268 OA
HETATM   22  C   UNL     1     -10.556   0.337 -33.101  1.00  0.00     0.101 A 
HETATM   23  C   UNL     1     -12.606   3.741 -35.545  1.00  0.00     0.071 A 
ENDBRANCH  12  13
ENDBRANCH  10  12
ENDBRANCH   6  10
TORSDOF 3
ENDMDL
MODEL 2
REMARK VINA RESULT:      -7.8      1.786      2.033
REMARK  3 active torsions:
REMARK  status: ('A' for Active; 'I' for Inactive)
REMARK    1  A    between atoms: C_6  and  N_7 
REMARK    2  A    between atoms: N_7  and  C_8 
REMARK    3  A    between atoms: C_8  and  C_9 
ROOT
HETATM    1  C   UNL     1      -4.442  -2.263 -34.006  1.00  0.00     0.024 A 
HETATM    2  C   UNL     1      -5.731  -2.613 -34.411  1.00  0.00     0.046 A 
HETATM    3  C   UNL     1      -5.998  -3.924 -34.927  1.00  0.00     0.099 C 
HETATM    4  N   UNL     1      -6.268  -4.974 -35.339  1.00  0.00    -0.191 NA
HETATM    5  C   UNL     1      -6.785  -1.689 -34.297  1.00  0.00     0.047 A 
HETATM    6  C   UNL     1      -6.565  -0.394 -33.809  1.00  0.00     0.032 A 
HETATM    7  C   UNL     1      -5.256  -0.079 -33.372  1.00  0.00     0.055 A 
HETATM    8 CL   UNL     1      -4.918   1.476 -32.692  1.00  0.00    -0.082 Cl
HETATM    9  C   UNL     1      -4.206  -0.994 -33.480  1.00  0.00     0.027 A 
ENDROOT
BRANCH   6  10
HETATM   10  N   UNL     1      -7.613   0.530 -33.597  1.00  0.00    -0.286 NA
HETATM   11  H   UNL     1      -8.094   0.679 -34.494  1.00  0.00     0.128 HD
BRANCH  10  12
HETATM   12  C   UNL     1      -8.566   0.340 -32.494  1.00  0.00     0.149 C 
BRANCH  12  13
HETATM   13  C   UNL     1      -9.859   1.047 -32.866  1.00  0.00     0.029 A 
HETATM   14  N   UNL     1     -10.938   0.217 -33.120  1.00  0.00    -0.338 N 
HETATM   15  H   UNL     1     -10.795  -0.793 -33.057  1.00  0.00     0.168 HD
HETATM   16  C   UNL     1     -12.102   0.711 -33.449  1.00  0.00     0.158 A 
HETATM   17  N   UNL     1     -12.294   2.009 -33.551  1.00  0.00    -0.269 N 
HETATM   18  S   UNL     1     -13.509  -0.245 -33.791  1.00  0.00    -0.064 SA
HETATM   19  C   UNL     1     -11.283   2.966 -33.322  1.00  0.00     0.255 A 
HETATM   20  C   UNL     1     -13.589   2.331 -33.907  1.00  0.00     0.109 A 
HETATM   21  O   UNL     1     -11.496   4.160 -33.422  1.00  0.00    -0.268 OA
HETATM   22  C   UNL     1      -9.982   2.378 -32.960  1.00  0.00     0.101 A 
HETATM   23  C   UNL     1     -14.370   1.254 -34.075  1.00  0.00     0.071 A 
ENDBRANCH  12  13
ENDBRANCH  10  12
ENDBRANCH   6  10
TORSDOF 3
ENDMDL
MODEL 3
REMARK VINA RESULT:      -7.5      3.576      7.464
REMARK  3 active torsions:
REMARK  status: ('A' for Active; 'I' for Inactive)
REMARK    1  A    between atoms: C_6  and  N_7 
REMARK    2  A    between atoms: N_7  and  C_8 
REMARK    3  A    between atoms: C_8  and  C_9 
ROOT
HETATM    1  C   UNL     1     -12.332   3.163 -35.252  1.00  0.00     0.024 A 
HETATM    2  C   UNL     1     -11.026   3.442 -34.847  1.00  0.00     0.046 A 
HETATM    3  C   UNL     1     -10.395   4.672 -35.228  1.00  0.00     0.099 C 
HETATM    4  N   UNL     1      -9.845   5.656 -35.497  1.00  0.00    -0.191 NA
HETATM    5  C   UNL     1     -10.323   2.525 -34.045  1.00  0.00     0.047 A 
HETATM    6  C   UNL     1     -10.898   1.306 -33.661  1.00  0.00     0.032 A 
HETATM    7  C   UNL     1     -12.236   1.068 -34.055  1.00  0.00     0.055 A 
HETATM    8 CL   UNL     1     -13.042  -0.382 -33.563  1.00  0.00    -0.082 Cl
HETATM    9  C   UNL     1     -12.941   1.976 -34.850  1.00  0.00     0.027 A 
ENDROOT
BRANCH   6  10
HETATM   10  N   UNL     1     -10.257   0.404 -32.783  1.00  0.00    -0.286 NA
HETATM   11  H   UNL     1     -10.023  -0.446 -33.313  1.00  0.00     0.128 HD
BRANCH  10  12
HETATM   12  C   UNL     1      -9.135   0.846 -31.943  1.00  0.00     0.149 C 
BRANCH  12  13
HETATM   13  C   UNL     1      -7.883   0.126 -32.416  1.00  0.00     0.029 A 
HETATM   14  N   UNL     1      -6.745   0.356 -31.663  1.00  0.00    -0.338 N 
HETATM   15  H   UNL     1      -6.814   0.991 -30.865  1.00  0.00     0.168 HD
HETATM   16  C   UNL     1      -5.608  -0.209 -31.974  1.00  0.00     0.158 A 
HETATM   17  N   UNL     1      -5.501  -1.014 -33.010  1.00  0.00    -0.269 N 
HETATM   18  S   UNL     1      -4.129   0.022 -31.096  1.00  0.00    -0.064 SA
HETATM   19  C   UNL     1      -6.579  -1.333 -33.862  1.00  0.00     0.255 A 
HETATM   20  C   UNL     1      -4.222  -1.509 -33.171  1.00  0.00     0.109 A 
HETATM   21  O   UNL     1      -6.446  -2.084 -34.810  1.00  0.00    -0.268 OA
HETATM   22  C   UNL     1      -7.844  -0.676 -33.489  1.00  0.00     0.101 A 
HETATM   23  C   UNL     1      -3.365  -1.062 -32.241  1.00  0.00     0.071 A 
ENDBRANCH  12  13
ENDBRANCH  10  12
ENDBRANCH   6  10
TORSDOF 3
ENDMDL
MODEL 4
REMARK VINA RESULT:      -7.4      5.556      7.377
REMARK  3 active torsions:
REMARK  status: ('A' for Active; 'I' for Inactive)
REMARK    1  A    between atoms: C_6  and  N_7 
REMARK    2  A    between atoms: N_7  and  C_8 
REMARK    3  A    between atoms: C_8  and  C_9 
ROOT
HETATM    1  C   UNL     1      -6.750  -0.690 -35.075  1.00  0.00     0.024 A 
HETATM    2  C   UNL     1      -5.750  -1.087 -34.186  1.00  0.00     0.046 A 
HETATM    3  C   UNL     1      -5.154  -2.387 -34.300  1.00  0.00     0.099 C 
HETATM    4  N   UNL     1      -4.632  -3.420 -34.356  1.00  0.00    -0.191 NA
HETATM    5  C   UNL     1      -5.305  -0.209 -33.183  1.00  0.00     0.047 A 
HETATM    6  C   UNL     1      -5.869   1.065 -33.030  1.00  0.00     0.032 A 
HETATM    7  C   UNL     1      -6.854   1.455 -33.969  1.00  0.00     0.055 A 
HETATM    8 CL   UNL     1      -7.550   3.037 -33.891  1.00  0.00    -0.082 Cl
HETATM    9  C   UNL     1      -7.299   0.587 -34.970  1.00  0.00     0.027 A 
ENDROOT
BRANCH   6  10
HETATM   10  N   UNL     1      -5.386   2.006 -32.093  1.00  0.00    -0.286 NA
HETATM   11  H   UNL     1      -5.998   1.978 -31.267  1.00  0.00     0.128 HD
BRANCH  10  12
HETATM   12  C   UNL     1      -3.965   2.025 -31.716  1.00  0.00     0.149 C 
BRANCH  12  13
HETATM   13  C   UNL     1      -3.389   3.370 -32.127  1.00  0.00     0.029 A 
HETATM   14  N   UNL     1      -2.391   3.864 -31.306  1.00  0.00    -0.338 N 
HETATM   15  H   UNL     1      -2.122   3.313 -30.488  1.00  0.00     0.168 HD
HETATM   16  C   UNL     1      -1.820   5.012 -31.559  1.00  0.00     0.158 A 
HETATM   17  N   UNL     1      -2.170   5.739 -32.599  1.00  0.00    -0.269 N 
HETATM   18  S   UNL     1      -0.567   5.717 -30.588  1.00  0.00    -0.064 SA
HETATM   19  C   UNL     1      -3.172   5.356 -33.515  1.00  0.00     0.255 A 
HETATM   20  C   UNL     1      -1.452   6.915 -32.694  1.00  0.00     0.109 A 
HETATM   21  O   UNL     1      -3.469   6.051 -34.468  1.00  0.00    -0.268 OA
HETATM   22  C   UNL     1      -3.801   4.062 -33.198  1.00  0.00     0.101 A 
HETATM   23  C   UNL     1      -0.556   7.064 -31.707  1.00  0.00     0.071 A 
ENDBRANCH  12  13
ENDBRANCH  10  12
ENDBRANCH   6  10
TORSDOF 3
ENDMDL
MODEL 5
REMARK VINA RESULT:      -7.4      4.820      6.173
REMARK  3 active torsions:
REMARK  status: ('A' for Active; 'I' for Inactive)
REMARK    1  A    between atoms: C_6  and  N_7 
REMARK    2  A    between atoms: N_7  and  C_8 
REMARK    3  A    between atoms: C_8  and  C_9 
ROOT
HETATM    1  C   UNL     1      -6.816  -2.153 -34.917  1.00  0.00     0.024 A 
HETATM    2  C   UNL     1      -5.678  -2.775 -34.402  1.00  0.00     0.046 A 
HETATM    3  C   UNL     1      -5.461  -4.177 -34.611  1.00  0.00     0.099 C 
HETATM    4  N   UNL     1      -5.233  -5.303 -34.763  1.00  0.00    -0.191 NA
HETATM    5  C   UNL     1      -4.724  -2.028 -33.689  1.00  0.00     0.047 A 
HETATM    6  C   UNL     1      -4.904  -0.658 -33.453  1.00  0.00     0.032 A 
HETATM    7  C   UNL     1      -6.047  -0.046 -34.019  1.00  0.00     0.055 A 
HETATM    8 CL   UNL     1      -6.306   1.654 -33.831  1.00  0.00    -0.082 Cl
HETATM    9  C   UNL     1      -6.998  -0.784 -34.730  1.00  0.00     0.027 A 
ENDROOT
BRANCH   6  10
HETATM   10  N   UNL     1      -3.925   0.141 -32.820  1.00  0.00    -0.286 NA
HETATM   11  H   UNL     1      -3.825   1.011 -33.360  1.00  0.00     0.128 HD
BRANCH  10  12
HETATM   12  C   UNL     1      -3.992   0.403 -31.375  1.00  0.00     0.149 C 
BRANCH  12  13
HETATM   13  C   UNL     1      -4.107   1.906 -31.176  1.00  0.00     0.029 A 
HETATM   14  N   UNL     1      -3.105   2.660 -31.761  1.00  0.00    -0.338 N 
HETATM   15  H   UNL     1      -2.363   2.170 -32.264  1.00  0.00     0.168 HD
HETATM   16  C   UNL     1      -3.098   3.963 -31.656  1.00  0.00     0.158 A 
HETATM   17  N   UNL     1      -4.038   4.605 -30.995  1.00  0.00    -0.269 N 
HETATM   18  S   UNL     1      -1.885   4.994 -32.347  1.00  0.00    -0.064 SA
HETATM   19  C   UNL     1      -5.115   3.960 -30.351  1.00  0.00     0.255 A 
HETATM   20  C   UNL     1      -3.855   5.973 -31.001  1.00  0.00     0.109 A 
HETATM   21  O   UNL     1      -5.970   4.585 -29.751  1.00  0.00    -0.268 OA
HETATM   22  C   UNL     1      -5.091   2.493 -30.481  1.00  0.00     0.101 A 
HETATM   23  C   UNL     1      -2.760   6.354 -31.674  1.00  0.00     0.071 A 
ENDBRANCH  12  13
ENDBRANCH  10  12
ENDBRANCH   6  10
TORSDOF 3
ENDMDL
MODEL 6
REMARK VINA RESULT:      -7.3      1.818      2.174
REMARK  3 active torsions:
REMARK  status: ('A' for Active; 'I' for Inactive)
REMARK    1  A    between atoms: C_6  and  N_7 
REMARK    2  A    between atoms: N_7  and  C_8 
REMARK    3  A    between atoms: C_8  and  C_9 
ROOT
HETATM    1  C   UNL     1      -4.879  -2.757 -34.220  1.00  0.00     0.024 A 
HETATM    2  C   UNL     1      -4.421  -2.212 -33.019  1.00  0.00     0.046 A 
HETATM    3  C   UNL     1      -3.425  -2.895 -32.245  1.00  0.00     0.099 C 
HETATM    4  N   UNL     1      -2.613  -3.400 -31.591  1.00  0.00    -0.191 NA
HETATM    5  C   UNL     1      -4.920  -0.978 -32.566  1.00  0.00     0.047 A 
HETATM    6  C   UNL     1      -5.902  -0.284 -33.286  1.00  0.00     0.032 A 
HETATM    7  C   UNL     1      -6.320  -0.842 -34.517  1.00  0.00     0.055 A 
HETATM    8 CL   UNL     1      -7.479  -0.012 -35.499  1.00  0.00    -0.082 Cl
HETATM    9  C   UNL     1      -5.826  -2.067 -34.973  1.00  0.00     0.027 A 
ENDROOT
BRANCH   6  10
HETATM   10  N   UNL     1      -6.360   0.999 -32.909  1.00  0.00    -0.286 NA
HETATM   11  H   UNL     1      -6.572   1.527 -33.766  1.00  0.00     0.128 HD
BRANCH  10  12
HETATM   12  C   UNL     1      -7.419   1.150 -31.902  1.00  0.00     0.149 C 
BRANCH  12  13
HETATM   13  C   UNL     1      -8.736   1.351 -32.633  1.00  0.00     0.029 A 
HETATM   14  N   UNL     1      -8.860   2.548 -33.315  1.00  0.00    -0.338 N 
HETATM   15  H   UNL     1      -8.083   3.211 -33.273  1.00  0.00     0.168 HD
HETATM   16  C   UNL     1      -9.949   2.833 -33.981  1.00  0.00     0.158 A 
HETATM   17  N   UNL     1     -10.963   1.996 -34.028  1.00  0.00    -0.269 N 
HETATM   18  S   UNL     1     -10.200   4.307 -34.861  1.00  0.00    -0.064 SA
HETATM   19  C   UNL     1     -10.971   0.744 -33.378  1.00  0.00     0.255 A 
HETATM   20  C   UNL     1     -12.017   2.477 -34.780  1.00  0.00     0.109 A 
HETATM   21  O   UNL     1     -11.926  -0.007 -33.445  1.00  0.00    -0.268 OA
HETATM   22  C   UNL     1      -9.734   0.457 -32.631  1.00  0.00     0.101 A 
HETATM   23  C   UNL     1     -11.781   3.691 -35.298  1.00  0.00     0.071 A 
ENDBRANCH  12  13
ENDBRANCH  10  12
ENDBRANCH   6  10
TORSDOF 3
ENDMDL
MODEL 7
REMARK VINA RESULT:      -7.3      5.136      6.777
REMARK  3 active torsions:
REMARK  status: ('A' for Active; 'I' for Inactive)
REMARK    1  A    between atoms: C_6  and  N_7 
REMARK    2  A    between atoms: N_7  and  C_8 
REMARK    3  A    between atoms: C_8  and  C_9 
ROOT
HETATM    1  C   UNL     1      -6.983  -0.842 -35.143  1.00  0.00     0.024 A 
HETATM    2  C   UNL     1      -6.070  -1.496 -34.314  1.00  0.00     0.046 A 
HETATM    3  C   UNL     1      -5.747  -2.875 -34.537  1.00  0.00     0.099 C 
HETATM    4  N   UNL     1      -5.443  -3.984 -34.682  1.00  0.00    -0.191 NA
HETATM    5  C   UNL     1      -5.443  -0.801 -33.265  1.00  0.00     0.047 A 
HETATM    6  C   UNL     1      -5.739   0.544 -33.006  1.00  0.00     0.032 A 
HETATM    7  C   UNL     1      -6.639   1.191 -33.885  1.00  0.00     0.055 A 
HETATM    8 CL   UNL     1      -7.004   2.870 -33.675  1.00  0.00    -0.082 Cl
HETATM    9  C   UNL     1      -7.264   0.506 -34.931  1.00  0.00     0.027 A 
ENDROOT
BRANCH   6  10
HETATM   10  N   UNL     1      -5.063   1.297 -32.020  1.00  0.00    -0.286 NA
HETATM   11  H   UNL     1      -5.264   0.877 -31.103  1.00  0.00     0.128 HD
BRANCH  10  12
HETATM   12  C   UNL     1      -3.636   1.617 -32.169  1.00  0.00     0.149 C 
BRANCH  12  13
HETATM   13  C   UNL     1      -3.490   3.130 -32.149  1.00  0.00     0.029 A 
HETATM   14  N   UNL     1      -2.660   3.659 -33.122  1.00  0.00    -0.338 N 
HETATM   15  H   UNL     1      -2.200   3.013 -33.767  1.00  0.00     0.168 HD
HETATM   16  C   UNL     1      -2.457   4.948 -33.204  1.00  0.00     0.158 A 
HETATM   17  N   UNL     1      -3.031   5.788 -32.369  1.00  0.00    -0.269 N 
HETATM   18  S   UNL     1      -1.433   5.704 -34.383  1.00  0.00    -0.064 SA
HETATM   19  C   UNL     1      -3.896   5.384 -31.330  1.00  0.00     0.255 A 
HETATM   20  C   UNL     1      -2.693   7.103 -32.618  1.00  0.00     0.109 A 
HETATM   21  O   UNL     1      -4.412   6.188 -30.577  1.00  0.00    -0.268 OA
HETATM   22  C   UNL     1      -4.099   3.927 -31.261  1.00  0.00     0.101 A 
HETATM   23  C   UNL     1      -1.852   7.241 -33.655  1.00  0.00     0.071 A 
ENDBRANCH  12  13
ENDBRANCH  10  12
ENDBRANCH   6  10
TORSDOF 3
ENDMDL
MODEL 8
REMARK VINA RESULT:      -7.2     10.084     12.158
REMARK  3 active torsions:
REMARK  status: ('A' for Active; 'I' for Inactive)
REMARK    1  A    between atoms: C_6  and  N_7 
REMARK    2  A    between atoms: N_7  and  C_8 
REMARK    3  A    between atoms: C_8  and  C_9 
ROOT
HETATM    1  C   UNL     1       0.075   9.312 -26.504  1.00  0.00     0.024 A 
HETATM    2  C   UNL     1       1.134   8.410 -26.388  1.00  0.00     0.046 A 
HETATM    3  C   UNL     1       2.257   8.713 -25.549  1.00  0.00     0.099 C 
HETATM    4  N   UNL     1       3.180   8.905 -24.875  1.00  0.00    -0.191 NA
HETATM    5  C   UNL     1       1.100   7.186 -27.079  1.00  0.00     0.047 A 
HETATM    6  C   UNL     1       0.027   6.856 -27.918  1.00  0.00     0.032 A 
HETATM    7  C   UNL     1      -1.049   7.772 -27.987  1.00  0.00     0.055 A 
HETATM    8 CL   UNL     1      -2.442   7.408 -28.946  1.00  0.00    -0.082 Cl
HETATM    9  C   UNL     1      -1.021   8.990 -27.300  1.00  0.00     0.027 A 
ENDROOT
BRANCH   6  10
HETATM   10  N   UNL     1      -0.084   5.600 -28.556  1.00  0.00    -0.286 NA
HETATM   11  H   UNL     1      -1.081   5.354 -28.608  1.00  0.00     0.128 HD
BRANCH  10  12
HETATM   12  C   UNL     1       0.605   5.343 -29.829  1.00  0.00     0.149 C 
BRANCH  12  13
HETATM   13  C   UNL     1      -0.386   5.585 -30.955  1.00  0.00     0.029 A 
HETATM   14  N   UNL     1      -1.463   4.716 -30.995  1.00  0.00    -0.338 N 
HETATM   15  H   UNL     1      -1.514   3.978 -30.290  1.00  0.00     0.168 HD
HETATM   16  C   UNL     1      -2.380   4.826 -31.920  1.00  0.00     0.158 A 
HETATM   17  N   UNL     1      -2.317   5.762 -32.843  1.00  0.00    -0.269 N 
HETATM   18  S   UNL     1      -3.762   3.785 -32.056  1.00  0.00    -0.064 SA
HETATM   19  C   UNL     1      -1.275   6.710 -32.921  1.00  0.00     0.255 A 
HETATM   20  C   UNL     1      -3.377   5.713 -33.726  1.00  0.00     0.109 A 
HETATM   21  O   UNL     1      -1.249   7.564 -33.787  1.00  0.00    -0.268 OA
HETATM   22  C   UNL     1      -0.254   6.555 -31.870  1.00  0.00     0.101 A 
HETATM   23  C   UNL     1      -4.241   4.724 -33.455  1.00  0.00     0.071 A 
ENDBRANCH  12  13
ENDBRANCH  10  12
ENDBRANCH   6  10
TORSDOF 3
ENDMDL
MODEL 9
REMARK VINA RESULT:      -7.2      6.019      8.489
REMARK  3 active torsions:
REMARK  status: ('A' for Active; 'I' for Inactive)
REMARK    1  A    between atoms: C_6  and  N_7 
REMARK    2  A    between atoms: N_7  and  C_8 
REMARK    3  A    between atoms: C_8  and  C_9 
ROOT
HETATM    1  C   UNL     1      -0.481   6.996 -31.916  1.00  0.00     0.024 A 
HETATM    2  C   UNL     1      -0.633   6.070 -30.883  1.00  0.00     0.046 A 
HETATM    3  C   UNL     1      -0.097   6.341 -29.581  1.00  0.00     0.099 C 
HETATM    4  N   UNL     1       0.306   6.518 -28.509  1.00  0.00    -0.191 NA
HETATM    5  C   UNL     1      -1.332   4.870 -31.105  1.00  0.00     0.047 A 
HETATM    6  C   UNL     1      -1.862   4.561 -32.365  1.00  0.00     0.032 A 
HETATM    7  C   UNL     1      -1.725   5.534 -33.383  1.00  0.00     0.055 A 
HETATM    8 CL   UNL     1      -2.411   5.259 -34.948  1.00  0.00    -0.082 Cl
HETATM    9  C   UNL     1      -1.033   6.730 -33.168  1.00  0.00     0.027 A 
ENDROOT
BRANCH   6  10
HETATM   10  N   UNL     1      -2.646   3.410 -32.601  1.00  0.00    -0.286 NA
HETATM   11  H   UNL     1      -2.096   2.762 -33.181  1.00  0.00     0.128 HD
BRANCH  10  12
HETATM   12  C   UNL     1      -3.308   2.714 -31.489  1.00  0.00     0.149 C 
BRANCH  12  13
HETATM   13  C   UNL     1      -3.754   1.349 -31.989  1.00  0.00     0.029 A 
HETATM   14  N   UNL     1      -4.811   1.361 -32.882  1.00  0.00    -0.338 N 
HETATM   15  H   UNL     1      -5.222   2.263 -33.132  1.00  0.00     0.168 HD
HETATM   16  C   UNL     1      -5.282   0.248 -33.380  1.00  0.00     0.158 A 
HETATM   17  N   UNL     1      -4.772  -0.921 -33.053  1.00  0.00    -0.269 N 
HETATM   18  S   UNL     1      -6.604   0.159 -34.500  1.00  0.00    -0.064 SA
HETATM   19  C   UNL     1      -3.697  -1.077 -32.154  1.00  0.00     0.255 A 
HETATM   20  C   UNL     1      -5.405  -1.974 -33.683  1.00  0.00     0.109 A 
HETATM   21  O   UNL     1      -3.248  -2.173 -31.876  1.00  0.00    -0.268 OA
HETATM   22  C   UNL     1      -3.193   0.194 -31.605  1.00  0.00     0.101 A 
HETATM   23  C   UNL     1      -6.402  -1.581 -34.489  1.00  0.00     0.071 A 
ENDBRANCH  12  13
ENDBRANCH  10  12
ENDBRANCH   6  10
TORSDOF 3
ENDMDL
MODEL 10
REMARK VINA RESULT:      -7.2      3.371      7.173
REMARK  3 active torsions:
REMARK  status: ('A' for Active; 'I' for Inactive)
REMARK    1  A    between atoms: C_6  and  N_7 
REMARK    2  A    between atoms: N_7  and  C_8 
REMARK    3  A    between atoms: C_8  and  C_9 
ROOT
HETATM    1  C   UNL     1     -11.974   2.488 -33.766  1.00  0.00     0.024 A 
HETATM    2  C   UNL     1     -11.553   1.160 -33.677  1.00  0.00     0.046 A 
HETATM    3  C   UNL     1     -12.514   0.100 -33.570  1.00  0.00     0.099 C 
HETATM    4  N   UNL     1     -13.250  -0.792 -33.496  1.00  0.00    -0.191 NA
HETATM    5  C   UNL     1     -10.183   0.847 -33.709  1.00  0.00     0.047 A 
HETATM    6  C   UNL     1      -9.211   1.853 -33.800  1.00  0.00     0.032 A 
HETATM    7  C   UNL     1      -9.667   3.187 -33.928  1.00  0.00     0.055 A 
HETATM    8 CL   UNL     1      -8.533   4.480 -34.114  1.00  0.00    -0.082 Cl
HETATM    9  C   UNL     1     -11.029   3.503 -33.898  1.00  0.00     0.027 A 
ENDROOT
BRANCH   6  10
HETATM   10  N   UNL     1      -7.832   1.572 -33.926  1.00  0.00    -0.286 NA
HETATM   11  H   UNL     1      -7.502   1.182 -33.033  1.00  0.00     0.128 HD
BRANCH  10  12
HETATM   12  C   UNL     1      -7.326   0.805 -35.073  1.00  0.00     0.149 C 
BRANCH  12  13
HETATM   13  C   UNL     1      -6.405  -0.281 -34.541  1.00  0.00     0.029 A 
HETATM   14  N   UNL     1      -5.483   0.134 -33.595  1.00  0.00    -0.338 N 
HETATM   15  H   UNL     1      -5.473   1.121 -33.332  1.00  0.00     0.168 HD
HETATM   16  C   UNL     1      -4.638  -0.711 -33.066  1.00  0.00     0.158 A 
HETATM   17  N   UNL     1      -4.630  -1.981 -33.410  1.00  0.00    -0.269 N 
HETATM   18  S   UNL     1      -3.445  -0.287 -31.880  1.00  0.00    -0.064 SA
HETATM   19  C   UNL     1      -5.511  -2.536 -34.361  1.00  0.00     0.255 A 
HETATM   20  C   UNL     1      -3.666  -2.709 -32.740  1.00  0.00     0.109 A 
HETATM   21  O   UNL     1      -5.478  -3.717 -34.653  1.00  0.00    -0.268 OA
HETATM   22  C   UNL     1      -6.446  -1.558 -34.944  1.00  0.00     0.101 A 
HETATM   23  C   UNL     1      -2.945  -1.966 -31.887  1.00  0.00     0.071 A 
ENDBRANCH  12  13
ENDBRANCH  10  12
ENDBRANCH   6  10
TORSDOF 3
ENDMDL
