MODEL 1
REMARK VINA RESULT:      -8.6      0.000      0.000
REMARK  6 active torsions:
REMARK  status: ('A' for Active; 'I' for Inactive)
REMARK    1  A    between atoms: C_2  and  O_3 
REMARK    2  A    between atoms: C_2  and  C_4 
REMARK    3  A    between atoms: C_7  and  N_8 
REMARK       I    between atoms: N_8  and  C_9 
REMARK    4  A    between atoms: C_9  and  C_10 
REMARK    5  A    between atoms: C_13  and  C_14 
REMARK    6  A    between atoms: C_19  and  C_20 
ROOT
HETATM    1  C   UNL     1      -6.483   3.293 -32.580  1.00  0.00     0.096 C 
HETATM    2  C   UNL     1      -5.569   4.191 -32.064  1.00  0.00     0.138 C 
HETATM    3  N   UNL     1      -6.086   5.441 -32.322  1.00  0.00    -0.240 N 
HETATM    4  C   UNL     1      -5.437   6.692 -31.967  1.00  0.00     0.221 C 
HETATM    5  C   UNL     1      -4.296   6.438 -30.965  1.00  0.00     0.067 C 
HETATM    6  C   UNL     1      -3.461   5.210 -31.361  1.00  0.00     0.125 C 
HETATM    7  N   UNL     1      -4.361   4.043 -31.446  1.00  0.00    -0.365 N 
HETATM    8  N   UNL     1      -7.162   5.416 -33.122  1.00  0.00    -0.181 NA
HETATM    9  C   UNL     1      -7.421   4.113 -33.252  1.00  0.00     0.160 C 
HETATM   10  H   UNL     1      -3.836   3.186 -31.634  1.00  0.00     0.162 HD
ENDROOT
BRANCH   1  11
HETATM   11  C   UNL     1      -6.501   1.840 -32.521  1.00  0.00     0.261 C 
HETATM   12  N   UNL     1      -6.028   1.238 -33.673  1.00  0.00    -0.323 N 
HETATM   13  H   UNL     1      -5.661   1.871 -34.376  1.00  0.00     0.169 HD
HETATM   14  O   UNL     1      -6.859   1.268 -31.499  1.00  0.00    -0.267 OA
BRANCH  12  15
HETATM   15  C   UNL     1      -5.861  -0.140 -33.915  1.00  0.00     0.035 A 
HETATM   16  C   UNL     1      -4.734  -0.867 -33.533  1.00  0.00     0.030 A 
HETATM   17  C   UNL     1      -4.623  -2.230 -33.840  1.00  0.00     0.012 A 
HETATM   18  C   UNL     1      -5.634  -2.898 -34.542  1.00  0.00    -0.030 A 
HETATM   19  C   UNL     1      -6.778  -2.165 -34.894  1.00  0.00     0.012 A 
HETATM   20  C   UNL     1      -6.891  -0.805 -34.584  1.00  0.00     0.030 A 
BRANCH  18  21
HETATM   21  C   UNL     1      -5.551  -4.358 -34.936  1.00  0.00     0.147 C 
HETATM   22  C   UNL     1      -4.553  -5.215 -34.162  1.00  0.00     0.044 C 
BRANCH  21  23
HETATM   23  O   UNL     1      -6.853  -4.923 -34.792  1.00  0.00    -0.391 OA
HETATM   24  H   UNL     1      -7.228  -5.014 -35.683  1.00  0.00     0.210 HD
ENDBRANCH  21  23
ENDBRANCH  18  21
ENDBRANCH  12  15
ENDBRANCH   1  11
BRANCH   4  25
HETATM   25  C   UNL     1      -6.419   7.678 -31.371  1.00  0.00     0.409 C 
HETATM   26  F   UNL     1      -7.294   7.083 -30.528  1.00  0.00    -0.169 F 
HETATM   27  F   UNL     1      -5.745   8.603 -30.635  1.00  0.00    -0.169 F 
HETATM   28  F   UNL     1      -7.121   8.370 -32.291  1.00  0.00    -0.169 F 
ENDBRANCH   4  25
BRANCH   6  29
HETATM   29  C   UNL     1      -2.619   5.464 -32.595  1.00  0.00     0.005 A 
HETATM   30  S   UNL     1      -1.800   6.967 -32.773  1.00  0.00    -0.104 SA
HETATM   31  C   UNL     1      -1.161   6.522 -34.292  1.00  0.00     0.050 A 
HETATM   32  C   UNL     1      -1.535   5.249 -34.656  1.00  0.00     0.008 A 
HETATM   33  C   UNL     1      -2.370   4.638 -33.678  1.00  0.00     0.017 A 
ENDBRANCH   6  29
TORSDOF 6
ENDMDL
MODEL 2
REMARK VINA RESULT:      -8.5      4.719      6.835
REMARK  6 active torsions:
REMARK  status: ('A' for Active; 'I' for Inactive)
REMARK    1  A    between atoms: C_2  and  O_3 
REMARK    2  A    between atoms: C_2  and  C_4 
REMARK    3  A    between atoms: C_7  and  N_8 
REMARK       I    between atoms: N_8  and  C_9 
REMARK    4  A    between atoms: C_9  and  C_10 
REMARK    5  A    between atoms: C_13  and  C_14 
REMARK    6  A    between atoms: C_19  and  C_20 
ROOT
HETATM    1  C   UNL     1      -8.988   2.230 -33.058  1.00  0.00     0.096 C 
HETATM    2  C   UNL     1     -10.064   2.506 -33.880  1.00  0.00     0.138 C 
HETATM    3  N   UNL     1     -10.255   3.867 -33.802  1.00  0.00    -0.240 N 
HETATM    4  C   UNL     1     -11.303   4.594 -34.498  1.00  0.00     0.221 C 
HETATM    5  C   UNL     1     -11.932   3.712 -35.592  1.00  0.00     0.067 C 
HETATM    6  C   UNL     1     -12.175   2.280 -35.092  1.00  0.00     0.125 C 
HETATM    7  N   UNL     1     -10.887   1.721 -34.635  1.00  0.00    -0.365 N 
HETATM    8  N   UNL     1      -9.508   4.455 -32.857  1.00  0.00    -0.181 NA
HETATM    9  C   UNL     1      -8.716   3.468 -32.429  1.00  0.00     0.160 C 
HETATM   10  H   UNL     1     -10.987   0.741 -34.362  1.00  0.00     0.162 HD
ENDROOT
BRANCH   1  11
HETATM   11  C   UNL     1      -8.291   0.976 -32.821  1.00  0.00     0.261 C 
HETATM   12  N   UNL     1      -7.572   0.533 -33.916  1.00  0.00    -0.323 N 
HETATM   13  H   UNL     1      -7.555   1.164 -34.711  1.00  0.00     0.169 HD
HETATM   14  O   UNL     1      -8.332   0.444 -31.719  1.00  0.00    -0.267 OA
BRANCH  12  15
HETATM   15  C   UNL     1      -6.747  -0.606 -33.998  1.00  0.00     0.035 A 
HETATM   16  C   UNL     1      -5.415  -0.635 -33.584  1.00  0.00     0.030 A 
HETATM   17  C   UNL     1      -4.645  -1.797 -33.729  1.00  0.00     0.012 A 
HETATM   18  C   UNL     1      -5.186  -2.958 -34.297  1.00  0.00    -0.030 A 
HETATM   19  C   UNL     1      -6.536  -2.928 -34.682  1.00  0.00     0.012 A 
HETATM   20  C   UNL     1      -7.306  -1.769 -34.533  1.00  0.00     0.030 A 
BRANCH  18  21
HETATM   21  C   UNL     1      -4.392  -4.228 -34.516  1.00  0.00     0.147 C 
HETATM   22  C   UNL     1      -3.459  -4.649 -33.384  1.00  0.00     0.044 C 
BRANCH  21  23
HETATM   23  O   UNL     1      -5.318  -5.284 -34.767  1.00  0.00    -0.391 OA
HETATM   24  H   UNL     1      -5.684  -5.557 -33.910  1.00  0.00     0.210 HD
ENDBRANCH  21  23
ENDBRANCH  18  21
ENDBRANCH  12  15
ENDBRANCH   1  11
BRANCH   4  25
HETATM   25  C   UNL     1     -10.776   5.869 -35.120  1.00  0.00     0.409 C 
HETATM   26  F   UNL     1      -9.727   5.642 -35.943  1.00  0.00    -0.169 F 
HETATM   27  F   UNL     1     -11.748   6.438 -35.885  1.00  0.00    -0.169 F 
HETATM   28  F   UNL     1     -10.413   6.805 -34.219  1.00  0.00    -0.169 F 
ENDBRANCH   4  25
BRANCH   6  29
HETATM   29  C   UNL     1     -13.301   2.211 -34.079  1.00  0.00     0.005 A 
HETATM   30  S   UNL     1     -14.489   0.973 -34.208  1.00  0.00    -0.104 SA
HETATM   31  C   UNL     1     -15.342   1.549 -32.846  1.00  0.00     0.050 A 
HETATM   32  C   UNL     1     -14.732   2.645 -32.281  1.00  0.00     0.008 A 
HETATM   33  C   UNL     1     -13.555   3.024 -32.988  1.00  0.00     0.017 A 
ENDBRANCH   6  29
TORSDOF 6
ENDMDL
MODEL 3
REMARK VINA RESULT:      -8.3      3.990      8.419
REMARK  6 active torsions:
REMARK  status: ('A' for Active; 'I' for Inactive)
REMARK    1  A    between atoms: C_2  and  O_3 
REMARK    2  A    between atoms: C_2  and  C_4 
REMARK    3  A    between atoms: C_7  and  N_8 
REMARK       I    between atoms: N_8  and  C_9 
REMARK    4  A    between atoms: C_9  and  C_10 
REMARK    5  A    between atoms: C_13  and  C_14 
REMARK    6  A    between atoms: C_19  and  C_20 
ROOT
HETATM    1  C   UNL     1      -5.656   1.306 -31.642  1.00  0.00     0.096 C 
HETATM    2  C   UNL     1      -6.230   0.761 -32.775  1.00  0.00     0.138 C 
HETATM    3  N   UNL     1      -7.484   0.337 -32.392  1.00  0.00    -0.240 N 
HETATM    4  C   UNL     1      -8.436  -0.322 -33.270  1.00  0.00     0.221 C 
HETATM    5  C   UNL     1      -8.008  -0.161 -34.741  1.00  0.00     0.067 C 
HETATM    6  C   UNL     1      -6.498  -0.386 -34.917  1.00  0.00     0.125 C 
HETATM    7  N   UNL     1      -5.781   0.569 -34.048  1.00  0.00    -0.365 N 
HETATM    8  N   UNL     1      -7.684   0.400 -31.068  1.00  0.00    -0.181 NA
HETATM    9  C   UNL     1      -6.589   1.018 -30.617  1.00  0.00     0.160 C 
HETATM   10  H   UNL     1      -4.770   0.506 -34.190  1.00  0.00     0.162 HD
ENDROOT
BRANCH   1  11
HETATM   11  C   UNL     1      -4.380   1.982 -31.475  1.00  0.00     0.261 C 
HETATM   12  N   UNL     1      -4.452   3.348 -31.682  1.00  0.00    -0.323 N 
HETATM   13  H   UNL     1      -5.384   3.715 -31.846  1.00  0.00     0.169 HD
HETATM   14  O   UNL     1      -3.388   1.354 -31.129  1.00  0.00    -0.267 OA
BRANCH  12  15
HETATM   15  C   UNL     1      -3.417   4.293 -31.543  1.00  0.00     0.035 A 
HETATM   16  C   UNL     1      -2.183   4.197 -32.183  1.00  0.00     0.030 A 
HETATM   17  C   UNL     1      -1.187   5.159 -31.968  1.00  0.00     0.012 A 
HETATM   18  C   UNL     1      -1.399   6.240 -31.103  1.00  0.00    -0.030 A 
HETATM   19  C   UNL     1      -2.656   6.345 -30.487  1.00  0.00     0.012 A 
HETATM   20  C   UNL     1      -3.653   5.387 -30.705  1.00  0.00     0.030 A 
BRANCH  18  21
HETATM   21  C   UNL     1      -0.348   7.287 -30.801  1.00  0.00     0.147 C 
HETATM   22  C   UNL     1      -0.040   7.533 -29.326  1.00  0.00     0.044 C 
BRANCH  21  23
HETATM   23  O   UNL     1       0.855   6.903 -31.465  1.00  0.00    -0.391 OA
HETATM   24  H   UNL     1       0.603   6.345 -32.218  1.00  0.00     0.210 HD
ENDBRANCH  21  23
ENDBRANCH  18  21
ENDBRANCH  12  15
ENDBRANCH   1  11
BRANCH   4  25
HETATM   25  C   UNL     1      -9.833   0.231 -33.089  1.00  0.00     0.409 C 
HETATM   26  F   UNL     1      -9.857   1.302 -32.263  1.00  0.00    -0.169 F 
HETATM   27  F   UNL     1     -10.311   0.661 -34.289  1.00  0.00    -0.169 F 
HETATM   28  F   UNL     1     -10.722  -0.675 -32.635  1.00  0.00    -0.169 F 
ENDBRANCH   4  25
BRANCH   6  29
HETATM   29  C   UNL     1      -6.111  -1.840 -34.732  1.00  0.00     0.005 A 
HETATM   30  S   UNL     1      -4.549  -2.235 -34.126  1.00  0.00    -0.104 SA
HETATM   31  C   UNL     1      -4.855  -3.912 -34.229  1.00  0.00     0.050 A 
HETATM   32  C   UNL     1      -6.123  -4.178 -34.690  1.00  0.00     0.008 A 
HETATM   33  C   UNL     1      -6.849  -2.986 -34.975  1.00  0.00     0.017 A 
ENDBRANCH   6  29
TORSDOF 6
ENDMDL
MODEL 4
REMARK VINA RESULT:      -8.1      4.989      7.362
REMARK  6 active torsions:
REMARK  status: ('A' for Active; 'I' for Inactive)
REMARK    1  A    between atoms: C_2  and  O_3 
REMARK    2  A    between atoms: C_2  and  C_4 
REMARK    3  A    between atoms: C_7  and  N_8 
REMARK       I    between atoms: N_8  and  C_9 
REMARK    4  A    between atoms: C_9  and  C_10 
REMARK    5  A    between atoms: C_13  and  C_14 
REMARK    6  A    between atoms: C_19  and  C_20 
ROOT
HETATM    1  C   UNL     1      -8.191   3.102 -32.390  1.00  0.00     0.096 C 
HETATM    2  C   UNL     1      -7.057   2.390 -32.048  1.00  0.00     0.138 C 
HETATM    3  N   UNL     1      -6.026   2.966 -32.756  1.00  0.00    -0.240 N 
HETATM    4  C   UNL     1      -4.645   2.516 -32.715  1.00  0.00     0.221 C 
HETATM    5  C   UNL     1      -4.427   1.563 -31.526  1.00  0.00     0.067 C 
HETATM    6  C   UNL     1      -5.581   0.556 -31.391  1.00  0.00     0.125 C 
HETATM    7  N   UNL     1      -6.841   1.311 -31.243  1.00  0.00    -0.365 N 
HETATM    8  N   UNL     1      -6.440   3.866 -33.660  1.00  0.00    -0.181 NA
HETATM    9  C   UNL     1      -7.748   3.972 -33.415  1.00  0.00     0.160 C 
HETATM   10  H   UNL     1      -7.629   0.680 -31.074  1.00  0.00     0.162 HD
ENDROOT
BRANCH   1  11
HETATM   11  C   UNL     1      -9.550   2.993 -31.885  1.00  0.00     0.261 C 
HETATM   12  N   UNL     1     -10.513   3.113 -32.871  1.00  0.00    -0.323 N 
HETATM   13  H   UNL     1     -10.158   3.182 -33.820  1.00  0.00     0.169 HD
HETATM   14  O   UNL     1      -9.752   2.763 -30.700  1.00  0.00    -0.267 OA
BRANCH  12  15
HETATM   15  C   UNL     1     -11.909   2.997 -32.726  1.00  0.00     0.035 A 
HETATM   16  C   UNL     1     -12.680   3.828 -31.914  1.00  0.00     0.030 A 
HETATM   17  C   UNL     1     -14.062   3.630 -31.792  1.00  0.00     0.012 A 
HETATM   18  C   UNL     1     -14.707   2.592 -32.475  1.00  0.00    -0.030 A 
HETATM   19  C   UNL     1     -13.928   1.781 -33.315  1.00  0.00     0.012 A 
HETATM   20  C   UNL     1     -12.549   1.981 -33.441  1.00  0.00     0.030 A 
BRANCH  18  21
HETATM   21  C   UNL     1     -16.188   2.305 -32.351  1.00  0.00     0.147 C 
HETATM   22  C   UNL     1     -17.086   3.497 -32.029  1.00  0.00     0.044 C 
BRANCH  21  23
HETATM   23  O   UNL     1     -16.624   1.718 -33.577  1.00  0.00    -0.391 OA
HETATM   24  H   UNL     1     -17.357   1.119 -33.365  1.00  0.00     0.210 HD
ENDBRANCH  21  23
ENDBRANCH  18  21
ENDBRANCH  12  15
ENDBRANCH   1  11
BRANCH   4  25
HETATM   25  C   UNL     1      -3.684   3.681 -32.610  1.00  0.00     0.409 C 
HETATM   26  F   UNL     1      -4.180   4.686 -31.852  1.00  0.00    -0.169 F 
HETATM   27  F   UNL     1      -2.538   3.271 -32.001  1.00  0.00    -0.169 F 
HETATM   28  F   UNL     1      -3.313   4.191 -33.801  1.00  0.00    -0.169 F 
ENDBRANCH   4  25
BRANCH   6  29
HETATM   29  C   UNL     1      -5.574  -0.473 -32.503  1.00  0.00     0.005 A 
HETATM   30  S   UNL     1      -4.120  -1.315 -32.876  1.00  0.00    -0.104 SA
HETATM   31  C   UNL     1      -4.865  -2.188 -34.140  1.00  0.00     0.050 A 
HETATM   32  C   UNL     1      -6.197  -1.873 -34.270  1.00  0.00     0.008 A 
HETATM   33  C   UNL     1      -6.608  -0.889 -33.325  1.00  0.00     0.017 A 
ENDBRANCH   6  29
TORSDOF 6
ENDMDL
MODEL 5
REMARK VINA RESULT:      -7.9      6.251      7.849
REMARK  6 active torsions:
REMARK  status: ('A' for Active; 'I' for Inactive)
REMARK    1  A    between atoms: C_2  and  O_3 
REMARK    2  A    between atoms: C_2  and  C_4 
REMARK    3  A    between atoms: C_7  and  N_8 
REMARK       I    between atoms: N_8  and  C_9 
REMARK    4  A    between atoms: C_9  and  C_10 
REMARK    5  A    between atoms: C_13  and  C_14 
REMARK    6  A    between atoms: C_19  and  C_20 
ROOT
HETATM    1  C   UNL     1     -11.230   1.889 -34.085  1.00  0.00     0.096 C 
HETATM    2  C   UNL     1     -12.005   2.546 -33.150  1.00  0.00     0.138 C 
HETATM    3  N   UNL     1     -13.311   2.340 -33.534  1.00  0.00    -0.240 N 
HETATM    4  C   UNL     1     -14.470   2.875 -32.841  1.00  0.00     0.221 C 
HETATM    5  C   UNL     1     -14.069   3.390 -31.446  1.00  0.00     0.067 C 
HETATM    6  C   UNL     1     -12.753   4.181 -31.493  1.00  0.00     0.125 C 
HETATM    7  N   UNL     1     -11.705   3.307 -32.058  1.00  0.00    -0.365 N 
HETATM    8  N   UNL     1     -13.425   1.761 -34.739  1.00  0.00    -0.181 NA
HETATM    9  C   UNL     1     -12.164   1.458 -35.057  1.00  0.00     0.160 C 
HETATM   10  H   UNL     1     -10.792   3.769 -32.039  1.00  0.00     0.162 HD
ENDROOT
BRANCH   1  11
HETATM   11  C   UNL     1      -9.789   1.695 -34.135  1.00  0.00     0.261 C 
HETATM   12  N   UNL     1      -9.395   0.419 -33.774  1.00  0.00    -0.323 N 
HETATM   13  H   UNL     1     -10.149  -0.236 -33.598  1.00  0.00     0.169 HD
HETATM   14  O   UNL     1      -9.057   2.597 -34.521  1.00  0.00    -0.267 OA
BRANCH  12  15
HETATM   15  C   UNL     1      -8.088  -0.107 -33.773  1.00  0.00     0.035 A 
HETATM   16  C   UNL     1      -7.483  -0.693 -34.884  1.00  0.00     0.030 A 
HETATM   17  C   UNL     1      -6.191  -1.228 -34.797  1.00  0.00     0.012 A 
HETATM   18  C   UNL     1      -5.473  -1.195 -33.595  1.00  0.00    -0.030 A 
HETATM   19  C   UNL     1      -6.079  -0.575 -32.491  1.00  0.00     0.012 A 
HETATM   20  C   UNL     1      -7.367  -0.037 -32.578  1.00  0.00     0.030 A 
BRANCH  18  21
HETATM   21  C   UNL     1      -4.091  -1.791 -33.431  1.00  0.00     0.147 C 
HETATM   22  C   UNL     1      -3.490  -1.735 -32.029  1.00  0.00     0.044 C 
BRANCH  21  23
HETATM   23  O   UNL     1      -4.150  -3.153 -33.853  1.00  0.00    -0.391 OA
HETATM   24  H   UNL     1      -3.488  -3.643 -33.340  1.00  0.00     0.210 HD
ENDBRANCH  21  23
ENDBRANCH  18  21
ENDBRANCH  12  15
ENDBRANCH   1  11
BRANCH   4  25
HETATM   25  C   UNL     1     -15.562   1.837 -32.699  1.00  0.00     0.409 C 
HETATM   26  F   UNL     1     -15.066   0.583 -32.598  1.00  0.00    -0.169 F 
HETATM   27  F   UNL     1     -16.263   2.066 -31.555  1.00  0.00    -0.169 F 
HETATM   28  F   UNL     1     -16.465   1.856 -33.701  1.00  0.00    -0.169 F 
ENDBRANCH   4  25
BRANCH   6  29
HETATM   29  C   UNL     1     -12.915   5.520 -32.184  1.00  0.00     0.005 A 
HETATM   30  S   UNL     1     -14.219   6.553 -31.744  1.00  0.00    -0.104 SA
HETATM   31  C   UNL     1     -13.764   7.735 -32.889  1.00  0.00     0.050 A 
HETATM   32  C   UNL     1     -12.631   7.374 -33.581  1.00  0.00     0.008 A 
HETATM   33  C   UNL     1     -12.139   6.101 -33.172  1.00  0.00     0.017 A 
ENDBRANCH   6  29
TORSDOF 6
ENDMDL
MODEL 6
REMARK VINA RESULT:      -7.7      2.469      3.968
REMARK  6 active torsions:
REMARK  status: ('A' for Active; 'I' for Inactive)
REMARK    1  A    between atoms: C_2  and  O_3 
REMARK    2  A    between atoms: C_2  and  C_4 
REMARK    3  A    between atoms: C_7  and  N_8 
REMARK       I    between atoms: N_8  and  C_9 
REMARK    4  A    between atoms: C_9  and  C_10 
REMARK    5  A    between atoms: C_13  and  C_14 
REMARK    6  A    between atoms: C_19  and  C_20 
ROOT
HETATM    1  C   UNL     1      -4.201   3.026 -31.948  1.00  0.00     0.096 C 
HETATM    2  C   UNL     1      -4.410   4.390 -31.891  1.00  0.00     0.138 C 
HETATM    3  N   UNL     1      -3.192   4.943 -31.565  1.00  0.00    -0.240 N 
HETATM    4  C   UNL     1      -2.954   6.364 -31.378  1.00  0.00     0.221 C 
HETATM    5  C   UNL     1      -4.134   7.182 -31.934  1.00  0.00     0.067 C 
HETATM    6  C   UNL     1      -5.484   6.559 -31.548  1.00  0.00     0.125 C 
HETATM    7  N   UNL     1      -5.517   5.171 -32.051  1.00  0.00    -0.365 N 
HETATM    8  N   UNL     1      -2.267   4.031 -31.230  1.00  0.00    -0.181 NA
HETATM    9  C   UNL     1      -2.869   2.868 -31.494  1.00  0.00     0.160 C 
HETATM   10  H   UNL     1      -6.429   4.741 -31.882  1.00  0.00     0.162 HD
ENDROOT
BRANCH   1  11
HETATM   11  C   UNL     1      -5.109   1.956 -32.330  1.00  0.00     0.261 C 
HETATM   12  N   UNL     1      -4.524   1.007 -33.149  1.00  0.00    -0.323 N 
HETATM   13  H   UNL     1      -3.531   1.129 -33.317  1.00  0.00     0.169 HD
HETATM   14  O   UNL     1      -6.251   1.928 -31.889  1.00  0.00    -0.267 OA
BRANCH  12  15
HETATM   15  C   UNL     1      -5.107  -0.175 -33.645  1.00  0.00     0.035 A 
HETATM   16  C   UNL     1      -6.413  -0.257 -34.128  1.00  0.00     0.030 A 
HETATM   17  C   UNL     1      -6.937  -1.478 -34.572  1.00  0.00     0.012 A 
HETATM   18  C   UNL     1      -6.171  -2.649 -34.541  1.00  0.00    -0.030 A 
HETATM   19  C   UNL     1      -4.847  -2.551 -34.083  1.00  0.00     0.012 A 
HETATM   20  C   UNL     1      -4.322  -1.331 -33.643  1.00  0.00     0.030 A 
BRANCH  18  21
HETATM   21  C   UNL     1      -6.695  -4.003 -34.971  1.00  0.00     0.147 C 
HETATM   22  C   UNL     1      -5.665  -5.123 -35.093  1.00  0.00     0.044 C 
BRANCH  21  23
HETATM   23  O   UNL     1      -7.698  -4.399 -34.037  1.00  0.00    -0.391 OA
HETATM   24  H   UNL     1      -7.243  -4.705 -33.236  1.00  0.00     0.210 HD
ENDBRANCH  21  23
ENDBRANCH  18  21
ENDBRANCH  12  15
ENDBRANCH   1  11
BRANCH   4  25
HETATM   25  C   UNL     1      -1.673   6.807 -32.052  1.00  0.00     0.409 C 
HETATM   26  F   UNL     1      -1.754   8.070 -32.527  1.00  0.00    -0.169 F 
HETATM   27  F   UNL     1      -0.656   6.801 -31.146  1.00  0.00    -0.169 F 
HETATM   28  F   UNL     1      -1.281   6.000 -33.059  1.00  0.00    -0.169 F 
ENDBRANCH   4  25
BRANCH   6  29
HETATM   29  C   UNL     1      -5.784   6.715 -30.070  1.00  0.00     0.005 A 
HETATM   30  S   UNL     1      -5.659   8.266 -29.334  1.00  0.00    -0.104 SA
HETATM   31  C   UNL     1      -6.085   7.652 -27.800  1.00  0.00     0.050 A 
HETATM   32  C   UNL     1      -6.343   6.301 -27.837  1.00  0.00     0.008 A 
HETATM   33  C   UNL     1      -6.175   5.762 -29.145  1.00  0.00     0.017 A 
ENDBRANCH   6  29
TORSDOF 6
ENDMDL
MODEL 7
REMARK VINA RESULT:      -7.7      4.133      5.624
REMARK  6 active torsions:
REMARK  status: ('A' for Active; 'I' for Inactive)
REMARK    1  A    between atoms: C_2  and  O_3 
REMARK    2  A    between atoms: C_2  and  C_4 
REMARK    3  A    between atoms: C_7  and  N_8 
REMARK       I    between atoms: N_8  and  C_9 
REMARK    4  A    between atoms: C_9  and  C_10 
REMARK    5  A    between atoms: C_13  and  C_14 
REMARK    6  A    between atoms: C_19  and  C_20 
ROOT
HETATM    1  C   UNL     1      -4.475   4.129 -32.640  1.00  0.00     0.096 C 
HETATM    2  C   UNL     1      -4.006   5.271 -32.019  1.00  0.00     0.138 C 
HETATM    3  N   UNL     1      -2.695   5.007 -31.691  1.00  0.00    -0.240 N 
HETATM    4  C   UNL     1      -1.815   5.933 -30.998  1.00  0.00     0.221 C 
HETATM    5  C   UNL     1      -2.419   7.349 -31.001  1.00  0.00     0.067 C 
HETATM    6  C   UNL     1      -3.924   7.322 -30.692  1.00  0.00     0.125 C 
HETATM    7  N   UNL     1      -4.589   6.459 -31.689  1.00  0.00    -0.365 N 
HETATM    8  N   UNL     1      -2.345   3.727 -31.886  1.00  0.00    -0.181 NA
HETATM    9  C   UNL     1      -3.414   3.203 -32.492  1.00  0.00     0.160 C 
HETATM   10  H   UNL     1      -5.604   6.471 -31.567  1.00  0.00     0.162 HD
ENDROOT
BRANCH   1  11
HETATM   11  C   UNL     1      -5.759   3.868 -33.270  1.00  0.00     0.261 C 
HETATM   12  N   UNL     1      -6.515   2.921 -32.602  1.00  0.00    -0.323 N 
HETATM   13  H   UNL     1      -6.122   2.587 -31.728  1.00  0.00     0.169 HD
HETATM   14  O   UNL     1      -6.101   4.500 -34.261  1.00  0.00    -0.267 OA
BRANCH  12  15
HETATM   15  C   UNL     1      -7.818   2.487 -32.914  1.00  0.00     0.035 A 
HETATM   16  C   UNL     1      -8.116   1.587 -33.937  1.00  0.00     0.030 A 
HETATM   17  C   UNL     1      -9.442   1.228 -34.212  1.00  0.00     0.012 A 
HETATM   18  C   UNL     1     -10.505   1.765 -33.476  1.00  0.00    -0.030 A 
HETATM   19  C   UNL     1     -10.193   2.647 -32.429  1.00  0.00     0.012 A 
HETATM   20  C   UNL     1      -8.869   3.001 -32.150  1.00  0.00     0.030 A 
BRANCH  18  21
HETATM   21  C   UNL     1     -11.959   1.446 -33.754  1.00  0.00     0.147 C 
HETATM   22  C   UNL     1     -12.412   1.558 -35.207  1.00  0.00     0.044 C 
BRANCH  21  23
HETATM   23  O   UNL     1     -12.211   0.120 -33.293  1.00  0.00    -0.391 OA
HETATM   24  H   UNL     1     -11.368  -0.360 -33.319  1.00  0.00     0.210 HD
ENDBRANCH  21  23
ENDBRANCH  18  21
ENDBRANCH  12  15
ENDBRANCH   1  11
BRANCH   4  25
HETATM   25  C   UNL     1      -0.440   5.971 -31.629  1.00  0.00     0.409 C 
HETATM   26  F   UNL     1      -0.491   5.847 -32.975  1.00  0.00    -0.169 F 
HETATM   27  F   UNL     1       0.144   7.174 -31.376  1.00  0.00    -0.169 F 
HETATM   28  F   UNL     1       0.405   5.036 -31.150  1.00  0.00    -0.169 F 
ENDBRANCH   4  25
BRANCH   6  29
HETATM   29  C   UNL     1      -4.204   6.965 -29.245  1.00  0.00     0.005 A 
HETATM   30  S   UNL     1      -3.233   7.645 -27.997  1.00  0.00    -0.104 SA
HETATM   31  C   UNL     1      -4.085   6.806 -26.779  1.00  0.00     0.050 A 
HETATM   32  C   UNL     1      -5.104   6.040 -27.295  1.00  0.00     0.008 A 
HETATM   33  C   UNL     1      -5.177   6.135 -28.715  1.00  0.00     0.017 A 
ENDBRANCH   6  29
TORSDOF 6
ENDMDL
MODEL 8
REMARK VINA RESULT:      -7.6      6.495      8.923
REMARK  6 active torsions:
REMARK  status: ('A' for Active; 'I' for Inactive)
REMARK    1  A    between atoms: C_2  and  O_3 
REMARK    2  A    between atoms: C_2  and  C_4 
REMARK    3  A    between atoms: C_7  and  N_8 
REMARK       I    between atoms: N_8  and  C_9 
REMARK    4  A    between atoms: C_9  and  C_10 
REMARK    5  A    between atoms: C_13  and  C_14 
REMARK    6  A    between atoms: C_19  and  C_20 
ROOT
HETATM    1  C   UNL     1     -10.616   1.484 -33.453  1.00  0.00     0.096 C 
HETATM    2  C   UNL     1      -9.309   1.911 -33.592  1.00  0.00     0.138 C 
HETATM    3  N   UNL     1      -8.527   0.796 -33.388  1.00  0.00    -0.240 N 
HETATM    4  C   UNL     1      -7.074   0.791 -33.421  1.00  0.00     0.221 C 
HETATM    5  C   UNL     1      -6.548   2.091 -34.056  1.00  0.00     0.067 C 
HETATM    6  C   UNL     1      -7.312   3.320 -33.543  1.00  0.00     0.125 C 
HETATM    7  N   UNL     1      -8.748   3.131 -33.834  1.00  0.00    -0.365 N 
HETATM    8  N   UNL     1      -9.219  -0.265 -32.949  1.00  0.00    -0.181 NA
HETATM    9  C   UNL     1     -10.489   0.142 -33.020  1.00  0.00     0.160 C 
HETATM   10  H   UNL     1      -9.287   3.960 -33.576  1.00  0.00     0.162 HD
ENDROOT
BRANCH   1  11
HETATM   11  C   UNL     1     -11.862   2.209 -33.646  1.00  0.00     0.261 C 
HETATM   12  N   UNL     1     -12.822   1.910 -32.696  1.00  0.00    -0.323 N 
HETATM   13  H   UNL     1     -12.520   1.292 -31.950  1.00  0.00     0.169 HD
HETATM   14  O   UNL     1     -11.965   3.031 -34.547  1.00  0.00    -0.267 OA
BRANCH  12  15
HETATM   15  C   UNL     1     -14.105   2.477 -32.565  1.00  0.00     0.035 A 
HETATM   16  C   UNL     1     -14.339   3.789 -32.154  1.00  0.00     0.030 A 
HETATM   17  C   UNL     1     -15.646   4.273 -32.012  1.00  0.00     0.012 A 
HETATM   18  C   UNL     1     -16.753   3.456 -32.273  1.00  0.00    -0.030 A 
HETATM   19  C   UNL     1     -16.507   2.147 -32.717  1.00  0.00     0.012 A 
HETATM   20  C   UNL     1     -15.202   1.664 -32.863  1.00  0.00     0.030 A 
BRANCH  18  21
HETATM   21  C   UNL     1     -18.186   3.911 -32.100  1.00  0.00     0.147 C 
HETATM   22  C   UNL     1     -18.558   5.245 -32.743  1.00  0.00     0.044 C 
BRANCH  21  23
HETATM   23  O   UNL     1     -19.035   2.893 -32.627  1.00  0.00    -0.391 OA
HETATM   24  H   UNL     1     -19.662   3.322 -33.230  1.00  0.00     0.210 HD
ENDBRANCH  21  23
ENDBRANCH  18  21
ENDBRANCH  12  15
ENDBRANCH   1  11
BRANCH   4  25
HETATM   25  C   UNL     1      -6.540  -0.398 -34.190  1.00  0.00     0.409 C 
HETATM   26  F   UNL     1      -7.045  -0.466 -35.443  1.00  0.00    -0.169 F 
HETATM   27  F   UNL     1      -5.191  -0.284 -34.326  1.00  0.00    -0.169 F 
HETATM   28  F   UNL     1      -6.756  -1.582 -33.582  1.00  0.00    -0.169 F 
ENDBRANCH   4  25
BRANCH   6  29
HETATM   29  C   UNL     1      -6.985   3.634 -32.096  1.00  0.00     0.005 A 
HETATM   30  S   UNL     1      -5.341   3.742 -31.599  1.00  0.00    -0.104 SA
HETATM   31  C   UNL     1      -5.777   4.063 -29.980  1.00  0.00     0.050 A 
HETATM   32  C   UNL     1      -7.142   4.114 -29.813  1.00  0.00     0.008 A 
HETATM   33  C   UNL     1      -7.838   3.871 -31.032  1.00  0.00     0.017 A 
ENDBRANCH   6  29
TORSDOF 6
ENDMDL
MODEL 9
REMARK VINA RESULT:      -7.5      6.285      8.084
REMARK  6 active torsions:
REMARK  status: ('A' for Active; 'I' for Inactive)
REMARK    1  A    between atoms: C_2  and  O_3 
REMARK    2  A    between atoms: C_2  and  C_4 
REMARK    3  A    between atoms: C_7  and  N_8 
REMARK       I    between atoms: N_8  and  C_9 
REMARK    4  A    between atoms: C_9  and  C_10 
REMARK    5  A    between atoms: C_13  and  C_14 
REMARK    6  A    between atoms: C_19  and  C_20 
ROOT
HETATM    1  C   UNL     1     -11.551   1.997 -33.577  1.00  0.00     0.096 C 
HETATM    2  C   UNL     1     -12.357   3.039 -33.160  1.00  0.00     0.138 C 
HETATM    3  N   UNL     1     -13.651   2.588 -33.293  1.00  0.00    -0.240 N 
HETATM    4  C   UNL     1     -14.835   3.373 -32.985  1.00  0.00     0.221 C 
HETATM    5  C   UNL     1     -14.452   4.619 -32.166  1.00  0.00     0.067 C 
HETATM    6  C   UNL     1     -13.190   5.296 -32.723  1.00  0.00     0.125 C 
HETATM    7  N   UNL     1     -12.094   4.306 -32.726  1.00  0.00    -0.365 N 
HETATM    8  N   UNL     1     -13.741   1.413 -33.934  1.00  0.00    -0.181 NA
HETATM    9  C   UNL     1     -12.466   1.040 -34.076  1.00  0.00     0.160 C 
HETATM   10  H   UNL     1     -11.213   4.734 -33.019  1.00  0.00     0.162 HD
ENDROOT
BRANCH   1  11
HETATM   11  C   UNL     1     -10.101   1.877 -33.572  1.00  0.00     0.261 C 
HETATM   12  N   UNL     1      -9.660   0.585 -33.353  1.00  0.00    -0.323 N 
HETATM   13  H   UNL     1     -10.386  -0.121 -33.302  1.00  0.00     0.169 HD
HETATM   14  O   UNL     1      -9.400   2.854 -33.801  1.00  0.00    -0.267 OA
BRANCH  12  15
HETATM   15  C   UNL     1      -8.329   0.123 -33.347  1.00  0.00     0.035 A 
HETATM   16  C   UNL     1      -7.531   0.062 -32.205  1.00  0.00     0.030 A 
HETATM   17  C   UNL     1      -6.202  -0.376 -32.282  1.00  0.00     0.012 A 
HETATM   18  C   UNL     1      -5.636  -0.761 -33.503  1.00  0.00    -0.030 A 
HETATM   19  C   UNL     1      -6.457  -0.726 -34.642  1.00  0.00     0.012 A 
HETATM   20  C   UNL     1      -7.785  -0.292 -34.565  1.00  0.00     0.030 A 
BRANCH  18  21
HETATM   21  C   UNL     1      -4.197  -1.205 -33.654  1.00  0.00     0.147 C 
HETATM   22  C   UNL     1      -3.173  -0.502 -32.765  1.00  0.00     0.044 C 
BRANCH  21  23
HETATM   23  O   UNL     1      -4.143  -2.607 -33.400  1.00  0.00    -0.391 OA
HETATM   24  H   UNL     1      -4.212  -2.729 -32.439  1.00  0.00     0.210 HD
ENDBRANCH  21  23
ENDBRANCH  18  21
ENDBRANCH  12  15
ENDBRANCH   1  11
BRANCH   4  25
HETATM   25  C   UNL     1     -15.856   2.560 -32.219  1.00  0.00     0.409 C 
HETATM   26  F   UNL     1     -16.760   3.341 -31.584  1.00  0.00    -0.169 F 
HETATM   27  F   UNL     1     -16.562   1.783 -33.085  1.00  0.00    -0.169 F 
HETATM   28  F   UNL     1     -15.315   1.718 -31.315  1.00  0.00    -0.169 F 
ENDBRANCH   4  25
BRANCH   6  29
HETATM   29  C   UNL     1     -13.445   5.976 -34.054  1.00  0.00     0.005 A 
HETATM   30  S   UNL     1     -14.662   7.187 -34.171  1.00  0.00    -0.104 SA
HETATM   31  C   UNL     1     -14.377   7.414 -35.839  1.00  0.00     0.050 A 
HETATM   32  C   UNL     1     -13.362   6.609 -36.303  1.00  0.00     0.008 A 
HETATM   33  C   UNL     1     -12.822   5.784 -35.275  1.00  0.00     0.017 A 
ENDBRANCH   6  29
TORSDOF 6
ENDMDL
MODEL 10
REMARK VINA RESULT:      -7.5      5.667      8.098
REMARK  6 active torsions:
REMARK  status: ('A' for Active; 'I' for Inactive)
REMARK    1  A    between atoms: C_2  and  O_3 
REMARK    2  A    between atoms: C_2  and  C_4 
REMARK    3  A    between atoms: C_7  and  N_8 
REMARK       I    between atoms: N_8  and  C_9 
REMARK    4  A    between atoms: C_9  and  C_10 
REMARK    5  A    between atoms: C_13  and  C_14 
REMARK    6  A    between atoms: C_19  and  C_20 
ROOT
HETATM    1  C   UNL     1      -9.664   2.950 -33.166  1.00  0.00     0.096 C 
HETATM    2  C   UNL     1      -8.736   2.251 -32.417  1.00  0.00     0.138 C 
HETATM    3  N   UNL     1      -7.603   3.034 -32.398  1.00  0.00    -0.240 N 
HETATM    4  C   UNL     1      -6.362   2.672 -31.735  1.00  0.00     0.221 C 
HETATM    5  C   UNL     1      -6.592   1.491 -30.774  1.00  0.00     0.067 C 
HETATM    6  C   UNL     1      -7.481   0.411 -31.410  1.00  0.00     0.125 C 
HETATM    7  N   UNL     1      -8.761   1.033 -31.802  1.00  0.00    -0.365 N 
HETATM    8  N   UNL     1      -7.671   4.087 -33.225  1.00  0.00    -0.181 NA
HETATM    9  C   UNL     1      -8.932   4.054 -33.666  1.00  0.00     0.160 C 
HETATM   10  H   UNL     1      -9.414   0.334 -32.162  1.00  0.00     0.162 HD
ENDROOT
BRANCH   1  11
HETATM   11  C   UNL     1     -11.058   2.647 -33.447  1.00  0.00     0.261 C 
HETATM   12  N   UNL     1     -11.912   2.992 -32.415  1.00  0.00    -0.323 N 
HETATM   13  H   UNL     1     -11.480   3.477 -31.636  1.00  0.00     0.169 HD
HETATM   14  O   UNL     1     -11.383   2.183 -34.532  1.00  0.00    -0.267 OA
BRANCH  12  15
HETATM   15  C   UNL     1     -13.317   2.885 -32.392  1.00  0.00     0.035 A 
HETATM   16  C   UNL     1     -14.024   1.802 -32.913  1.00  0.00     0.030 A 
HETATM   17  C   UNL     1     -15.425   1.782 -32.886  1.00  0.00     0.012 A 
HETATM   18  C   UNL     1     -16.154   2.847 -32.342  1.00  0.00    -0.030 A 
HETATM   19  C   UNL     1     -15.432   3.919 -31.792  1.00  0.00     0.012 A 
HETATM   20  C   UNL     1     -14.033   3.937 -31.815  1.00  0.00     0.030 A 
BRANCH  18  21
HETATM   21  C   UNL     1     -17.667   2.900 -32.321  1.00  0.00     0.147 C 
HETATM   22  C   UNL     1     -18.295   4.250 -31.986  1.00  0.00     0.044 C 
BRANCH  21  23
HETATM   23  O   UNL     1     -18.136   2.478 -33.600  1.00  0.00    -0.391 OA
HETATM   24  H   UNL     1     -18.390   1.545 -33.522  1.00  0.00     0.210 HD
ENDBRANCH  21  23
ENDBRANCH  18  21
ENDBRANCH  12  15
ENDBRANCH   1  11
BRANCH   4  25
HETATM   25  C   UNL     1      -5.782   3.841 -30.967  1.00  0.00     0.409 C 
HETATM   26  F   UNL     1      -5.052   3.441 -29.901  1.00  0.00    -0.169 F 
HETATM   27  F   UNL     1      -4.934   4.539 -31.773  1.00  0.00    -0.169 F 
HETATM   28  F   UNL     1      -6.706   4.725 -30.541  1.00  0.00    -0.169 F 
ENDBRANCH   4  25
BRANCH   6  29
HETATM   29  C   UNL     1      -6.765  -0.340 -32.516  1.00  0.00     0.005 A 
HETATM   30  S   UNL     1      -7.616  -0.753 -33.953  1.00  0.00    -0.104 SA
HETATM   31  C   UNL     1      -6.253  -1.534 -34.621  1.00  0.00     0.050 A 
HETATM   32  C   UNL     1      -5.160  -1.467 -33.789  1.00  0.00     0.008 A 
HETATM   33  C   UNL     1      -5.452  -0.775 -32.578  1.00  0.00     0.017 A 
ENDBRANCH   6  29
TORSDOF 6
ENDMDL
