MODEL 1
REMARK VINA RESULT:      -8.8      0.000      0.000
REMARK  7 active torsions:
REMARK  status: ('A' for Active; 'I' for Inactive)
REMARK    1  A    between atoms: O_2  and  C_3 
REMARK    2  A    between atoms: C_4  and  N_5 
REMARK    3  A    between atoms: N_5  and  C_6 
REMARK    4  A    between atoms: C_8  and  N_9 
REMARK    5  A    between atoms: C_11  and  C_12 
REMARK    6  A    between atoms: C_12  and  N_13 
REMARK    7  A    between atoms: N_17  and  C_18 
ROOT
HETATM    1  C   UNL     1      -6.975   1.192 -33.419  1.00  0.00     0.731 A 
HETATM    2  N   UNL     1      -7.912   0.639 -32.657  1.00  0.00    -0.031 NA
HETATM    3  C   UNL     1      -8.482   1.418 -31.755  1.00  0.00     0.219 A 
HETATM    4  N   UNL     1      -8.135   2.675 -31.511  1.00  0.00    -0.200 NA
HETATM    5  C   UNL     1      -7.158   3.135 -32.294  1.00  0.00     0.174 A 
HETATM    6  N   UNL     1      -6.554   2.444 -33.249  1.00  0.00    -0.045 NA
ENDROOT
BRANCH   5   7
HETATM    7  C   UNL     1      -6.527   4.450 -31.880  1.00  0.00     0.316 C 
BRANCH   7   8
HETATM    8  N   UNL     1      -5.031   4.538 -32.235  1.00  0.00    -0.061 N 
HETATM    9  H   UNL     1      -4.980   4.073 -33.157  1.00  0.00     0.280 HD
HETATM   10  C   UNL     1      -4.556   5.973 -32.436  1.00  0.00     0.255 C 
HETATM   11  C   UNL     1      -3.084   5.979 -32.919  1.00  0.00     0.152 C 
HETATM   12  N   UNL     1      -2.202   5.204 -32.017  1.00  0.00    -0.364 N 
HETATM   13  C   UNL     1      -2.675   3.841 -31.676  1.00  0.00     0.152 C 
HETATM   14  C   UNL     1      -4.160   3.799 -31.240  1.00  0.00     0.255 C 
BRANCH  12  15
HETATM   15  C   UNL     1      -1.391   5.907 -31.151  1.00  0.00     0.102 A 
HETATM   16  N   UNL     1      -1.888   6.209 -29.938  1.00  0.00    -0.352 N 
HETATM   17  H   UNL     1      -2.853   5.945 -29.753  1.00  0.00     0.166 HD
HETATM   18  C   UNL     1      -1.217   6.896 -29.001  1.00  0.00     0.089 A 
HETATM   19  C   UNL     1       0.070   7.337 -29.259  1.00  0.00     0.017 A 
HETATM   20  C   UNL     1       0.631   7.070 -30.500  1.00  0.00     0.005 A 
HETATM   21  C   UNL     1      -0.102   6.361 -31.453  1.00  0.00     0.048 A 
ENDBRANCH  12  15
ENDBRANCH   7   8
ENDBRANCH   5   7
BRANCH   3  22
HETATM   22  N   UNL     1      -9.471   0.870 -30.968  1.00  0.00    -0.270 NA
HETATM   23  H   UNL     1      -9.256   1.025 -29.987  1.00  0.00     0.127 HD
HETATM   24  H   UNL     1      -9.660  -0.094 -31.207  1.00  0.00     0.127 HD
ENDBRANCH   3  22
BRANCH   1  25
HETATM   25  N   UNL     1      -6.354   0.377 -34.351  1.00  0.00    -0.185 N 
HETATM   26  H   UNL     1      -6.162   0.842 -35.232  1.00  0.00     0.184 HD
BRANCH  25  27
HETATM   27  C   UNL     1      -5.816  -0.921 -34.260  1.00  0.00     0.084 A 
HETATM   28  C   UNL     1      -4.583  -1.106 -33.593  1.00  0.00     0.095 A 
HETATM   29  C   UNL     1      -4.019  -2.384 -33.496  1.00  0.00     0.041 A 
HETATM   30  C   UNL     1      -4.656  -3.477 -34.085  1.00  0.00     0.026 A 
HETATM   31  C   UNL     1      -5.850  -3.293 -34.772  1.00  0.00     0.036 A 
HETATM   32  C   UNL     1      -6.425  -2.027 -34.867  1.00  0.00     0.056 A 
HETATM   33 CL   UNL     1      -6.632  -4.634 -35.514  1.00  0.00    -0.084 Cl
BRANCH  28  34
HETATM   34  O   UNL     1      -4.023   0.035 -33.068  1.00  0.00    -0.354 OA
HETATM   35  C   UNL     1      -3.551  -0.048 -31.726  1.00  0.00     0.210 C 
ENDBRANCH  28  34
ENDBRANCH  25  27
ENDBRANCH   1  25
TORSDOF 7
ENDMDL
MODEL 2
REMARK VINA RESULT:      -8.5      3.980      8.963
REMARK  7 active torsions:
REMARK  status: ('A' for Active; 'I' for Inactive)
REMARK    1  A    between atoms: O_2  and  C_3 
REMARK    2  A    between atoms: C_4  and  N_5 
REMARK    3  A    between atoms: N_5  and  C_6 
REMARK    4  A    between atoms: C_8  and  N_9 
REMARK    5  A    between atoms: C_11  and  C_12 
REMARK    6  A    between atoms: C_12  and  N_13 
REMARK    7  A    between atoms: N_17  and  C_18 
ROOT
HETATM    1  C   UNL     1      -3.963   2.486 -31.260  1.00  0.00     0.731 A 
HETATM    2  N   UNL     1      -2.958   1.627 -31.139  1.00  0.00    -0.031 NA
HETATM    3  C   UNL     1      -3.255   0.344 -31.251  1.00  0.00     0.219 A 
HETATM    4  N   UNL     1      -4.481  -0.141 -31.396  1.00  0.00    -0.200 NA
HETATM    5  C   UNL     1      -5.433   0.791 -31.465  1.00  0.00     0.174 A 
HETATM    6  N   UNL     1      -5.230   2.099 -31.403  1.00  0.00    -0.045 NA
ENDROOT
BRANCH   5   7
HETATM    7  C   UNL     1      -6.863   0.302 -31.343  1.00  0.00     0.316 C 
BRANCH   7   8
HETATM    8  N   UNL     1      -7.852   1.110 -32.204  1.00  0.00    -0.061 N 
HETATM    9  H   UNL     1      -7.241   1.790 -32.687  1.00  0.00     0.280 HD
HETATM   10  C   UNL     1      -8.519   0.267 -33.285  1.00  0.00     0.255 C 
HETATM   11  C   UNL     1      -9.393   1.167 -34.192  1.00  0.00     0.152 C 
HETATM   12  N   UNL     1     -10.362   1.967 -33.409  1.00  0.00    -0.364 N 
HETATM   13  C   UNL     1      -9.796   2.711 -32.258  1.00  0.00     0.152 C 
HETATM   14  C   UNL     1      -8.874   1.847 -31.364  1.00  0.00     0.255 C 
BRANCH  12  15
HETATM   15  C   UNL     1     -11.680   1.558 -33.405  1.00  0.00     0.102 A 
HETATM   16  N   UNL     1     -12.610   2.458 -33.036  1.00  0.00    -0.352 N 
HETATM   17  H   UNL     1     -12.279   3.370 -32.732  1.00  0.00     0.166 HD
HETATM   18  C   UNL     1     -13.924   2.197 -32.975  1.00  0.00     0.089 A 
HETATM   19  C   UNL     1     -14.394   0.936 -33.306  1.00  0.00     0.017 A 
HETATM   20  C   UNL     1     -13.479  -0.039 -33.679  1.00  0.00     0.005 A 
HETATM   21  C   UNL     1     -12.118   0.267 -33.720  1.00  0.00     0.048 A 
ENDBRANCH  12  15
ENDBRANCH   7   8
ENDBRANCH   5   7
BRANCH   3  22
HETATM   22  N   UNL     1      -2.223  -0.563 -31.149  1.00  0.00    -0.270 NA
HETATM   23  H   UNL     1      -2.482  -1.432 -31.608  1.00  0.00     0.127 HD
HETATM   24  H   UNL     1      -1.903  -0.674 -30.196  1.00  0.00     0.127 HD
ENDBRANCH   3  22
BRANCH   1  25
HETATM   25  N   UNL     1      -3.667   3.832 -31.120  1.00  0.00    -0.185 N 
HETATM   26  H   UNL     1      -4.084   4.256 -30.298  1.00  0.00     0.184 HD
BRANCH  25  27
HETATM   27  C   UNL     1      -2.790   4.683 -31.820  1.00  0.00     0.084 A 
HETATM   28  C   UNL     1      -3.056   4.973 -33.178  1.00  0.00     0.095 A 
HETATM   29  C   UNL     1      -2.197   5.809 -33.902  1.00  0.00     0.041 A 
HETATM   30  C   UNL     1      -1.056   6.334 -33.295  1.00  0.00     0.026 A 
HETATM   31  C   UNL     1      -0.772   6.024 -31.970  1.00  0.00     0.036 A 
HETATM   32  C   UNL     1      -1.626   5.200 -31.237  1.00  0.00     0.056 A 
HETATM   33 CL   UNL     1       0.641   6.656 -31.220  1.00  0.00    -0.084 Cl
BRANCH  28  34
HETATM   34  O   UNL     1      -4.190   4.388 -33.692  1.00  0.00    -0.354 OA
HETATM   35  C   UNL     1      -5.320   5.238 -33.867  1.00  0.00     0.210 C 
ENDBRANCH  28  34
ENDBRANCH  25  27
ENDBRANCH   1  25
TORSDOF 7
ENDMDL
MODEL 3
REMARK VINA RESULT:      -8.5      2.072      2.527
REMARK  7 active torsions:
REMARK  status: ('A' for Active; 'I' for Inactive)
REMARK    1  A    between atoms: O_2  and  C_3 
REMARK    2  A    between atoms: C_4  and  N_5 
REMARK    3  A    between atoms: N_5  and  C_6 
REMARK    4  A    between atoms: C_8  and  N_9 
REMARK    5  A    between atoms: C_11  and  C_12 
REMARK    6  A    between atoms: C_12  and  N_13 
REMARK    7  A    between atoms: N_17  and  C_18 
ROOT
HETATM    1  C   UNL     1      -7.137   0.718 -34.510  1.00  0.00     0.731 A 
HETATM    2  N   UNL     1      -8.463   0.670 -34.471  1.00  0.00    -0.031 NA
HETATM    3  C   UNL     1      -9.094   1.808 -34.239  1.00  0.00     0.219 A 
HETATM    4  N   UNL     1      -8.500   2.963 -33.970  1.00  0.00    -0.200 NA
HETATM    5  C   UNL     1      -7.167   2.910 -33.990  1.00  0.00     0.174 A 
HETATM    6  N   UNL     1      -6.448   1.828 -34.251  1.00  0.00    -0.045 NA
ENDROOT
BRANCH   5   7
HETATM    7  C   UNL     1      -6.438   4.110 -33.418  1.00  0.00     0.316 C 
BRANCH   7   8
HETATM    8  N   UNL     1      -4.940   3.846 -33.176  1.00  0.00    -0.061 N 
HETATM    9  H   UNL     1      -4.767   2.973 -33.703  1.00  0.00     0.280 HD
HETATM   10  C   UNL     1      -4.045   4.918 -33.787  1.00  0.00     0.255 C 
HETATM   11  C   UNL     1      -2.557   4.521 -33.622  1.00  0.00     0.152 C 
HETATM   12  N   UNL     1      -2.216   4.225 -32.212  1.00  0.00    -0.364 N 
HETATM   13  C   UNL     1      -3.128   3.284 -31.517  1.00  0.00     0.152 C 
HETATM   14  C   UNL     1      -4.625   3.629 -31.710  1.00  0.00     0.255 C 
BRANCH  12  15
HETATM   15  C   UNL     1      -1.515   5.180 -31.505  1.00  0.00     0.102 A 
HETATM   16  N   UNL     1      -2.156   5.807 -30.502  1.00  0.00    -0.352 N 
HETATM   17  H   UNL     1      -3.136   5.574 -30.359  1.00  0.00     0.166 HD
HETATM   18  C   UNL     1      -1.603   6.762 -29.739  1.00  0.00     0.089 A 
HETATM   19  C   UNL     1      -0.294   7.154 -29.966  1.00  0.00     0.017 A 
HETATM   20  C   UNL     1       0.413   6.555 -31.000  1.00  0.00     0.005 A 
HETATM   21  C   UNL     1      -0.200   5.572 -31.778  1.00  0.00     0.048 A 
ENDBRANCH  12  15
ENDBRANCH   7   8
ENDBRANCH   5   7
BRANCH   3  22
HETATM   22  N   UNL     1     -10.471   1.784 -34.213  1.00  0.00    -0.270 NA
HETATM   23  H   UNL     1     -10.812   2.347 -33.440  1.00  0.00     0.127 HD
HETATM   24  H   UNL     1     -10.838   0.841 -34.237  1.00  0.00     0.127 HD
ENDBRANCH   3  22
BRANCH   1  25
HETATM   25  N   UNL     1      -6.465  -0.473 -34.728  1.00  0.00    -0.185 N 
HETATM   26  H   UNL     1      -6.687  -0.907 -35.618  1.00  0.00     0.184 HD
BRANCH  25  27
HETATM   27  C   UNL     1      -5.435  -1.120 -34.018  1.00  0.00     0.084 A 
HETATM   28  C   UNL     1      -5.167  -2.482 -34.291  1.00  0.00     0.095 A 
HETATM   29  C   UNL     1      -4.156  -3.153 -33.594  1.00  0.00     0.041 A 
HETATM   30  C   UNL     1      -3.428  -2.491 -32.604  1.00  0.00     0.026 A 
HETATM   31  C   UNL     1      -3.713  -1.163 -32.309  1.00  0.00     0.036 A 
HETATM   32  C   UNL     1      -4.711  -0.481 -33.004  1.00  0.00     0.056 A 
HETATM   33 CL   UNL     1      -2.830  -0.346 -31.079  1.00  0.00    -0.084 Cl
BRANCH  28  34
HETATM   34  O   UNL     1      -5.953  -3.051 -35.265  1.00  0.00    -0.354 OA
HETATM   35  C   UNL     1      -6.634  -4.251 -34.911  1.00  0.00     0.210 C 
ENDBRANCH  28  34
ENDBRANCH  25  27
ENDBRANCH   1  25
TORSDOF 7
ENDMDL
MODEL 4
REMARK VINA RESULT:      -8.5      3.476      8.488
REMARK  7 active torsions:
REMARK  status: ('A' for Active; 'I' for Inactive)
REMARK    1  A    between atoms: O_2  and  C_3 
REMARK    2  A    between atoms: C_4  and  N_5 
REMARK    3  A    between atoms: N_5  and  C_6 
REMARK    4  A    between atoms: C_8  and  N_9 
REMARK    5  A    between atoms: C_11  and  C_12 
REMARK    6  A    between atoms: C_12  and  N_13 
REMARK    7  A    between atoms: N_17  and  C_18 
ROOT
HETATM    1  C   UNL     1      -4.813   5.075 -30.889  1.00  0.00     0.731 A 
HETATM    2  N   UNL     1      -5.962   5.662 -30.573  1.00  0.00    -0.031 NA
HETATM    3  C   UNL     1      -6.881   4.904 -30.001  1.00  0.00     0.219 A 
HETATM    4  N   UNL     1      -6.765   3.598 -29.795  1.00  0.00    -0.200 NA
HETATM    5  C   UNL     1      -5.596   3.085 -30.181  1.00  0.00     0.174 A 
HETATM    6  N   UNL     1      -4.601   3.770 -30.725  1.00  0.00    -0.045 NA
ENDROOT
BRANCH   5   7
HETATM    7  C   UNL     1      -5.512   1.572 -30.237  1.00  0.00     0.316 C 
BRANCH   7   8
HETATM    8  N   UNL     1      -5.166   1.039 -31.640  1.00  0.00    -0.061 N 
HETATM    9  H   UNL     1      -4.652   1.826 -32.070  1.00  0.00     0.280 HD
HETATM   10  C   UNL     1      -4.209  -0.148 -31.602  1.00  0.00     0.255 C 
HETATM   11  C   UNL     1      -3.802  -0.544 -33.042  1.00  0.00     0.152 C 
HETATM   12  N   UNL     1      -4.982  -0.786 -33.904  1.00  0.00    -0.364 N 
HETATM   13  C   UNL     1      -6.016   0.277 -33.886  1.00  0.00     0.152 C 
HETATM   14  C   UNL     1      -6.403   0.729 -32.457  1.00  0.00     0.255 C 
BRANCH  12  15
HETATM   15  C   UNL     1      -5.319  -2.094 -34.181  1.00  0.00     0.102 A 
HETATM   16  N   UNL     1      -4.355  -3.025 -34.058  1.00  0.00    -0.352 N 
HETATM   17  H   UNL     1      -3.422  -2.699 -33.818  1.00  0.00     0.166 HD
HETATM   18  C   UNL     1      -4.537  -4.331 -34.305  1.00  0.00     0.089 A 
HETATM   19  C   UNL     1      -5.779  -4.790 -34.712  1.00  0.00     0.017 A 
HETATM   20  C   UNL     1      -6.809  -3.873 -34.874  1.00  0.00     0.005 A 
HETATM   21  C   UNL     1      -6.578  -2.521 -34.617  1.00  0.00     0.048 A 
ENDBRANCH  12  15
ENDBRANCH   7   8
ENDBRANCH   5   7
BRANCH   3  22
HETATM   22  N   UNL     1      -8.072   5.497 -29.647  1.00  0.00    -0.270 NA
HETATM   23  H   UNL     1      -8.111   5.618 -28.639  1.00  0.00     0.127 HD
HETATM   24  H   UNL     1      -8.871   5.018 -30.041  1.00  0.00     0.127 HD
ENDBRANCH   3  22
BRANCH   1  25
HETATM   25  N   UNL     1      -3.853   5.855 -31.510  1.00  0.00    -0.185 N 
HETATM   26  H   UNL     1      -4.238   6.539 -32.152  1.00  0.00     0.184 HD
BRANCH  25  27
HETATM   27  C   UNL     1      -2.463   5.974 -31.316  1.00  0.00     0.084 A 
HETATM   28  C   UNL     1      -1.588   5.289 -32.191  1.00  0.00     0.095 A 
HETATM   29  C   UNL     1      -0.203   5.381 -32.017  1.00  0.00     0.041 A 
HETATM   30  C   UNL     1       0.323   6.124 -30.959  1.00  0.00     0.026 A 
HETATM   31  C   UNL     1      -0.534   6.770 -30.076  1.00  0.00     0.036 A 
HETATM   32  C   UNL     1      -1.916   6.694 -30.246  1.00  0.00     0.056 A 
HETATM   33 CL   UNL     1       0.107   7.675 -28.761  1.00  0.00    -0.084 Cl
BRANCH  28  34
HETATM   34  O   UNL     1      -2.203   4.565 -33.186  1.00  0.00    -0.354 OA
HETATM   35  C   UNL     1      -1.870   4.916 -34.526  1.00  0.00     0.210 C 
ENDBRANCH  28  34
ENDBRANCH  25  27
ENDBRANCH   1  25
TORSDOF 7
ENDMDL
MODEL 5
REMARK VINA RESULT:      -8.3      3.020      8.281
REMARK  7 active torsions:
REMARK  status: ('A' for Active; 'I' for Inactive)
REMARK    1  A    between atoms: O_2  and  C_3 
REMARK    2  A    between atoms: C_4  and  N_5 
REMARK    3  A    between atoms: N_5  and  C_6 
REMARK    4  A    between atoms: C_8  and  N_9 
REMARK    5  A    between atoms: C_11  and  C_12 
REMARK    6  A    between atoms: C_12  and  N_13 
REMARK    7  A    between atoms: N_17  and  C_18 
ROOT
HETATM    1  C   UNL     1      -5.177   4.857 -30.146  1.00  0.00     0.731 A 
HETATM    2  N   UNL     1      -6.290   5.519 -30.439  1.00  0.00    -0.031 NA
HETATM    3  C   UNL     1      -7.403   4.810 -30.511  1.00  0.00     0.219 A 
HETATM    4  N   UNL     1      -7.471   3.490 -30.388  1.00  0.00    -0.200 NA
HETATM    5  C   UNL     1      -6.300   2.903 -30.137  1.00  0.00     0.174 A 
HETATM    6  N   UNL     1      -5.141   3.532 -30.008  1.00  0.00    -0.045 NA
ENDROOT
BRANCH   5   7
HETATM    7  C   UNL     1      -6.263   1.394 -30.270  1.00  0.00     0.316 C 
BRANCH   7   8
HETATM    8  N   UNL     1      -5.817   0.923 -31.667  1.00  0.00    -0.061 N 
HETATM    9  H   UNL     1      -5.411   1.777 -32.085  1.00  0.00     0.280 HD
HETATM   10  C   UNL     1      -4.703  -0.117 -31.612  1.00  0.00     0.255 C 
HETATM   11  C   UNL     1      -4.216  -0.444 -33.045  1.00  0.00     0.152 C 
HETATM   12  N   UNL     1      -5.331  -0.846 -33.931  1.00  0.00    -0.364 N 
HETATM   13  C   UNL     1      -6.506   0.059 -33.932  1.00  0.00     0.152 C 
HETATM   14  C   UNL     1      -6.982   0.445 -32.510  1.00  0.00     0.255 C 
BRANCH  12  15
HETATM   15  C   UNL     1      -5.475  -2.187 -34.218  1.00  0.00     0.102 A 
HETATM   16  N   UNL     1      -4.409  -2.984 -34.018  1.00  0.00    -0.352 N 
HETATM   17  H   UNL     1      -3.546  -2.539 -33.715  1.00  0.00     0.166 HD
HETATM   18  C   UNL     1      -4.401  -4.303 -34.263  1.00  0.00     0.089 A 
HETATM   19  C   UNL     1      -5.540  -4.921 -34.753  1.00  0.00     0.017 A 
HETATM   20  C   UNL     1      -6.666  -4.146 -34.997  1.00  0.00     0.005 A 
HETATM   21  C   UNL     1      -6.633  -2.775 -34.739  1.00  0.00     0.048 A 
ENDBRANCH  12  15
ENDBRANCH   7   8
ENDBRANCH   5   7
BRANCH   3  22
HETATM   22  N   UNL     1      -8.573   5.480 -30.793  1.00  0.00    -0.270 NA
HETATM   23  H   UNL     1      -8.796   5.384 -31.780  1.00  0.00     0.127 HD
HETATM   24  H   UNL     1      -8.558   6.435 -30.460  1.00  0.00     0.127 HD
ENDBRANCH   3  22
BRANCH   1  25
HETATM   25  N   UNL     1      -4.001   5.586 -30.093  1.00  0.00    -0.185 N 
HETATM   26  H   UNL     1      -3.763   5.903 -29.159  1.00  0.00     0.184 HD
BRANCH  25  27
HETATM   27  C   UNL     1      -3.009   5.850 -31.057  1.00  0.00     0.084 A 
HETATM   28  C   UNL     1      -1.922   6.685 -30.709  1.00  0.00     0.095 A 
HETATM   29  C   UNL     1      -0.926   6.972 -31.649  1.00  0.00     0.041 A 
HETATM   30  C   UNL     1      -1.017   6.461 -32.945  1.00  0.00     0.026 A 
HETATM   31  C   UNL     1      -2.101   5.668 -33.300  1.00  0.00     0.036 A 
HETATM   32  C   UNL     1      -3.095   5.368 -32.369  1.00  0.00     0.056 A 
HETATM   33 CL   UNL     1      -2.227   5.048 -34.900  1.00  0.00    -0.084 Cl
BRANCH  28  34
HETATM   34  O   UNL     1      -1.936   7.158 -29.418  1.00  0.00    -0.354 OA
HETATM   35  C   UNL     1      -0.836   6.784 -28.592  1.00  0.00     0.210 C 
ENDBRANCH  28  34
ENDBRANCH  25  27
ENDBRANCH   1  25
TORSDOF 7
ENDMDL
MODEL 6
REMARK VINA RESULT:      -8.1      2.527      4.963
REMARK  7 active torsions:
REMARK  status: ('A' for Active; 'I' for Inactive)
REMARK    1  A    between atoms: O_2  and  C_3 
REMARK    2  A    between atoms: C_4  and  N_5 
REMARK    3  A    between atoms: N_5  and  C_6 
REMARK    4  A    between atoms: C_8  and  N_9 
REMARK    5  A    between atoms: C_11  and  C_12 
REMARK    6  A    between atoms: C_12  and  N_13 
REMARK    7  A    between atoms: N_17  and  C_18 
ROOT
HETATM    1  C   UNL     1      -3.385   3.529 -32.475  1.00  0.00     0.731 A 
HETATM    2  N   UNL     1      -3.790   4.266 -33.502  1.00  0.00    -0.031 NA
HETATM    3  C   UNL     1      -2.971   5.219 -33.912  1.00  0.00     0.219 A 
HETATM    4  N   UNL     1      -1.822   5.534 -33.327  1.00  0.00    -0.200 NA
HETATM    5  C   UNL     1      -1.514   4.769 -32.278  1.00  0.00     0.174 A 
HETATM    6  N   UNL     1      -2.251   3.769 -31.818  1.00  0.00    -0.045 NA
ENDROOT
BRANCH   5   7
HETATM    7  C   UNL     1      -0.374   5.254 -31.404  1.00  0.00     0.316 C 
BRANCH   7   8
HETATM    8  N   UNL     1      -0.838   5.711 -30.008  1.00  0.00    -0.061 N 
HETATM    9  H   UNL     1      -1.451   4.937 -29.699  1.00  0.00     0.280 HD
HETATM   10  C   UNL     1       0.307   5.797 -29.005  1.00  0.00     0.255 C 
HETATM   11  C   UNL     1      -0.248   6.130 -27.598  1.00  0.00     0.152 C 
HETATM   12  N   UNL     1      -1.093   7.345 -27.609  1.00  0.00    -0.364 N 
HETATM   13  C   UNL     1      -2.147   7.382 -28.651  1.00  0.00     0.152 C 
HETATM   14  C   UNL     1      -1.629   7.001 -30.060  1.00  0.00     0.255 C 
BRANCH  12  15
HETATM   15  C   UNL     1      -0.548   8.512 -27.116  1.00  0.00     0.102 A 
HETATM   16  N   UNL     1       0.384   8.405 -26.150  1.00  0.00    -0.352 N 
HETATM   17  H   UNL     1       0.592   7.471 -25.807  1.00  0.00     0.166 HD
HETATM   18  C   UNL     1       0.989   9.453 -25.572  1.00  0.00     0.089 A 
HETATM   19  C   UNL     1       0.665  10.741 -25.965  1.00  0.00     0.017 A 
HETATM   20  C   UNL     1      -0.302  10.915 -26.946  1.00  0.00     0.005 A 
HETATM   21  C   UNL     1      -0.918   9.801 -27.517  1.00  0.00     0.048 A 
ENDBRANCH  12  15
ENDBRANCH   7   8
ENDBRANCH   5   7
BRANCH   3  22
HETATM   22  N   UNL     1      -3.363   5.982 -34.989  1.00  0.00    -0.270 NA
HETATM   23  H   UNL     1      -3.577   6.927 -34.682  1.00  0.00     0.127 HD
HETATM   24  H   UNL     1      -4.099   5.540 -35.524  1.00  0.00     0.127 HD
ENDBRANCH   3  22
BRANCH   1  25
HETATM   25  N   UNL     1      -4.247   2.545 -32.022  1.00  0.00    -0.185 N 
HETATM   26  H   UNL     1      -4.604   2.716 -31.088  1.00  0.00     0.184 HD
BRANCH  25  27
HETATM   27  C   UNL     1      -4.828   1.431 -32.660  1.00  0.00     0.084 A 
HETATM   28  C   UNL     1      -4.184   0.175 -32.565  1.00  0.00     0.095 A 
HETATM   29  C   UNL     1      -4.733  -0.947 -33.197  1.00  0.00     0.041 A 
HETATM   30  C   UNL     1      -5.901  -0.825 -33.951  1.00  0.00     0.026 A 
HETATM   31  C   UNL     1      -6.517   0.415 -34.075  1.00  0.00     0.036 A 
HETATM   32  C   UNL     1      -5.985   1.538 -33.442  1.00  0.00     0.056 A 
HETATM   33 CL   UNL     1      -7.949   0.575 -35.015  1.00  0.00    -0.084 Cl
BRANCH  28  34
HETATM   34  O   UNL     1      -3.028   0.164 -31.822  1.00  0.00    -0.354 OA
HETATM   35  C   UNL     1      -2.360  -1.090 -31.704  1.00  0.00     0.210 C 
ENDBRANCH  28  34
ENDBRANCH  25  27
ENDBRANCH   1  25
TORSDOF 7
ENDMDL
MODEL 7
REMARK VINA RESULT:      -8.1      2.737      5.463
REMARK  7 active torsions:
REMARK  status: ('A' for Active; 'I' for Inactive)
REMARK    1  A    between atoms: O_2  and  C_3 
REMARK    2  A    between atoms: C_4  and  N_5 
REMARK    3  A    between atoms: N_5  and  C_6 
REMARK    4  A    between atoms: C_8  and  N_9 
REMARK    5  A    between atoms: C_11  and  C_12 
REMARK    6  A    between atoms: C_12  and  N_13 
REMARK    7  A    between atoms: N_17  and  C_18 
ROOT
HETATM    1  C   UNL     1      -3.016   3.753 -32.146  1.00  0.00     0.731 A 
HETATM    2  N   UNL     1      -3.455   4.331 -33.259  1.00  0.00    -0.031 NA
HETATM    3  C   UNL     1      -2.678   5.256 -33.795  1.00  0.00     0.219 A 
HETATM    4  N   UNL     1      -1.544   5.695 -33.264  1.00  0.00    -0.200 NA
HETATM    5  C   UNL     1      -1.202   5.089 -32.127  1.00  0.00     0.174 A 
HETATM    6  N   UNL     1      -1.893   4.126 -31.534  1.00  0.00    -0.045 NA
ENDROOT
BRANCH   5   7
HETATM    7  C   UNL     1      -0.084   5.733 -31.332  1.00  0.00     0.316 C 
BRANCH   7   8
HETATM    8  N   UNL     1      -0.508   6.125 -29.904  1.00  0.00    -0.061 N 
HETATM    9  H   UNL     1      -1.367   5.570 -29.753  1.00  0.00     0.280 HD
HETATM   10  C   UNL     1       0.498   5.683 -28.846  1.00  0.00     0.255 C 
HETATM   11  C   UNL     1      -0.055   5.990 -27.432  1.00  0.00     0.152 C 
HETATM   12  N   UNL     1      -0.451   7.409 -27.288  1.00  0.00    -0.364 N 
HETATM   13  C   UNL     1      -1.327   7.941 -28.360  1.00  0.00     0.152 C 
HETATM   14  C   UNL     1      -0.826   7.602 -29.785  1.00  0.00     0.255 C 
BRANCH  12  15
HETATM   15  C   UNL     1       0.394   8.245 -26.588  1.00  0.00     0.102 A 
HETATM   16  N   UNL     1      -0.017   9.508 -26.375  1.00  0.00    -0.352 N 
HETATM   17  H   UNL     1      -0.904   9.785 -26.788  1.00  0.00     0.166 HD
HETATM   18  C   UNL     1       0.704  10.432 -25.720  1.00  0.00     0.089 A 
HETATM   19  C   UNL     1       1.952  10.103 -25.217  1.00  0.00     0.017 A 
HETATM   20  C   UNL     1       2.437   8.819 -25.422  1.00  0.00     0.005 A 
HETATM   21  C   UNL     1       1.662   7.889 -26.116  1.00  0.00     0.048 A 
ENDBRANCH  12  15
ENDBRANCH   7   8
ENDBRANCH   5   7
BRANCH   3  22
HETATM   22  N   UNL     1      -3.104   5.854 -34.961  1.00  0.00    -0.270 NA
HETATM   23  H   UNL     1      -2.336   5.904 -35.623  1.00  0.00     0.127 HD
HETATM   24  H   UNL     1      -3.567   6.737 -34.790  1.00  0.00     0.127 HD
ENDBRANCH   3  22
BRANCH   1  25
HETATM   25  N   UNL     1      -3.834   2.800 -31.563  1.00  0.00    -0.185 N 
HETATM   26  H   UNL     1      -4.322   3.134 -30.739  1.00  0.00     0.184 HD
BRANCH  25  27
HETATM   27  C   UNL     1      -4.221   1.509 -31.972  1.00  0.00     0.084 A 
HETATM   28  C   UNL     1      -5.483   1.335 -32.586  1.00  0.00     0.095 A 
HETATM   29  C   UNL     1      -5.898   0.063 -32.995  1.00  0.00     0.041 A 
HETATM   30  C   UNL     1      -5.081  -1.047 -32.770  1.00  0.00     0.026 A 
HETATM   31  C   UNL     1      -3.855  -0.885 -32.136  1.00  0.00     0.036 A 
HETATM   32  C   UNL     1      -3.427   0.380 -31.733  1.00  0.00     0.056 A 
HETATM   33 CL   UNL     1      -2.850  -2.250 -31.842  1.00  0.00    -0.084 Cl
BRANCH  28  34
HETATM   34  O   UNL     1      -6.223   2.484 -32.741  1.00  0.00    -0.354 OA
HETATM   35  C   UNL     1      -7.471   2.533 -32.056  1.00  0.00     0.210 C 
ENDBRANCH  28  34
ENDBRANCH  25  27
ENDBRANCH   1  25
TORSDOF 7
ENDMDL
MODEL 8
REMARK VINA RESULT:      -8.1      3.041      7.426
REMARK  7 active torsions:
REMARK  status: ('A' for Active; 'I' for Inactive)
REMARK    1  A    between atoms: O_2  and  C_3 
REMARK    2  A    between atoms: C_4  and  N_5 
REMARK    3  A    between atoms: N_5  and  C_6 
REMARK    4  A    between atoms: C_8  and  N_9 
REMARK    5  A    between atoms: C_11  and  C_12 
REMARK    6  A    between atoms: C_12  and  N_13 
REMARK    7  A    between atoms: N_17  and  C_18 
ROOT
HETATM    1  C   UNL     1      -4.971   1.420 -30.918  1.00  0.00     0.731 A 
HETATM    2  N   UNL     1      -4.076   2.377 -31.129  1.00  0.00    -0.031 NA
HETATM    3  C   UNL     1      -4.406   3.597 -30.741  1.00  0.00     0.219 A 
HETATM    4  N   UNL     1      -5.584   3.938 -30.232  1.00  0.00    -0.200 NA
HETATM    5  C   UNL     1      -6.435   2.921 -30.095  1.00  0.00     0.174 A 
HETATM    6  N   UNL     1      -6.182   1.661 -30.418  1.00  0.00    -0.045 NA
ENDROOT
BRANCH   5   7
HETATM    7  C   UNL     1      -7.875   3.287 -29.793  1.00  0.00     0.316 C 
BRANCH   7   8
HETATM    8  N   UNL     1      -8.721   3.500 -31.063  1.00  0.00    -0.061 N 
HETATM    9  H   UNL     1      -8.187   4.217 -31.583  1.00  0.00     0.280 HD
HETATM   10  C   UNL     1      -8.780   2.261 -31.949  1.00  0.00     0.255 C 
HETATM   11  C   UNL     1      -9.530   2.587 -33.264  1.00  0.00     0.152 C 
HETATM   12  N   UNL     1     -10.866   3.173 -33.008  1.00  0.00    -0.364 N 
HETATM   13  C   UNL     1     -10.896   4.304 -32.049  1.00  0.00     0.152 C 
HETATM   14  C   UNL     1     -10.107   4.024 -30.747  1.00  0.00     0.255 C 
BRANCH  12  15
HETATM   15  C   UNL     1     -11.967   2.360 -33.174  1.00  0.00     0.102 A 
HETATM   16  N   UNL     1     -13.129   2.768 -32.632  1.00  0.00    -0.352 N 
HETATM   17  H   UNL     1     -13.112   3.627 -32.087  1.00  0.00     0.166 HD
HETATM   18  C   UNL     1     -14.276   2.075 -32.705  1.00  0.00     0.089 A 
HETATM   19  C   UNL     1     -14.307   0.861 -33.372  1.00  0.00     0.017 A 
HETATM   20  C   UNL     1     -13.134   0.381 -33.938  1.00  0.00     0.005 A 
HETATM   21  C   UNL     1     -11.959   1.125 -33.832  1.00  0.00     0.048 A 
ENDBRANCH  12  15
ENDBRANCH   7   8
ENDBRANCH   5   7
BRANCH   3  22
HETATM   22  N   UNL     1      -3.484   4.602 -30.932  1.00  0.00    -0.270 NA
HETATM   23  H   UNL     1      -2.792   4.309 -31.615  1.00  0.00     0.127 HD
HETATM   24  H   UNL     1      -3.095   4.936 -30.060  1.00  0.00     0.127 HD
ENDBRANCH   3  22
BRANCH   1  25
HETATM   25  N   UNL     1      -4.645   0.143 -31.344  1.00  0.00    -0.185 N 
HETATM   26  H   UNL     1      -4.116  -0.389 -30.661  1.00  0.00     0.184 HD
BRANCH  25  27
HETATM   27  C   UNL     1      -5.026  -0.601 -32.477  1.00  0.00     0.084 A 
HETATM   28  C   UNL     1      -4.260  -1.732 -32.843  1.00  0.00     0.095 A 
HETATM   29  C   UNL     1      -4.609  -2.485 -33.970  1.00  0.00     0.041 A 
HETATM   30  C   UNL     1      -5.696  -2.104 -34.758  1.00  0.00     0.026 A 
HETATM   31  C   UNL     1      -6.431  -0.973 -34.421  1.00  0.00     0.036 A 
HETATM   32  C   UNL     1      -6.098  -0.221 -33.295  1.00  0.00     0.056 A 
HETATM   33 CL   UNL     1      -7.763  -0.489 -35.396  1.00  0.00    -0.084 Cl
BRANCH  28  34
HETATM   34  O   UNL     1      -3.195  -2.011 -32.019  1.00  0.00    -0.354 OA
HETATM   35  C   UNL     1      -2.946  -3.386 -31.745  1.00  0.00     0.210 C 
ENDBRANCH  28  34
ENDBRANCH  25  27
ENDBRANCH   1  25
TORSDOF 7
ENDMDL
MODEL 9
REMARK VINA RESULT:      -8.1      3.281      8.098
REMARK  7 active torsions:
REMARK  status: ('A' for Active; 'I' for Inactive)
REMARK    1  A    between atoms: O_2  and  C_3 
REMARK    2  A    between atoms: C_4  and  N_5 
REMARK    3  A    between atoms: N_5  and  C_6 
REMARK    4  A    between atoms: C_8  and  N_9 
REMARK    5  A    between atoms: C_11  and  C_12 
REMARK    6  A    between atoms: C_12  and  N_13 
REMARK    7  A    between atoms: N_17  and  C_18 
ROOT
HETATM    1  C   UNL     1      -4.468   3.852 -31.177  1.00  0.00     0.731 A 
HETATM    2  N   UNL     1      -4.916   4.236 -29.988  1.00  0.00    -0.031 NA
HETATM    3  C   UNL     1      -6.227   4.234 -29.816  1.00  0.00     0.219 A 
HETATM    4  N   UNL     1      -7.115   3.952 -30.761  1.00  0.00    -0.200 NA
HETATM    5  C   UNL     1      -6.577   3.617 -31.934  1.00  0.00     0.174 A 
HETATM    6  N   UNL     1      -5.279   3.552 -32.192  1.00  0.00    -0.045 NA
ENDROOT
BRANCH   5   7
HETATM    7  C   UNL     1      -7.524   3.563 -33.117  1.00  0.00     0.316 C 
BRANCH   7   8
HETATM    8  N   UNL     1      -7.795   2.128 -33.608  1.00  0.00    -0.061 N 
HETATM    9  H   UNL     1      -8.763   2.182 -33.968  1.00  0.00     0.280 HD
HETATM   10  C   UNL     1      -6.907   1.728 -34.780  1.00  0.00     0.255 C 
HETATM   11  C   UNL     1      -7.323   0.332 -35.305  1.00  0.00     0.152 C 
HETATM   12  N   UNL     1      -7.341  -0.682 -34.226  1.00  0.00    -0.364 N 
HETATM   13  C   UNL     1      -8.082  -0.300 -33.000  1.00  0.00     0.152 C 
HETATM   14  C   UNL     1      -7.723   1.115 -32.484  1.00  0.00     0.255 C 
BRANCH  12  15
HETATM   15  C   UNL     1      -6.292  -1.576 -34.166  1.00  0.00     0.102 A 
HETATM   16  N   UNL     1      -6.430  -2.743 -34.822  1.00  0.00    -0.352 N 
HETATM   17  H   UNL     1      -7.322  -2.916 -35.280  1.00  0.00     0.166 HD
HETATM   18  C   UNL     1      -5.498  -3.708 -34.842  1.00  0.00     0.089 A 
HETATM   19  C   UNL     1      -4.307  -3.531 -34.158  1.00  0.00     0.017 A 
HETATM   20  C   UNL     1      -4.114  -2.353 -33.449  1.00  0.00     0.005 A 
HETATM   21  C   UNL     1      -5.111  -1.377 -33.443  1.00  0.00     0.048 A 
ENDBRANCH  12  15
ENDBRANCH   7   8
ENDBRANCH   5   7
BRANCH   3  22
HETATM   22  N   UNL     1      -6.712   4.611 -28.583  1.00  0.00    -0.270 NA
HETATM   23  H   UNL     1      -6.246   5.459 -28.274  1.00  0.00     0.127 HD
HETATM   24  H   UNL     1      -6.687   3.852 -27.914  1.00  0.00     0.127 HD
ENDBRANCH   3  22
BRANCH   1  25
HETATM   25  N   UNL     1      -3.098   3.874 -31.376  1.00  0.00    -0.185 N 
HETATM   26  H   UNL     1      -2.685   2.951 -31.457  1.00  0.00     0.184 HD
BRANCH  25  27
HETATM   27  C   UNL     1      -2.197   4.927 -31.625  1.00  0.00     0.084 A 
HETATM   28  C   UNL     1      -1.940   5.306 -32.963  1.00  0.00     0.095 A 
HETATM   29  C   UNL     1      -1.042   6.343 -33.241  1.00  0.00     0.041 A 
HETATM   30  C   UNL     1      -0.371   6.987 -32.201  1.00  0.00     0.026 A 
HETATM   31  C   UNL     1      -0.594   6.594 -30.886  1.00  0.00     0.036 A 
HETATM   32  C   UNL     1      -1.494   5.568 -30.597  1.00  0.00     0.056 A 
HETATM   33 CL   UNL     1       0.241   7.373 -29.600  1.00  0.00    -0.084 Cl
BRANCH  28  34
HETATM   34  O   UNL     1      -2.631   4.596 -33.917  1.00  0.00    -0.354 OA
HETATM   35  C   UNL     1      -3.387   5.359 -34.853  1.00  0.00     0.210 C 
ENDBRANCH  28  34
ENDBRANCH  25  27
ENDBRANCH   1  25
TORSDOF 7
ENDMDL
MODEL 10
REMARK VINA RESULT:      -8.0      1.656      2.275
REMARK  7 active torsions:
REMARK  status: ('A' for Active; 'I' for Inactive)
REMARK    1  A    between atoms: O_2  and  C_3 
REMARK    2  A    between atoms: C_4  and  N_5 
REMARK    3  A    between atoms: N_5  and  C_6 
REMARK    4  A    between atoms: C_8  and  N_9 
REMARK    5  A    between atoms: C_11  and  C_12 
REMARK    6  A    between atoms: C_12  and  N_13 
REMARK    7  A    between atoms: N_17  and  C_18 
ROOT
HETATM    1  C   UNL     1      -6.842   2.375 -33.094  1.00  0.00     0.731 A 
HETATM    2  N   UNL     1      -8.006   3.006 -32.991  1.00  0.00    -0.031 NA
HETATM    3  C   UNL     1      -8.084   4.206 -33.539  1.00  0.00     0.219 A 
HETATM    4  N   UNL     1      -7.071   4.846 -34.110  1.00  0.00    -0.200 NA
HETATM    5  C   UNL     1      -5.931   4.155 -34.132  1.00  0.00     0.174 A 
HETATM    6  N   UNL     1      -5.765   2.934 -33.645  1.00  0.00    -0.045 NA
ENDROOT
BRANCH   5   7
HETATM    7  C   UNL     1      -4.683   4.930 -34.506  1.00  0.00     0.316 C 
BRANCH   7   8
HETATM    8  N   UNL     1      -4.165   5.825 -33.364  1.00  0.00    -0.061 N 
HETATM    9  H   UNL     1      -4.850   6.599 -33.342  1.00  0.00     0.280 HD
HETATM   10  C   UNL     1      -4.225   5.140 -32.003  1.00  0.00     0.255 C 
HETATM   11  C   UNL     1      -3.818   6.138 -30.891  1.00  0.00     0.152 C 
HETATM   12  N   UNL     1      -2.502   6.761 -31.162  1.00  0.00    -0.364 N 
HETATM   13  C   UNL     1      -2.331   7.333 -32.519  1.00  0.00     0.152 C 
HETATM   14  C   UNL     1      -2.782   6.375 -33.648  1.00  0.00     0.255 C 
BRANCH  12  15
HETATM   15  C   UNL     1      -1.414   6.303 -30.447  1.00  0.00     0.102 A 
HETATM   16  N   UNL     1      -1.321   6.665 -29.155  1.00  0.00    -0.352 N 
HETATM   17  H   UNL     1      -2.033   7.297 -28.797  1.00  0.00     0.166 HD
HETATM   18  C   UNL     1      -0.315   6.303 -28.345  1.00  0.00     0.089 A 
HETATM   19  C   UNL     1       0.710   5.508 -28.830  1.00  0.00     0.017 A 
HETATM   20  C   UNL     1       0.677   5.117 -30.162  1.00  0.00     0.005 A 
HETATM   21  C   UNL     1      -0.381   5.522 -30.976  1.00  0.00     0.048 A 
ENDBRANCH  12  15
ENDBRANCH   7   8
ENDBRANCH   5   7
BRANCH   3  22
HETATM   22  N   UNL     1      -9.289   4.869 -33.462  1.00  0.00    -0.270 NA
HETATM   23  H   UNL     1      -9.530   5.032 -32.489  1.00  0.00     0.127 HD
HETATM   24  H   UNL     1     -10.013   4.413 -34.001  1.00  0.00     0.127 HD
ENDBRANCH   3  22
BRANCH   1  25
HETATM   25  N   UNL     1      -6.743   1.128 -32.502  1.00  0.00    -0.185 N 
HETATM   26  H   UNL     1      -7.463   0.948 -31.811  1.00  0.00     0.184 HD
BRANCH  25  27
HETATM   27  C   UNL     1      -5.921   0.016 -32.773  1.00  0.00     0.084 A 
HETATM   28  C   UNL     1      -4.739  -0.162 -32.019  1.00  0.00     0.095 A 
HETATM   29  C   UNL     1      -3.899  -1.252 -32.272  1.00  0.00     0.041 A 
HETATM   30  C   UNL     1      -4.208  -2.152 -33.294  1.00  0.00     0.026 A 
HETATM   31  C   UNL     1      -5.351  -1.961 -34.061  1.00  0.00     0.036 A 
HETATM   32  C   UNL     1      -6.200  -0.883 -33.810  1.00  0.00     0.056 A 
HETATM   33 CL   UNL     1      -5.729  -3.057 -35.331  1.00  0.00    -0.084 Cl
BRANCH  28  34
HETATM   34  O   UNL     1      -4.510   0.790 -31.053  1.00  0.00    -0.354 OA
HETATM   35  C   UNL     1      -3.394   1.650 -31.260  1.00  0.00     0.210 C 
ENDBRANCH  28  34
ENDBRANCH  25  27
ENDBRANCH   1  25
TORSDOF 7
ENDMDL
