MODEL 1
REMARK VINA RESULT:      -8.8      0.000      0.000
REMARK  10 active torsions:
REMARK  status: ('A' for Active; 'I' for Inactive)
REMARK    1  A    between atoms: C_2  and  O_3 
REMARK    2  A    between atoms: O_3  and  C_4 
REMARK    3  A    between atoms: C_4  and  C_5 
REMARK    4  A    between atoms: C_6  and  C_7 
REMARK    5  A    between atoms: C_7  and  O_8 
REMARK    6  A    between atoms: O_8  and  C_9 
REMARK    7  A    between atoms: C_9  and  C_10 
REMARK       I    between atoms: C_10  and  N_11 
REMARK    8  A    between atoms: N_11  and  C_12 
REMARK    9  A    between atoms: C_12  and  C_13 
REMARK       I    between atoms: C_13  and  N_14 
REMARK   10  A    between atoms: N_14  and  C_15 
ROOT
HETATM    1  C   UNL     1      -3.898   5.166 -34.487  1.00  0.00     0.281 C 
ENDROOT
BRANCH   1   2
HETATM    2  O   UNL     1      -2.731   4.528 -33.987  1.00  0.00    -0.307 OA
BRANCH   2   3
HETATM    3  C   UNL     1      -1.591   5.269 -34.102  1.00  0.00     0.318 C 
HETATM    4  O   UNL     1      -1.017   5.480 -35.168  1.00  0.00    -0.257 OA
BRANCH   3   5
HETATM    5  C   UNL     1      -1.135   5.682 -32.792  1.00  0.00     0.160 A 
HETATM    6  C   UNL     1      -1.171   6.918 -32.158  1.00  0.00     0.018 A 
HETATM    7  C   UNL     1      -0.514   6.742 -30.901  1.00  0.00     0.009 A 
HETATM    8  C   UNL     1      -0.145   5.405 -30.846  1.00  0.00     0.087 A 
HETATM    9  C   UNL     1      -0.197   7.565 -29.802  1.00  0.00     0.015 A 
HETATM   10  O   UNL     1      -0.518   4.764 -31.982  1.00  0.00    -0.303 OA
HETATM   11  C   UNL     1       0.518   4.816 -29.771  1.00  0.00     0.038 A 
HETATM   12  C   UNL     1       0.825   5.651 -28.692  1.00  0.00     0.003 A 
HETATM   13  C   UNL     1       0.477   7.003 -28.706  1.00  0.00     0.001 A 
BRANCH   6  14
HETATM   14  C   UNL     1      -1.803   8.159 -32.677  1.00  0.00     0.210 C 
BRANCH  14  15
HETATM   15  O   UNL     1      -2.715   8.678 -31.713  1.00  0.00    -0.387 OA
BRANCH  15  16
HETATM   16  C   UNL     1      -3.846   7.835 -31.526  1.00  0.00     0.163 C 
HETATM   17  C   UNL     1      -4.385   8.056 -30.127  1.00  0.00     0.033 C 
ENDBRANCH  15  16
ENDBRANCH  14  15
ENDBRANCH   6  14
ENDBRANCH   3   5
ENDBRANCH   2   3
ENDBRANCH   1   2
BRANCH   1  18
HETATM   18  C   UNL     1      -5.222   4.592 -33.969  1.00  0.00     0.242 C 
HETATM   19  N   UNL     1      -5.084   3.506 -33.128  1.00  0.00    -0.350 N 
HETATM   20  H   UNL     1      -4.178   3.075 -32.993  1.00  0.00     0.163 HD
HETATM   21  O   UNL     1      -6.311   5.063 -34.277  1.00  0.00    -0.271 OA
BRANCH  19  22
HETATM   22  C   UNL     1      -6.239   2.911 -32.475  1.00  0.00     0.225 C 
BRANCH  22  23
HETATM   23  C   UNL     1      -6.298   1.377 -32.462  1.00  0.00     0.239 C 
HETATM   24  N   UNL     1      -5.392   0.775 -33.320  1.00  0.00    -0.325 N 
HETATM   25  H   UNL     1      -5.198   1.326 -34.153  1.00  0.00     0.169 HD
HETATM   26  O   UNL     1      -7.040   0.805 -31.667  1.00  0.00    -0.271 OA
BRANCH  24  27
HETATM   27  C   UNL     1      -5.098  -0.608 -33.416  1.00  0.00     0.041 C 
HETATM   28  C   UNL     1      -5.785  -1.559 -34.204  1.00  0.00    -0.029 C 
HETATM   29  C   UNL     1      -7.094  -1.260 -34.891  1.00  0.00     0.051 C 
HETATM   30  C   UNL     1      -5.257  -2.874 -34.316  1.00  0.00    -0.054 C 
HETATM   31  C   UNL     1      -5.867  -3.904 -35.233  1.00  0.00     0.049 C 
HETATM   32  C   UNL     1      -4.167  -3.260 -33.524  1.00  0.00     0.007 C 
HETATM   33  C   UNL     1      -3.580  -2.357 -32.651  1.00  0.00     0.003 C 
HETATM   34  C   UNL     1      -4.034  -1.041 -32.607  1.00  0.00     0.030 C 
ENDBRANCH  24  27
ENDBRANCH  22  23
ENDBRANCH  19  22
ENDBRANCH   1  18
TORSDOF 10
ENDMDL
MODEL 2
REMARK VINA RESULT:      -8.6      2.789      8.819
REMARK  10 active torsions:
REMARK  status: ('A' for Active; 'I' for Inactive)
REMARK    1  A    between atoms: C_2  and  O_3 
REMARK    2  A    between atoms: O_3  and  C_4 
REMARK    3  A    between atoms: C_4  and  C_5 
REMARK    4  A    between atoms: C_6  and  C_7 
REMARK    5  A    between atoms: C_7  and  O_8 
REMARK    6  A    between atoms: O_8  and  C_9 
REMARK    7  A    between atoms: C_9  and  C_10 
REMARK       I    between atoms: C_10  and  N_11 
REMARK    8  A    between atoms: N_11  and  C_12 
REMARK    9  A    between atoms: C_12  and  C_13 
REMARK       I    between atoms: C_13  and  N_14 
REMARK   10  A    between atoms: N_14  and  C_15 
ROOT
HETATM    1  C   UNL     1      -5.769   0.621 -30.114  1.00  0.00     0.281 C 
ENDROOT
BRANCH   1   2
HETATM    2  O   UNL     1      -4.693   0.446 -31.025  1.00  0.00    -0.307 OA
BRANCH   2   3
HETATM    3  C   UNL     1      -5.008   0.710 -32.327  1.00  0.00     0.318 C 
HETATM    4  O   UNL     1      -5.099   1.844 -32.792  1.00  0.00    -0.257 OA
BRANCH   3   5
HETATM    5  C   UNL     1      -5.293  -0.524 -33.027  1.00  0.00     0.160 A 
HETATM    6  C   UNL     1      -6.439  -0.965 -33.676  1.00  0.00     0.018 A 
HETATM    7  C   UNL     1      -6.160  -2.294 -34.123  1.00  0.00     0.009 A 
HETATM    8  C   UNL     1      -4.854  -2.561 -33.737  1.00  0.00     0.087 A 
HETATM    9  C   UNL     1      -6.865  -3.296 -34.819  1.00  0.00     0.015 A 
HETATM   10  O   UNL     1      -4.329  -1.498 -33.077  1.00  0.00    -0.303 OA
HETATM   11  C   UNL     1      -4.188  -3.758 -33.991  1.00  0.00     0.038 A 
HETATM   12  C   UNL     1      -4.907  -4.740 -34.680  1.00  0.00     0.003 A 
HETATM   13  C   UNL     1      -6.225  -4.515 -35.086  1.00  0.00     0.001 A 
BRANCH   6  14
HETATM   14  C   UNL     1      -7.687  -0.187 -33.892  1.00  0.00     0.210 C 
BRANCH  14  15
HETATM   15  O   UNL     1      -8.356   0.011 -32.649  1.00  0.00    -0.387 OA
BRANCH  15  16
HETATM   16  C   UNL     1      -9.765  -0.151 -32.759  1.00  0.00     0.163 C 
HETATM   17  C   UNL     1     -10.355   1.132 -33.310  1.00  0.00     0.033 C 
ENDBRANCH  15  16
ENDBRANCH  14  15
ENDBRANCH   6  14
ENDBRANCH   3   5
ENDBRANCH   2   3
ENDBRANCH   1   2
BRANCH   1  18
HETATM   18  C   UNL     1      -6.310   2.052 -30.017  1.00  0.00     0.242 C 
HETATM   19  N   UNL     1      -5.393   2.979 -29.564  1.00  0.00    -0.350 N 
HETATM   20  H   UNL     1      -4.492   2.680 -29.213  1.00  0.00     0.163 HD
HETATM   21  O   UNL     1      -7.461   2.344 -30.318  1.00  0.00    -0.271 OA
BRANCH  19  22
HETATM   22  C   UNL     1      -5.722   4.395 -29.510  1.00  0.00     0.225 C 
BRANCH  22  23
HETATM   23  C   UNL     1      -5.060   5.288 -30.568  1.00  0.00     0.239 C 
HETATM   24  N   UNL     1      -3.675   5.266 -30.532  1.00  0.00    -0.325 N 
HETATM   25  H   UNL     1      -3.298   5.122 -29.598  1.00  0.00     0.169 HD
HETATM   26  O   UNL     1      -5.758   5.865 -31.397  1.00  0.00    -0.271 OA
BRANCH  24  27
HETATM   27  C   UNL     1      -2.788   5.852 -31.470  1.00  0.00     0.041 C 
HETATM   28  C   UNL     1      -2.313   5.257 -32.660  1.00  0.00    -0.029 C 
HETATM   29  C   UNL     1      -2.515   3.797 -32.982  1.00  0.00     0.051 C 
HETATM   30  C   UNL     1      -1.562   6.045 -33.574  1.00  0.00    -0.054 C 
HETATM   31  C   UNL     1      -1.125   5.513 -34.915  1.00  0.00     0.049 C 
HETATM   32  C   UNL     1      -1.163   7.340 -33.217  1.00  0.00     0.007 C 
HETATM   33  C   UNL     1      -1.522   7.871 -31.987  1.00  0.00     0.003 C 
HETATM   34  C   UNL     1      -2.337   7.138 -31.128  1.00  0.00     0.030 C 
ENDBRANCH  24  27
ENDBRANCH  22  23
ENDBRANCH  19  22
ENDBRANCH   1  18
TORSDOF 10
ENDMDL
MODEL 3
REMARK VINA RESULT:      -8.5      2.205      9.509
REMARK  10 active torsions:
REMARK  status: ('A' for Active; 'I' for Inactive)
REMARK    1  A    between atoms: C_2  and  O_3 
REMARK    2  A    between atoms: O_3  and  C_4 
REMARK    3  A    between atoms: C_4  and  C_5 
REMARK    4  A    between atoms: C_6  and  C_7 
REMARK    5  A    between atoms: C_7  and  O_8 
REMARK    6  A    between atoms: O_8  and  C_9 
REMARK    7  A    between atoms: C_9  and  C_10 
REMARK       I    between atoms: C_10  and  N_11 
REMARK    8  A    between atoms: N_11  and  C_12 
REMARK    9  A    between atoms: C_12  and  C_13 
REMARK       I    between atoms: C_13  and  N_14 
REMARK   10  A    between atoms: N_14  and  C_15 
ROOT
HETATM    1  C   UNL     1      -3.235   3.272 -31.730  1.00  0.00     0.281 C 
ENDROOT
BRANCH   1   2
HETATM    2  O   UNL     1      -3.391   2.151 -32.590  1.00  0.00    -0.307 OA
BRANCH   2   3
HETATM    3  C   UNL     1      -3.378   0.945 -31.952  1.00  0.00     0.318 C 
HETATM    4  O   UNL     1      -2.716   0.712 -30.943  1.00  0.00    -0.257 OA
BRANCH   3   5
HETATM    5  C   UNL     1      -4.181  -0.010 -32.684  1.00  0.00     0.160 A 
HETATM    6  C   UNL     1      -5.517   0.018 -33.064  1.00  0.00     0.018 A 
HETATM    7  C   UNL     1      -5.777  -1.232 -33.707  1.00  0.00     0.009 A 
HETATM    8  C   UNL     1      -4.574  -1.925 -33.696  1.00  0.00     0.087 A 
HETATM    9  C   UNL     1      -6.894  -1.850 -34.304  1.00  0.00     0.015 A 
HETATM   10  O   UNL     1      -3.611  -1.192 -33.082  1.00  0.00    -0.303 OA
HETATM   11  C   UNL     1      -4.393  -3.196 -34.239  1.00  0.00     0.038 A 
HETATM   12  C   UNL     1      -5.515  -3.792 -34.823  1.00  0.00     0.003 A 
HETATM   13  C   UNL     1      -6.746  -3.133 -34.854  1.00  0.00     0.001 A 
BRANCH   6  14
HETATM   14  C   UNL     1      -6.467   1.144 -32.871  1.00  0.00     0.210 C 
BRANCH  14  15
HETATM   15  O   UNL     1      -7.319   0.875 -31.761  1.00  0.00    -0.387 OA
BRANCH  15  16
HETATM   16  C   UNL     1      -7.347   1.946 -30.825  1.00  0.00     0.163 C 
HETATM   17  C   UNL     1      -6.174   1.789 -29.878  1.00  0.00     0.033 C 
ENDBRANCH  15  16
ENDBRANCH  14  15
ENDBRANCH   6  14
ENDBRANCH   3   5
ENDBRANCH   2   3
ENDBRANCH   1   2
BRANCH   1  18
HETATM   18  C   UNL     1      -2.428   4.433 -32.320  1.00  0.00     0.242 C 
HETATM   19  N   UNL     1      -3.195   5.454 -32.845  1.00  0.00    -0.350 N 
HETATM   20  H   UNL     1      -4.198   5.348 -32.930  1.00  0.00     0.163 HD
HETATM   21  O   UNL     1      -1.202   4.451 -32.324  1.00  0.00    -0.271 OA
BRANCH  19  22
HETATM   22  C   UNL     1      -2.581   6.670 -33.353  1.00  0.00     0.225 C 
BRANCH  22  23
HETATM   23  C   UNL     1      -2.134   7.697 -32.302  1.00  0.00     0.239 C 
HETATM   24  N   UNL     1      -2.103   7.198 -31.010  1.00  0.00    -0.325 N 
HETATM   25  H   UNL     1      -2.806   6.482 -30.838  1.00  0.00     0.169 HD
HETATM   26  O   UNL     1      -1.761   8.810 -32.663  1.00  0.00    -0.271 OA
BRANCH  24  27
HETATM   27  C   UNL     1      -1.588   7.844 -29.859  1.00  0.00     0.041 C 
HETATM   28  C   UNL     1      -0.317   7.635 -29.279  1.00  0.00    -0.029 C 
HETATM   29  C   UNL     1       0.594   6.504 -29.688  1.00  0.00     0.051 C 
HETATM   30  C   UNL     1       0.110   8.487 -28.224  1.00  0.00    -0.054 C 
HETATM   31  C   UNL     1       1.497   8.400 -27.639  1.00  0.00     0.049 C 
HETATM   32  C   UNL     1      -0.786   9.407 -27.663  1.00  0.00     0.007 C 
HETATM   33  C   UNL     1      -2.079   9.515 -28.151  1.00  0.00     0.003 C 
HETATM   34  C   UNL     1      -2.471   8.748 -29.246  1.00  0.00     0.030 C 
ENDBRANCH  24  27
ENDBRANCH  22  23
ENDBRANCH  19  22
ENDBRANCH   1  18
TORSDOF 10
ENDMDL
MODEL 4
REMARK VINA RESULT:      -8.5      4.447      8.265
REMARK  10 active torsions:
REMARK  status: ('A' for Active; 'I' for Inactive)
REMARK    1  A    between atoms: C_2  and  O_3 
REMARK    2  A    between atoms: O_3  and  C_4 
REMARK    3  A    between atoms: C_4  and  C_5 
REMARK    4  A    between atoms: C_6  and  C_7 
REMARK    5  A    between atoms: C_7  and  O_8 
REMARK    6  A    between atoms: O_8  and  C_9 
REMARK    7  A    between atoms: C_9  and  C_10 
REMARK       I    between atoms: C_10  and  N_11 
REMARK    8  A    between atoms: N_11  and  C_12 
REMARK    9  A    between atoms: C_12  and  C_13 
REMARK       I    between atoms: C_13  and  N_14 
REMARK   10  A    between atoms: N_14  and  C_15 
ROOT
HETATM    1  C   UNL     1      -4.739   1.807 -30.437  1.00  0.00     0.281 C 
ENDROOT
BRANCH   1   2
HETATM    2  O   UNL     1      -4.842   0.411 -30.684  1.00  0.00    -0.307 OA
BRANCH   2   3
HETATM    3  C   UNL     1      -3.773  -0.125 -31.340  1.00  0.00     0.318 C 
HETATM    4  O   UNL     1      -2.618   0.276 -31.209  1.00  0.00    -0.257 OA
BRANCH   3   5
HETATM    5  C   UNL     1      -4.219  -1.157 -32.251  1.00  0.00     0.160 A 
HETATM    6  C   UNL     1      -5.350  -1.243 -33.053  1.00  0.00     0.018 A 
HETATM    7  C   UNL     1      -5.295  -2.524 -33.687  1.00  0.00     0.009 A 
HETATM    8  C   UNL     1      -4.121  -3.119 -33.246  1.00  0.00     0.087 A 
HETATM    9  C   UNL     1      -6.105  -3.241 -34.589  1.00  0.00     0.015 A 
HETATM   10  O   UNL     1      -3.470  -2.299 -32.382  1.00  0.00    -0.303 OA
HETATM   11  C   UNL     1      -3.684  -4.382 -33.637  1.00  0.00     0.038 A 
HETATM   12  C   UNL     1      -4.504  -5.078 -34.531  1.00  0.00     0.003 A 
HETATM   13  C   UNL     1      -5.696  -4.519 -34.999  1.00  0.00     0.001 A 
BRANCH   6  14
HETATM   14  C   UNL     1      -6.384  -0.192 -33.239  1.00  0.00     0.210 C 
BRANCH  14  15
HETATM   15  O   UNL     1      -5.931   0.773 -34.185  1.00  0.00    -0.387 OA
BRANCH  15  16
HETATM   16  C   UNL     1      -6.953   1.163 -35.094  1.00  0.00     0.163 C 
HETATM   17  C   UNL     1      -7.835  -0.038 -35.372  1.00  0.00     0.033 C 
ENDBRANCH  15  16
ENDBRANCH  14  15
ENDBRANCH   6  14
ENDBRANCH   3   5
ENDBRANCH   2   3
ENDBRANCH   1   2
BRANCH   1  18
HETATM   18  C   UNL     1      -5.443   2.699 -31.466  1.00  0.00     0.242 C 
HETATM   19  N   UNL     1      -6.814   2.766 -31.322  1.00  0.00    -0.350 N 
HETATM   20  H   UNL     1      -7.290   2.162 -30.664  1.00  0.00     0.163 HD
HETATM   21  O   UNL     1      -4.834   3.303 -32.342  1.00  0.00    -0.271 OA
BRANCH  19  22
HETATM   22  C   UNL     1      -7.615   3.647 -32.156  1.00  0.00     0.225 C 
BRANCH  22  23
HETATM   23  C   UNL     1      -9.096   3.277 -32.312  1.00  0.00     0.239 C 
HETATM   24  N   UNL     1      -9.445   2.893 -33.597  1.00  0.00    -0.325 N 
HETATM   25  H   UNL     1      -8.900   3.359 -34.319  1.00  0.00     0.169 HD
HETATM   26  O   UNL     1      -9.823   3.256 -31.322  1.00  0.00    -0.271 OA
BRANCH  24  27
HETATM   27  C   UNL     1     -10.684   2.348 -34.017  1.00  0.00     0.041 C 
HETATM   28  C   UNL     1     -11.223   1.099 -33.635  1.00  0.00    -0.029 C 
HETATM   29  C   UNL     1     -10.427   0.057 -32.890  1.00  0.00     0.051 C 
HETATM   30  C   UNL     1     -12.555   0.777 -34.015  1.00  0.00    -0.054 C 
HETATM   31  C   UNL     1     -13.236  -0.484 -33.544  1.00  0.00     0.049 C 
HETATM   32  C   UNL     1     -13.255   1.616 -34.891  1.00  0.00     0.007 C 
HETATM   33  C   UNL     1     -12.668   2.778 -35.369  1.00  0.00     0.003 C 
HETATM   34  C   UNL     1     -11.400   3.145 -34.926  1.00  0.00     0.030 C 
ENDBRANCH  24  27
ENDBRANCH  22  23
ENDBRANCH  19  22
ENDBRANCH   1  18
TORSDOF 10
ENDMDL
MODEL 5
REMARK VINA RESULT:      -8.4      2.378      9.724
REMARK  10 active torsions:
REMARK  status: ('A' for Active; 'I' for Inactive)
REMARK    1  A    between atoms: C_2  and  O_3 
REMARK    2  A    between atoms: O_3  and  C_4 
REMARK    3  A    between atoms: C_4  and  C_5 
REMARK    4  A    between atoms: C_6  and  C_7 
REMARK    5  A    between atoms: C_7  and  O_8 
REMARK    6  A    between atoms: O_8  and  C_9 
REMARK    7  A    between atoms: C_9  and  C_10 
REMARK       I    between atoms: C_10  and  N_11 
REMARK    8  A    between atoms: N_11  and  C_12 
REMARK    9  A    between atoms: C_12  and  C_13 
REMARK       I    between atoms: C_13  and  N_14 
REMARK   10  A    between atoms: N_14  and  C_15 
ROOT
HETATM    1  C   UNL     1      -5.087   2.864 -30.529  1.00  0.00     0.281 C 
ENDROOT
BRANCH   1   2
HETATM    2  O   UNL     1      -5.858   1.741 -30.934  1.00  0.00    -0.307 OA
BRANCH   2   3
HETATM    3  C   UNL     1      -6.384   1.842 -32.190  1.00  0.00     0.318 C 
HETATM    4  O   UNL     1      -6.909   2.863 -32.631  1.00  0.00    -0.257 OA
BRANCH   3   5
HETATM    5  C   UNL     1      -6.302   0.565 -32.865  1.00  0.00     0.160 A 
HETATM    6  C   UNL     1      -7.292  -0.267 -33.374  1.00  0.00     0.018 A 
HETATM    7  C   UNL     1      -6.623  -1.429 -33.869  1.00  0.00     0.009 A 
HETATM    8  C   UNL     1      -5.269  -1.213 -33.650  1.00  0.00     0.087 A 
HETATM    9  C   UNL     1      -7.012  -2.634 -34.485  1.00  0.00     0.015 A 
HETATM   10  O   UNL     1      -5.072  -0.014 -33.046  1.00  0.00    -0.303 OA
HETATM   11  C   UNL     1      -4.263  -2.111 -34.000  1.00  0.00     0.038 A 
HETATM   12  C   UNL     1      -4.671  -3.302 -34.607  1.00  0.00     0.003 A 
HETATM   13  C   UNL     1      -6.023  -3.563 -34.844  1.00  0.00     0.001 A 
BRANCH   6  14
HETATM   14  C   UNL     1      -8.749   0.022 -33.424  1.00  0.00     0.210 C 
BRANCH  14  15
HETATM   15  O   UNL     1      -9.025   0.945 -34.474  1.00  0.00    -0.387 OA
BRANCH  15  16
HETATM   16  C   UNL     1     -10.084   1.838 -34.148  1.00  0.00     0.163 C 
HETATM   17  C   UNL     1     -11.254   1.027 -33.630  1.00  0.00     0.033 C 
ENDBRANCH  15  16
ENDBRANCH  14  15
ENDBRANCH   6  14
ENDBRANCH   3   5
ENDBRANCH   2   3
ENDBRANCH   1   2
BRANCH   1  18
HETATM   18  C   UNL     1      -3.696   2.957 -31.165  1.00  0.00     0.242 C 
HETATM   19  N   UNL     1      -3.365   4.212 -31.636  1.00  0.00    -0.350 N 
HETATM   20  H   UNL     1      -4.058   4.949 -31.659  1.00  0.00     0.163 HD
HETATM   21  O   UNL     1      -2.941   1.995 -31.245  1.00  0.00    -0.271 OA
BRANCH  19  22
HETATM   22  C   UNL     1      -2.044   4.487 -32.177  1.00  0.00     0.225 C 
BRANCH  22  23
HETATM   23  C   UNL     1      -1.283   5.663 -31.549  1.00  0.00     0.239 C 
HETATM   24  N   UNL     1      -1.518   5.822 -30.192  1.00  0.00    -0.325 N 
HETATM   25  H   UNL     1      -2.453   5.538 -29.910  1.00  0.00     0.169 HD
HETATM   26  O   UNL     1      -0.483   6.301 -32.229  1.00  0.00    -0.271 OA
BRANCH  24  27
HETATM   27  C   UNL     1      -0.850   6.705 -29.309  1.00  0.00     0.041 C 
HETATM   28  C   UNL     1      -1.190   8.053 -29.055  1.00  0.00    -0.029 C 
HETATM   29  C   UNL     1      -2.197   8.813 -29.882  1.00  0.00     0.051 C 
HETATM   30  C   UNL     1      -0.519   8.750 -28.014  1.00  0.00    -0.054 C 
HETATM   31  C   UNL     1      -0.911  10.149 -27.608  1.00  0.00     0.049 C 
HETATM   32  C   UNL     1       0.573   8.158 -27.366  1.00  0.00     0.007 C 
HETATM   33  C   UNL     1       0.987   6.881 -27.714  1.00  0.00     0.003 C 
HETATM   34  C   UNL     1       0.274   6.158 -28.667  1.00  0.00     0.030 C 
ENDBRANCH  24  27
ENDBRANCH  22  23
ENDBRANCH  19  22
ENDBRANCH   1  18
TORSDOF 10
ENDMDL
MODEL 6
REMARK VINA RESULT:      -8.4      1.652      2.429
REMARK  10 active torsions:
REMARK  status: ('A' for Active; 'I' for Inactive)
REMARK    1  A    between atoms: C_2  and  O_3 
REMARK    2  A    between atoms: O_3  and  C_4 
REMARK    3  A    between atoms: C_4  and  C_5 
REMARK    4  A    between atoms: C_6  and  C_7 
REMARK    5  A    between atoms: C_7  and  O_8 
REMARK    6  A    between atoms: O_8  and  C_9 
REMARK    7  A    between atoms: C_9  and  C_10 
REMARK       I    between atoms: C_10  and  N_11 
REMARK    8  A    between atoms: N_11  and  C_12 
REMARK    9  A    between atoms: C_12  and  C_13 
REMARK       I    between atoms: C_13  and  N_14 
REMARK   10  A    between atoms: N_14  and  C_15 
ROOT
HETATM    1  C   UNL     1      -2.249   4.672 -33.631  1.00  0.00     0.281 C 
ENDROOT
BRANCH   1   2
HETATM    2  O   UNL     1      -1.074   5.425 -33.363  1.00  0.00    -0.307 OA
BRANCH   2   3
HETATM    3  C   UNL     1      -1.275   6.771 -33.271  1.00  0.00     0.318 C 
HETATM    4  O   UNL     1      -1.456   7.503 -34.242  1.00  0.00    -0.257 OA
BRANCH   3   5
HETATM    5  C   UNL     1      -1.161   7.196 -31.893  1.00  0.00     0.160 A 
HETATM    6  C   UNL     1      -2.065   7.836 -31.054  1.00  0.00     0.018 A 
HETATM    7  C   UNL     1      -1.376   8.065 -29.823  1.00  0.00     0.009 A 
HETATM    8  C   UNL     1      -0.107   7.527 -29.988  1.00  0.00     0.087 A 
HETATM    9  C   UNL     1      -1.688   8.661 -28.585  1.00  0.00     0.015 A 
HETATM   10  O   UNL     1       0.026   7.003 -31.233  1.00  0.00    -0.303 OA
HETATM   11  C   UNL     1       0.884   7.534 -29.010  1.00  0.00     0.038 A 
HETATM   12  C   UNL     1       0.554   8.133 -27.790  1.00  0.00     0.003 A 
HETATM   13  C   UNL     1      -0.709   8.690 -27.580  1.00  0.00     0.001 A 
BRANCH   6  14
HETATM   14  C   UNL     1      -3.477   8.173 -31.370  1.00  0.00     0.210 C 
BRANCH  14  15
HETATM   15  O   UNL     1      -4.255   6.982 -31.450  1.00  0.00    -0.387 OA
BRANCH  15  16
HETATM   16  C   UNL     1      -5.373   7.004 -30.570  1.00  0.00     0.163 C 
HETATM   17  C   UNL     1      -4.889   6.696 -29.167  1.00  0.00     0.033 C 
ENDBRANCH  15  16
ENDBRANCH  14  15
ENDBRANCH   6  14
ENDBRANCH   3   5
ENDBRANCH   2   3
ENDBRANCH   1   2
BRANCH   1  18
HETATM   18  C   UNL     1      -2.889   4.013 -32.405  1.00  0.00     0.242 C 
HETATM   19  N   UNL     1      -4.269   3.994 -32.421  1.00  0.00    -0.350 N 
HETATM   20  H   UNL     1      -4.780   4.496 -33.136  1.00  0.00     0.163 HD
HETATM   21  O   UNL     1      -2.227   3.542 -31.486  1.00  0.00    -0.271 OA
BRANCH  19  22
HETATM   22  C   UNL     1      -5.024   3.317 -31.379  1.00  0.00     0.225 C 
BRANCH  22  23
HETATM   23  C   UNL     1      -5.424   1.862 -31.663  1.00  0.00     0.239 C 
HETATM   24  N   UNL     1      -5.464   1.546 -33.012  1.00  0.00    -0.325 N 
HETATM   25  H   UNL     1      -5.729   2.332 -33.602  1.00  0.00     0.169 HD
HETATM   26  O   UNL     1      -5.586   1.083 -30.727  1.00  0.00    -0.271 OA
BRANCH  24  27
HETATM   27  C   UNL     1      -5.642   0.261 -33.582  1.00  0.00     0.041 C 
HETATM   28  C   UNL     1      -4.712  -0.802 -33.557  1.00  0.00    -0.029 C 
HETATM   29  C   UNL     1      -3.282  -0.630 -33.107  1.00  0.00     0.051 C 
HETATM   30  C   UNL     1      -5.114  -2.081 -34.030  1.00  0.00    -0.054 C 
HETATM   31  C   UNL     1      -4.216  -3.289 -33.925  1.00  0.00     0.049 C 
HETATM   32  C   UNL     1      -6.356  -2.236 -34.659  1.00  0.00     0.007 C 
HETATM   33  C   UNL     1      -7.211  -1.154 -34.799  1.00  0.00     0.003 C 
HETATM   34  C   UNL     1      -6.862   0.079 -34.254  1.00  0.00     0.030 C 
ENDBRANCH  24  27
ENDBRANCH  22  23
ENDBRANCH  19  22
ENDBRANCH   1  18
TORSDOF 10
ENDMDL
MODEL 7
REMARK VINA RESULT:      -8.4      2.646      8.450
REMARK  10 active torsions:
REMARK  status: ('A' for Active; 'I' for Inactive)
REMARK    1  A    between atoms: C_2  and  O_3 
REMARK    2  A    between atoms: O_3  and  C_4 
REMARK    3  A    between atoms: C_4  and  C_5 
REMARK    4  A    between atoms: C_6  and  C_7 
REMARK    5  A    between atoms: C_7  and  O_8 
REMARK    6  A    between atoms: O_8  and  C_9 
REMARK    7  A    between atoms: C_9  and  C_10 
REMARK       I    between atoms: C_10  and  N_11 
REMARK    8  A    between atoms: N_11  and  C_12 
REMARK    9  A    between atoms: C_12  and  C_13 
REMARK       I    between atoms: C_13  and  N_14 
REMARK   10  A    between atoms: N_14  and  C_15 
ROOT
HETATM    1  C   UNL     1      -8.796   0.673 -33.369  1.00  0.00     0.281 C 
ENDROOT
BRANCH   1   2
HETATM    2  O   UNL     1      -8.525  -0.066 -34.552  1.00  0.00    -0.307 OA
BRANCH   2   3
HETATM    3  C   UNL     1      -7.260   0.093 -35.039  1.00  0.00     0.318 C 
HETATM    4  O   UNL     1      -6.920   1.020 -35.771  1.00  0.00    -0.257 OA
BRANCH   3   5
HETATM    5  C   UNL     1      -6.430  -1.021 -34.633  1.00  0.00     0.160 A 
HETATM    6  C   UNL     1      -5.302  -1.074 -33.823  1.00  0.00     0.018 A 
HETATM    7  C   UNL     1      -4.866  -2.436 -33.834  1.00  0.00     0.009 A 
HETATM    8  C   UNL     1      -5.773  -3.122 -34.629  1.00  0.00     0.087 A 
HETATM    9  C   UNL     1      -3.809  -3.164 -33.253  1.00  0.00     0.015 A 
HETATM   10  O   UNL     1      -6.716  -2.273 -35.111  1.00  0.00    -0.303 OA
HETATM   11  C   UNL     1      -5.712  -4.488 -34.893  1.00  0.00     0.038 A 
HETATM   12  C   UNL     1      -4.654  -5.191 -34.309  1.00  0.00     0.003 A 
HETATM   13  C   UNL     1      -3.716  -4.541 -33.504  1.00  0.00     0.001 A 
BRANCH   6  14
HETATM   14  C   UNL     1      -4.700   0.057 -33.069  1.00  0.00     0.210 C 
BRANCH  14  15
HETATM   15  O   UNL     1      -4.693  -0.239 -31.675  1.00  0.00    -0.387 OA
BRANCH  15  16
HETATM   16  C   UNL     1      -5.992  -0.178 -31.100  1.00  0.00     0.163 C 
HETATM   17  C   UNL     1      -5.912   0.621 -29.814  1.00  0.00     0.033 C 
ENDBRANCH  15  16
ENDBRANCH  14  15
ENDBRANCH   6  14
ENDBRANCH   3   5
ENDBRANCH   2   3
ENDBRANCH   1   2
BRANCH   1  18
HETATM   18  C   UNL     1      -8.939   2.186 -33.570  1.00  0.00     0.242 C 
HETATM   19  N   UNL     1      -7.750   2.884 -33.523  1.00  0.00    -0.350 N 
HETATM   20  H   UNL     1      -6.894   2.420 -33.249  1.00  0.00     0.163 HD
HETATM   21  O   UNL     1     -10.024   2.727 -33.756  1.00  0.00    -0.271 OA
BRANCH  19  22
HETATM   22  C   UNL     1      -7.707   4.313 -33.793  1.00  0.00     0.225 C 
BRANCH  22  23
HETATM   23  C   UNL     1      -6.400   5.034 -33.435  1.00  0.00     0.239 C 
HETATM   24  N   UNL     1      -5.262   4.277 -33.664  1.00  0.00    -0.325 N 
HETATM   25  H   UNL     1      -5.410   3.279 -33.537  1.00  0.00     0.169 HD
HETATM   26  O   UNL     1      -6.434   6.208 -33.074  1.00  0.00    -0.271 OA
BRANCH  24  27
HETATM   27  C   UNL     1      -3.916   4.715 -33.584  1.00  0.00     0.041 C 
HETATM   28  C   UNL     1      -3.142   4.834 -32.408  1.00  0.00    -0.029 C 
HETATM   29  C   UNL     1      -3.733   4.723 -31.024  1.00  0.00     0.051 C 
HETATM   30  C   UNL     1      -1.756   5.128 -32.521  1.00  0.00    -0.054 C 
HETATM   31  C   UNL     1      -0.845   5.152 -31.320  1.00  0.00     0.049 C 
HETATM   32  C   UNL     1      -1.210   5.456 -33.770  1.00  0.00     0.007 C 
HETATM   33  C   UNL     1      -2.008   5.466 -34.903  1.00  0.00     0.003 C 
HETATM   34  C   UNL     1      -3.345   5.088 -34.812  1.00  0.00     0.030 C 
ENDBRANCH  24  27
ENDBRANCH  22  23
ENDBRANCH  19  22
ENDBRANCH   1  18
TORSDOF 10
ENDMDL
MODEL 8
REMARK VINA RESULT:      -8.4      2.036      9.281
REMARK  10 active torsions:
REMARK  status: ('A' for Active; 'I' for Inactive)
REMARK    1  A    between atoms: C_2  and  O_3 
REMARK    2  A    between atoms: O_3  and  C_4 
REMARK    3  A    between atoms: C_4  and  C_5 
REMARK    4  A    between atoms: C_6  and  C_7 
REMARK    5  A    between atoms: C_7  and  O_8 
REMARK    6  A    between atoms: O_8  and  C_9 
REMARK    7  A    between atoms: C_9  and  C_10 
REMARK       I    between atoms: C_10  and  N_11 
REMARK    8  A    between atoms: N_11  and  C_12 
REMARK    9  A    between atoms: C_12  and  C_13 
REMARK       I    between atoms: C_13  and  N_14 
REMARK   10  A    between atoms: N_14  and  C_15 
ROOT
HETATM    1  C   UNL     1      -5.367   3.331 -33.292  1.00  0.00     0.281 C 
ENDROOT
BRANCH   1   2
HETATM    2  O   UNL     1      -4.448   2.536 -32.556  1.00  0.00    -0.307 OA
BRANCH   2   3
HETATM    3  C   UNL     1      -5.031   1.611 -31.740  1.00  0.00     0.318 C 
HETATM    4  O   UNL     1      -5.136   1.742 -30.522  1.00  0.00    -0.257 OA
BRANCH   3   5
HETATM    5  C   UNL     1      -5.419   0.447 -32.508  1.00  0.00     0.160 A 
HETATM    6  C   UNL     1      -6.667  -0.114 -32.752  1.00  0.00     0.018 A 
HETATM    7  C   UNL     1      -6.431  -1.295 -33.522  1.00  0.00     0.009 A 
HETATM    8  C   UNL     1      -5.057  -1.358 -33.715  1.00  0.00     0.087 A 
HETATM    9  C   UNL     1      -7.227  -2.313 -34.083  1.00  0.00     0.015 A 
HETATM   10  O   UNL     1      -4.446  -0.310 -33.107  1.00  0.00    -0.303 OA
HETATM   11  C   UNL     1      -4.409  -2.362 -34.430  1.00  0.00     0.038 A 
HETATM   12  C   UNL     1      -5.218  -3.363 -34.976  1.00  0.00     0.003 A 
HETATM   13  C   UNL     1      -6.604  -3.342 -34.804  1.00  0.00     0.001 A 
BRANCH   6  14
HETATM   14  C   UNL     1      -7.981   0.434 -32.326  1.00  0.00     0.210 C 
BRANCH  14  15
HETATM   15  O   UNL     1      -8.408   1.438 -33.243  1.00  0.00    -0.387 OA
BRANCH  15  16
HETATM   16  C   UNL     1      -9.186   0.904 -34.308  1.00  0.00     0.163 C 
HETATM   17  C   UNL     1     -10.600   1.436 -34.184  1.00  0.00     0.033 C 
ENDBRANCH  15  16
ENDBRANCH  14  15
ENDBRANCH   6  14
ENDBRANCH   3   5
ENDBRANCH   2   3
ENDBRANCH   1   2
BRANCH   1  18
HETATM   18  C   UNL     1      -4.781   4.619 -33.882  1.00  0.00     0.242 C 
HETATM   19  N   UNL     1      -3.401   4.665 -33.895  1.00  0.00    -0.350 N 
HETATM   20  H   UNL     1      -2.860   3.948 -33.429  1.00  0.00     0.163 HD
HETATM   21  O   UNL     1      -5.482   5.530 -34.306  1.00  0.00    -0.271 OA
BRANCH  19  22
HETATM   22  C   UNL     1      -2.693   5.775 -34.512  1.00  0.00     0.225 C 
BRANCH  22  23
HETATM   23  C   UNL     1      -2.061   6.796 -33.556  1.00  0.00     0.239 C 
HETATM   24  N   UNL     1      -2.074   6.400 -32.228  1.00  0.00    -0.325 N 
HETATM   25  H   UNL     1      -2.874   5.820 -31.988  1.00  0.00     0.169 HD
HETATM   26  O   UNL     1      -1.529   7.805 -34.011  1.00  0.00    -0.271 OA
BRANCH  24  27
HETATM   27  C   UNL     1      -1.432   7.044 -31.140  1.00  0.00     0.041 C 
HETATM   28  C   UNL     1      -1.912   8.167 -30.430  1.00  0.00    -0.029 C 
HETATM   29  C   UNL     1      -3.090   8.987 -30.894  1.00  0.00     0.051 C 
HETATM   30  C   UNL     1      -1.227   8.587 -29.257  1.00  0.00    -0.054 C 
HETATM   31  C   UNL     1      -1.747   9.700 -28.384  1.00  0.00     0.049 C 
HETATM   32  C   UNL     1      -0.005   7.994 -28.911  1.00  0.00     0.007 C 
HETATM   33  C   UNL     1       0.528   6.978 -29.691  1.00  0.00     0.003 C 
HETATM   34  C   UNL     1      -0.186   6.501 -30.787  1.00  0.00     0.030 C 
ENDBRANCH  24  27
ENDBRANCH  22  23
ENDBRANCH  19  22
ENDBRANCH   1  18
TORSDOF 10
ENDMDL
MODEL 9
REMARK VINA RESULT:      -8.2      3.353      7.137
REMARK  10 active torsions:
REMARK  status: ('A' for Active; 'I' for Inactive)
REMARK    1  A    between atoms: C_2  and  O_3 
REMARK    2  A    between atoms: O_3  and  C_4 
REMARK    3  A    between atoms: C_4  and  C_5 
REMARK    4  A    between atoms: C_6  and  C_7 
REMARK    5  A    between atoms: C_7  and  O_8 
REMARK    6  A    between atoms: O_8  and  C_9 
REMARK    7  A    between atoms: C_9  and  C_10 
REMARK       I    between atoms: C_10  and  N_11 
REMARK    8  A    between atoms: N_11  and  C_12 
REMARK    9  A    between atoms: C_12  and  C_13 
REMARK       I    between atoms: C_13  and  N_14 
REMARK   10  A    between atoms: N_14  and  C_15 
ROOT
HETATM    1  C   UNL     1      -5.825   2.320 -30.910  1.00  0.00     0.281 C 
ENDROOT
BRANCH   1   2
HETATM    2  O   UNL     1      -4.418   2.273 -30.723  1.00  0.00    -0.307 OA
BRANCH   2   3
HETATM    3  C   UNL     1      -3.694   2.312 -31.879  1.00  0.00     0.318 C 
HETATM    4  O   UNL     1      -3.646   1.387 -32.688  1.00  0.00    -0.257 OA
BRANCH   3   5
HETATM    5  C   UNL     1      -2.946   3.549 -31.953  1.00  0.00     0.160 A 
HETATM    6  C   UNL     1      -3.051   4.631 -32.818  1.00  0.00     0.018 A 
HETATM    7  C   UNL     1      -2.004   5.535 -32.456  1.00  0.00     0.009 A 
HETATM    8  C   UNL     1      -1.350   4.952 -31.380  1.00  0.00     0.087 A 
HETATM    9  C   UNL     1      -1.543   6.784 -32.916  1.00  0.00     0.015 A 
HETATM   10  O   UNL     1      -1.915   3.756 -31.074  1.00  0.00    -0.303 OA
HETATM   11  C   UNL     1      -0.264   5.520 -30.718  1.00  0.00     0.038 A 
HETATM   12  C   UNL     1       0.179   6.759 -31.192  1.00  0.00     0.003 A 
HETATM   13  C   UNL     1      -0.447   7.381 -32.275  1.00  0.00     0.001 A 
BRANCH   6  14
HETATM   14  C   UNL     1      -4.076   4.819 -33.878  1.00  0.00     0.210 C 
BRANCH  14  15
HETATM   15  O   UNL     1      -4.859   5.975 -33.595  1.00  0.00    -0.387 OA
BRANCH  15  16
HETATM   16  C   UNL     1      -6.132   5.649 -33.048  1.00  0.00     0.163 C 
HETATM   17  C   UNL     1      -6.696   4.469 -33.815  1.00  0.00     0.033 C 
ENDBRANCH  15  16
ENDBRANCH  14  15
ENDBRANCH   6  14
ENDBRANCH   3   5
ENDBRANCH   2   3
ENDBRANCH   1   2
BRANCH   1  18
HETATM   18  C   UNL     1      -6.563   3.332 -30.026  1.00  0.00     0.242 C 
HETATM   19  N   UNL     1      -5.772   3.941 -29.074  1.00  0.00    -0.350 N 
HETATM   20  H   UNL     1      -4.822   3.627 -28.918  1.00  0.00     0.163 HD
HETATM   21  O   UNL     1      -7.757   3.577 -30.158  1.00  0.00    -0.271 OA
BRANCH  19  22
HETATM   22  C   UNL     1      -6.299   4.997 -28.223  1.00  0.00     0.225 C 
BRANCH  22  23
HETATM   23  C   UNL     1      -5.383   6.206 -27.991  1.00  0.00     0.239 C 
HETATM   24  N   UNL     1      -4.205   6.164 -28.720  1.00  0.00    -0.325 N 
HETATM   25  H   UNL     1      -3.865   5.219 -28.882  1.00  0.00     0.169 HD
HETATM   26  O   UNL     1      -5.769   7.133 -27.283  1.00  0.00    -0.271 OA
BRANCH  24  27
HETATM   27  C   UNL     1      -3.241   7.195 -28.842  1.00  0.00     0.041 C 
HETATM   28  C   UNL     1      -3.265   8.260 -29.770  1.00  0.00    -0.029 C 
HETATM   29  C   UNL     1      -4.229   8.314 -30.930  1.00  0.00     0.051 C 
HETATM   30  C   UNL     1      -2.308   9.304 -29.649  1.00  0.00    -0.054 C 
HETATM   31  C   UNL     1      -2.348  10.530 -30.527  1.00  0.00     0.049 C 
HETATM   32  C   UNL     1      -1.260   9.188 -28.726  1.00  0.00     0.007 C 
HETATM   33  C   UNL     1      -1.167   8.073 -27.907  1.00  0.00     0.003 C 
HETATM   34  C   UNL     1      -2.154   7.093 -27.958  1.00  0.00     0.030 C 
ENDBRANCH  24  27
ENDBRANCH  22  23
ENDBRANCH  19  22
ENDBRANCH   1  18
TORSDOF 10
ENDMDL
MODEL 10
REMARK VINA RESULT:      -8.2      2.267      9.758
REMARK  10 active torsions:
REMARK  status: ('A' for Active; 'I' for Inactive)
REMARK    1  A    between atoms: C_2  and  O_3 
REMARK    2  A    between atoms: O_3  and  C_4 
REMARK    3  A    between atoms: C_4  and  C_5 
REMARK    4  A    between atoms: C_6  and  C_7 
REMARK    5  A    between atoms: C_7  and  O_8 
REMARK    6  A    between atoms: O_8  and  C_9 
REMARK    7  A    between atoms: C_9  and  C_10 
REMARK       I    between atoms: C_10  and  N_11 
REMARK    8  A    between atoms: N_11  and  C_12 
REMARK    9  A    between atoms: C_12  and  C_13 
REMARK       I    between atoms: C_13  and  N_14 
REMARK   10  A    between atoms: N_14  and  C_15 
ROOT
HETATM    1  C   UNL     1      -4.642   2.122 -30.530  1.00  0.00     0.281 C 
ENDROOT
BRANCH   1   2
HETATM    2  O   UNL     1      -5.009   0.875 -31.104  1.00  0.00    -0.307 OA
BRANCH   2   3
HETATM    3  C   UNL     1      -3.956   0.127 -31.546  1.00  0.00     0.318 C 
HETATM    4  O   UNL     1      -2.785   0.351 -31.248  1.00  0.00    -0.257 OA
BRANCH   3   5
HETATM    5  C   UNL     1      -4.423  -0.891 -32.462  1.00  0.00     0.160 A 
HETATM    6  C   UNL     1      -5.517  -0.920 -33.318  1.00  0.00     0.018 A 
HETATM    7  C   UNL     1      -5.514  -2.213 -33.927  1.00  0.00     0.009 A 
HETATM    8  C   UNL     1      -4.404  -2.874 -33.419  1.00  0.00     0.087 A 
HETATM    9  C   UNL     1      -6.323  -2.894 -34.858  1.00  0.00     0.015 A 
HETATM   10  O   UNL     1      -3.744  -2.081 -32.537  1.00  0.00    -0.303 OA
HETATM   11  C   UNL     1      -4.031  -4.170 -33.768  1.00  0.00     0.038 A 
HETATM   12  C   UNL     1      -4.850  -4.828 -34.691  1.00  0.00     0.003 A 
HETATM   13  C   UNL     1      -5.979  -4.204 -35.227  1.00  0.00     0.001 A 
BRANCH   6  14
HETATM   14  C   UNL     1      -6.470   0.191 -33.571  1.00  0.00     0.210 C 
BRANCH  14  15
HETATM   15  O   UNL     1      -7.797  -0.228 -33.263  1.00  0.00    -0.387 OA
BRANCH  15  16
HETATM   16  C   UNL     1      -8.779   0.488 -34.003  1.00  0.00     0.163 C 
HETATM   17  C   UNL     1      -9.965   0.754 -33.098  1.00  0.00     0.033 C 
ENDBRANCH  15  16
ENDBRANCH  14  15
ENDBRANCH   6  14
ENDBRANCH   3   5
ENDBRANCH   2   3
ENDBRANCH   1   2
BRANCH   1  18
HETATM   18  C   UNL     1      -4.153   3.176 -31.530  1.00  0.00     0.242 C 
HETATM   19  N   UNL     1      -2.824   3.522 -31.392  1.00  0.00    -0.350 N 
HETATM   20  H   UNL     1      -2.286   3.182 -30.605  1.00  0.00     0.163 HD
HETATM   21  O   UNL     1      -4.885   3.669 -32.380  1.00  0.00    -0.271 OA
BRANCH  19  22
HETATM   22  C   UNL     1      -2.184   4.434 -32.326  1.00  0.00     0.225 C 
BRANCH  22  23
HETATM   23  C   UNL     1      -1.703   5.773 -31.749  1.00  0.00     0.239 C 
HETATM   24  N   UNL     1      -1.930   5.910 -30.389  1.00  0.00    -0.325 N 
HETATM   25  H   UNL     1      -2.764   5.423 -30.069  1.00  0.00     0.169 HD
HETATM   26  O   UNL     1      -1.096   6.561 -32.470  1.00  0.00    -0.271 OA
BRANCH  24  27
HETATM   27  C   UNL     1      -1.463   6.950 -29.547  1.00  0.00     0.041 C 
HETATM   28  C   UNL     1      -0.239   6.972 -28.842  1.00  0.00    -0.029 C 
HETATM   29  C   UNL     1       0.652   5.761 -28.711  1.00  0.00     0.051 C 
HETATM   30  C   UNL     1       0.153   8.164 -28.175  1.00  0.00    -0.054 C 
HETATM   31  C   UNL     1       1.497   8.300 -27.505  1.00  0.00     0.049 C 
HETATM   32  C   UNL     1      -0.741   9.240 -28.084  1.00  0.00     0.007 C 
HETATM   33  C   UNL     1      -1.996   9.161 -28.667  1.00  0.00     0.003 C 
HETATM   34  C   UNL     1      -2.348   8.031 -29.402  1.00  0.00     0.030 C 
ENDBRANCH  24  27
ENDBRANCH  22  23
ENDBRANCH  19  22
ENDBRANCH   1  18
TORSDOF 10
ENDMDL
