MODEL 1
REMARK VINA RESULT:      -8.4      0.000      0.000
REMARK  3 active torsions:
REMARK  status: ('A' for Active; 'I' for Inactive)
REMARK    1  A    between atoms: C_9  and  C_10 
REMARK    2  A    between atoms: C_16  and  C_17 
REMARK       I    between atoms: C_17  and  N_18 
REMARK    3  A    between atoms: N_18  and  C_19 
ROOT
HETATM    1  C   UNL     1      -3.578   1.836 -32.342  1.00  0.00     0.070 C 
HETATM    2  C   UNL     1      -4.970   2.277 -31.971  1.00  0.00     0.037 A 
HETATM    3  N   UNL     1      -5.126   3.637 -31.720  1.00  0.00    -0.191 N 
HETATM    4  C   UNL     1      -6.262   4.164 -31.220  1.00  0.00     0.735 A 
HETATM    5  N   UNL     1      -7.353   3.360 -31.043  1.00  0.00    -0.091 N 
HETATM    6  N   UNL     1      -8.328   4.036 -30.410  1.00  0.00     0.012 NA
HETATM    7  N   UNL     1      -7.850   5.271 -30.287  1.00  0.00     0.033 NA
HETATM    8  N   UNL     1      -6.563   5.364 -30.783  1.00  0.00     0.030 NA
HETATM    9  C   UNL     1      -7.392   1.936 -31.343  1.00  0.00     0.216 A 
HETATM   10  C   UNL     1      -6.029   1.443 -31.819  1.00  0.00     0.063 A 
HETATM   11  H   UNL     1      -4.301   4.227 -31.786  1.00  0.00     0.184 HD
ENDROOT
BRANCH  10  12
HETATM   12  C   UNL     1      -5.975  -0.027 -32.024  1.00  0.00     0.256 C 
HETATM   13  N   UNL     1      -5.982  -0.392 -33.350  1.00  0.00    -0.323 N 
HETATM   14  H   UNL     1      -6.087   0.356 -34.025  1.00  0.00     0.169 HD
HETATM   15  O   UNL     1      -5.972  -0.753 -31.038  1.00  0.00    -0.267 OA
BRANCH  13  16
HETATM   16  C   UNL     1      -5.877  -1.693 -33.882  1.00  0.00     0.035 A 
HETATM   17  C   UNL     1      -6.959  -2.419 -34.384  1.00  0.00     0.029 A 
HETATM   18  C   UNL     1      -6.773  -3.714 -34.881  1.00  0.00     0.002 A 
HETATM   19  C   UNL     1      -5.508  -4.295 -34.872  1.00  0.00     0.000 A 
HETATM   20  C   UNL     1      -4.423  -3.581 -34.373  1.00  0.00     0.002 A 
HETATM   21  C   UNL     1      -4.606  -2.283 -33.885  1.00  0.00     0.029 A 
ENDBRANCH  13  16
ENDBRANCH  10  12
BRANCH   9  22
HETATM   22  C   UNL     1      -8.498   1.675 -32.358  1.00  0.00     0.064 A 
HETATM   23  N   UNL     1      -8.614   2.525 -33.416  1.00  0.00    -0.263 NA
HETATM   24  C   UNL     1      -9.621   2.296 -34.289  1.00  0.00     0.117 A 
HETATM   25  C   UNL     1     -10.525   1.255 -34.170  1.00  0.00     0.019 A 
HETATM   26  C   UNL     1     -10.396   0.394 -33.089  1.00  0.00     0.003 A 
HETATM   27  C   UNL     1      -9.373   0.603 -32.168  1.00  0.00     0.030 A 
ENDBRANCH   9  22
TORSDOF 3
ENDMDL
MODEL 2
REMARK VINA RESULT:      -8.2      1.728      3.922
REMARK  3 active torsions:
REMARK  status: ('A' for Active; 'I' for Inactive)
REMARK    1  A    between atoms: C_9  and  C_10 
REMARK    2  A    between atoms: C_16  and  C_17 
REMARK       I    between atoms: C_17  and  N_18 
REMARK    3  A    between atoms: N_18  and  C_19 
ROOT
HETATM    1  C   UNL     1     -10.427  -0.057 -32.872  1.00  0.00     0.070 C 
HETATM    2  C   UNL     1      -9.582   1.182 -32.724  1.00  0.00     0.037 A 
HETATM    3  N   UNL     1     -10.153   2.219 -31.991  1.00  0.00    -0.191 N 
HETATM    4  C   UNL     1      -9.600   3.446 -31.905  1.00  0.00     0.735 A 
HETATM    5  N   UNL     1      -8.376   3.671 -32.469  1.00  0.00    -0.091 N 
HETATM    6  N   UNL     1      -8.067   4.978 -32.397  1.00  0.00     0.012 NA
HETATM    7  N   UNL     1      -9.070   5.519 -31.713  1.00  0.00     0.033 NA
HETATM    8  N   UNL     1     -10.034   4.578 -31.403  1.00  0.00     0.030 NA
HETATM    9  C   UNL     1      -7.598   2.673 -33.190  1.00  0.00     0.216 A 
HETATM   10  C   UNL     1      -8.362   1.357 -33.292  1.00  0.00     0.063 A 
HETATM   11  H   UNL     1     -11.092   2.078 -31.627  1.00  0.00     0.184 HD
ENDROOT
BRANCH  10  12
HETATM   12  C   UNL     1      -7.670   0.339 -34.122  1.00  0.00     0.256 C 
HETATM   13  N   UNL     1      -7.021  -0.619 -33.379  1.00  0.00    -0.323 N 
HETATM   14  H   UNL     1      -7.027  -0.493 -32.374  1.00  0.00     0.169 HD
HETATM   15  O   UNL     1      -7.702   0.461 -35.340  1.00  0.00    -0.267 OA
BRANCH  13  16
HETATM   16  C   UNL     1      -6.327  -1.750 -33.855  1.00  0.00     0.035 A 
HETATM   17  C   UNL     1      -4.937  -1.875 -33.839  1.00  0.00     0.029 A 
HETATM   18  C   UNL     1      -4.324  -3.027 -34.346  1.00  0.00     0.002 A 
HETATM   19  C   UNL     1      -5.095  -4.056 -34.881  1.00  0.00     0.000 A 
HETATM   20  C   UNL     1      -6.481  -3.940 -34.903  1.00  0.00     0.002 A 
HETATM   21  C   UNL     1      -7.095  -2.794 -34.387  1.00  0.00     0.029 A 
ENDBRANCH  13  16
ENDBRANCH  10  12
BRANCH   9  22
HETATM   22  C   UNL     1      -6.245   2.515 -32.507  1.00  0.00     0.064 A 
HETATM   23  N   UNL     1      -6.198   1.855 -31.317  1.00  0.00    -0.263 NA
HETATM   24  C   UNL     1      -4.993   1.751 -30.712  1.00  0.00     0.117 A 
HETATM   25  C   UNL     1      -3.820   2.269 -31.231  1.00  0.00     0.019 A 
HETATM   26  C   UNL     1      -3.880   2.939 -32.446  1.00  0.00     0.003 A 
HETATM   27  C   UNL     1      -5.104   3.067 -33.095  1.00  0.00     0.030 A 
ENDBRANCH   9  22
TORSDOF 3
ENDMDL
MODEL 3
REMARK VINA RESULT:      -8.2      1.494      4.015
REMARK  3 active torsions:
REMARK  status: ('A' for Active; 'I' for Inactive)
REMARK    1  A    between atoms: C_9  and  C_10 
REMARK    2  A    between atoms: C_16  and  C_17 
REMARK       I    between atoms: C_17  and  N_18 
REMARK    3  A    between atoms: N_18  and  C_19 
ROOT
HETATM    1  C   UNL     1     -10.529   0.064 -33.055  1.00  0.00     0.070 C 
HETATM    2  C   UNL     1      -9.649   1.278 -33.215  1.00  0.00     0.037 A 
HETATM    3  N   UNL     1     -10.311   2.472 -33.485  1.00  0.00    -0.191 N 
HETATM    4  C   UNL     1      -9.666   3.609 -33.815  1.00  0.00     0.735 A 
HETATM    5  N   UNL     1      -8.300   3.636 -33.789  1.00  0.00    -0.091 N 
HETATM    6  N   UNL     1      -7.852   4.804 -34.282  1.00  0.00     0.012 NA
HETATM    7  N   UNL     1      -8.953   5.509 -34.522  1.00  0.00     0.033 NA
HETATM    8  N   UNL     1     -10.091   4.775 -34.240  1.00  0.00     0.030 NA
HETATM    9  C   UNL     1      -7.454   2.504 -33.438  1.00  0.00     0.216 A 
HETATM   10  C   UNL     1      -8.294   1.260 -33.168  1.00  0.00     0.063 A 
HETATM   11  H   UNL     1     -11.324   2.441 -33.572  1.00  0.00     0.184 HD
ENDROOT
BRANCH  10  12
HETATM   12  C   UNL     1      -7.479   0.043 -32.924  1.00  0.00     0.256 C 
HETATM   13  N   UNL     1      -7.158  -0.637 -34.076  1.00  0.00    -0.323 N 
HETATM   14  H   UNL     1      -7.557  -0.282 -34.937  1.00  0.00     0.169 HD
HETATM   15  O   UNL     1      -7.211  -0.258 -31.768  1.00  0.00    -0.267 OA
BRANCH  13  16
HETATM   16  C   UNL     1      -6.351  -1.786 -34.198  1.00  0.00     0.035 A 
HETATM   17  C   UNL     1      -4.984  -1.811 -33.918  1.00  0.00     0.029 A 
HETATM   18  C   UNL     1      -4.250  -2.992 -34.080  1.00  0.00     0.002 A 
HETATM   19  C   UNL     1      -4.875  -4.152 -34.531  1.00  0.00     0.000 A 
HETATM   20  C   UNL     1      -6.237  -4.136 -34.813  1.00  0.00     0.002 A 
HETATM   21  C   UNL     1      -6.973  -2.960 -34.643  1.00  0.00     0.029 A 
ENDBRANCH  13  16
ENDBRANCH  10  12
BRANCH   9  22
HETATM   22  C   UNL     1      -6.579   2.892 -32.251  1.00  0.00     0.064 A 
HETATM   23  N   UNL     1      -7.193   3.231 -31.084  1.00  0.00    -0.263 NA
HETATM   24  C   UNL     1      -6.402   3.602 -30.052  1.00  0.00     0.117 A 
HETATM   25  C   UNL     1      -5.020   3.649 -30.115  1.00  0.00     0.019 A 
HETATM   26  C   UNL     1      -4.406   3.299 -31.310  1.00  0.00     0.003 A 
HETATM   27  C   UNL     1      -5.190   2.916 -32.394  1.00  0.00     0.030 A 
ENDBRANCH   9  22
TORSDOF 3
ENDMDL
MODEL 4
REMARK VINA RESULT:      -7.9      2.458      4.053
REMARK  3 active torsions:
REMARK  status: ('A' for Active; 'I' for Inactive)
REMARK    1  A    between atoms: C_9  and  C_10 
REMARK    2  A    between atoms: C_16  and  C_17 
REMARK       I    between atoms: C_17  and  N_18 
REMARK    3  A    between atoms: N_18  and  C_19 
ROOT
HETATM    1  C   UNL     1      -5.820   1.114 -29.766  1.00  0.00     0.070 C 
HETATM    2  C   UNL     1      -5.649   2.512 -30.303  1.00  0.00     0.037 A 
HETATM    3  N   UNL     1      -5.441   3.504 -29.350  1.00  0.00    -0.191 N 
HETATM    4  C   UNL     1      -5.433   4.818 -29.650  1.00  0.00     0.735 A 
HETATM    5  N   UNL     1      -5.529   5.208 -30.957  1.00  0.00    -0.091 N 
HETATM    6  N   UNL     1      -5.645   6.546 -31.033  1.00  0.00     0.012 NA
HETATM    7  N   UNL     1      -5.531   6.962 -29.775  1.00  0.00     0.033 NA
HETATM    8  N   UNL     1      -5.403   5.896 -28.903  1.00  0.00     0.030 NA
HETATM    9  C   UNL     1      -5.658   4.299 -32.087  1.00  0.00     0.216 A 
HETATM   10  C   UNL     1      -5.739   2.851 -31.614  1.00  0.00     0.063 A 
HETATM   11  H   UNL     1      -5.437   3.226 -28.372  1.00  0.00     0.184 HD
ENDROOT
BRANCH  10  12
HETATM   12  C   UNL     1      -5.993   1.887 -32.714  1.00  0.00     0.256 C 
HETATM   13  N   UNL     1      -5.440   0.648 -32.491  1.00  0.00    -0.323 N 
HETATM   14  H   UNL     1      -4.877   0.548 -31.654  1.00  0.00     0.169 HD
HETATM   15  O   UNL     1      -6.609   2.276 -33.699  1.00  0.00    -0.267 OA
BRANCH  13  16
HETATM   16  C   UNL     1      -5.548  -0.499 -33.303  1.00  0.00     0.035 A 
HETATM   17  C   UNL     1      -6.751  -0.965 -33.836  1.00  0.00     0.029 A 
HETATM   18  C   UNL     1      -6.775  -2.123 -34.622  1.00  0.00     0.002 A 
HETATM   19  C   UNL     1      -5.600  -2.828 -34.871  1.00  0.00     0.000 A 
HETATM   20  C   UNL     1      -4.396  -2.373 -34.342  1.00  0.00     0.002 A 
HETATM   21  C   UNL     1      -4.370  -1.210 -33.566  1.00  0.00     0.029 A 
ENDBRANCH  13  16
ENDBRANCH  10  12
BRANCH   9  22
HETATM   22  C   UNL     1      -4.498   4.539 -33.047  1.00  0.00     0.064 A 
HETATM   23  N   UNL     1      -4.778   5.052 -34.277  1.00  0.00    -0.263 NA
HETATM   24  C   UNL     1      -3.741   5.229 -35.127  1.00  0.00     0.117 A 
HETATM   25  C   UNL     1      -2.427   4.926 -34.816  1.00  0.00     0.019 A 
HETATM   26  C   UNL     1      -2.154   4.405 -33.558  1.00  0.00     0.003 A 
HETATM   27  C   UNL     1      -3.198   4.206 -32.660  1.00  0.00     0.030 A 
ENDBRANCH   9  22
TORSDOF 3
ENDMDL
MODEL 5
REMARK VINA RESULT:      -7.9     15.693     18.223
REMARK  3 active torsions:
REMARK  status: ('A' for Active; 'I' for Inactive)
REMARK    1  A    between atoms: C_9  and  C_10 
REMARK    2  A    between atoms: C_16  and  C_17 
REMARK       I    between atoms: C_17  and  N_18 
REMARK    3  A    between atoms: N_18  and  C_19 
ROOT
HETATM    1  C   UNL     1      -1.725 -14.380 -35.833  1.00  0.00     0.070 C 
HETATM    2  C   UNL     1      -0.993 -14.573 -37.137  1.00  0.00     0.037 A 
HETATM    3  N   UNL     1       0.157 -15.354 -37.074  1.00  0.00    -0.191 N 
HETATM    4  C   UNL     1       1.010 -15.487 -38.110  1.00  0.00     0.735 A 
HETATM    5  N   UNL     1       0.696 -14.923 -39.314  1.00  0.00    -0.091 N 
HETATM    6  N   UNL     1       1.728 -15.046 -40.166  1.00  0.00     0.012 NA
HETATM    7  N   UNL     1       2.627 -15.762 -39.498  1.00  0.00     0.033 NA
HETATM    8  N   UNL     1       2.195 -16.040 -38.214  1.00  0.00     0.030 NA
HETATM    9  C   UNL     1      -0.512 -14.153 -39.579  1.00  0.00     0.216 A 
HETATM   10  C   UNL     1      -1.351 -14.002 -38.314  1.00  0.00     0.063 A 
HETATM   11  H   UNL     1       0.430 -15.720 -36.165  1.00  0.00     0.184 HD
ENDROOT
BRANCH  10  12
HETATM   12  C   UNL     1      -2.533 -13.123 -38.495  1.00  0.00     0.256 C 
HETATM   13  N   UNL     1      -3.667 -13.807 -38.869  1.00  0.00    -0.323 N 
HETATM   14  H   UNL     1      -3.561 -14.800 -39.040  1.00  0.00     0.169 HD
HETATM   15  O   UNL     1      -2.392 -11.916 -38.344  1.00  0.00    -0.267 OA
BRANCH  13  16
HETATM   16  C   UNL     1      -4.962 -13.283 -39.060  1.00  0.00     0.035 A 
HETATM   17  C   UNL     1      -5.930 -13.214 -38.057  1.00  0.00     0.029 A 
HETATM   18  C   UNL     1      -7.199 -12.693 -38.333  1.00  0.00     0.002 A 
HETATM   19  C   UNL     1      -7.511 -12.244 -39.614  1.00  0.00     0.000 A 
HETATM   20  C   UNL     1      -6.553 -12.309 -40.621  1.00  0.00     0.002 A 
HETATM   21  C   UNL     1      -5.282 -12.821 -40.343  1.00  0.00     0.029 A 
ENDBRANCH  13  16
ENDBRANCH  10  12
BRANCH   9  22
HETATM   22  C   UNL     1      -1.279 -14.816 -40.717  1.00  0.00     0.064 A 
HETATM   23  N   UNL     1      -2.108 -14.041 -41.471  1.00  0.00    -0.263 NA
HETATM   24  C   UNL     1      -2.804 -14.653 -42.456  1.00  0.00     0.117 A 
HETATM   25  C   UNL     1      -2.717 -16.004 -42.739  1.00  0.00     0.019 A 
HETATM   26  C   UNL     1      -1.867 -16.784 -41.965  1.00  0.00     0.003 A 
HETATM   27  C   UNL     1      -1.139 -16.188 -40.940  1.00  0.00     0.030 A 
ENDBRANCH   9  22
TORSDOF 3
ENDMDL
MODEL 6
REMARK VINA RESULT:      -7.7      2.463      5.608
REMARK  3 active torsions:
REMARK  status: ('A' for Active; 'I' for Inactive)
REMARK    1  A    between atoms: C_9  and  C_10 
REMARK    2  A    between atoms: C_16  and  C_17 
REMARK       I    between atoms: C_17  and  N_18 
REMARK    3  A    between atoms: N_18  and  C_19 
ROOT
HETATM    1  C   UNL     1      -8.492   4.866 -30.347  1.00  0.00     0.070 C 
HETATM    2  C   UNL     1      -7.695   4.492 -31.570  1.00  0.00     0.037 A 
HETATM    3  N   UNL     1      -6.569   5.271 -31.819  1.00  0.00    -0.191 N 
HETATM    4  C   UNL     1      -5.845   5.173 -32.952  1.00  0.00     0.735 A 
HETATM    5  N   UNL     1      -6.154   4.201 -33.863  1.00  0.00    -0.091 N 
HETATM    6  N   UNL     1      -5.416   4.359 -34.975  1.00  0.00     0.012 NA
HETATM    7  N   UNL     1      -4.603   5.373 -34.694  1.00  0.00     0.033 NA
HETATM    8  N   UNL     1      -4.862   5.892 -33.440  1.00  0.00     0.030 NA
HETATM    9  C   UNL     1      -7.241   3.243 -33.717  1.00  0.00     0.216 A 
HETATM   10  C   UNL     1      -8.034   3.509 -32.441  1.00  0.00     0.063 A 
HETATM   11  H   UNL     1      -6.374   6.037 -31.179  1.00  0.00     0.184 HD
ENDROOT
BRANCH  10  12
HETATM   12  C   UNL     1      -9.229   2.639 -32.300  1.00  0.00     0.256 C 
HETATM   13  N   UNL     1     -10.266   3.002 -33.127  1.00  0.00    -0.323 N 
HETATM   14  H   UNL     1     -10.133   3.841 -33.679  1.00  0.00     0.169 HD
HETATM   15  O   UNL     1      -9.202   1.741 -31.468  1.00  0.00    -0.267 OA
BRANCH  13  16
HETATM   16  C   UNL     1     -11.508   2.352 -33.283  1.00  0.00     0.035 A 
HETATM   17  C   UNL     1     -11.658   1.086 -33.850  1.00  0.00     0.029 A 
HETATM   18  C   UNL     1     -12.930   0.516 -33.983  1.00  0.00     0.002 A 
HETATM   19  C   UNL     1     -14.059   1.211 -33.558  1.00  0.00     0.000 A 
HETATM   20  C   UNL     1     -13.919   2.475 -32.992  1.00  0.00     0.002 A 
HETATM   21  C   UNL     1     -12.649   3.040 -32.850  1.00  0.00     0.029 A 
ENDBRANCH  13  16
ENDBRANCH  10  12
BRANCH   9  22
HETATM   22  C   UNL     1      -6.665   1.833 -33.767  1.00  0.00     0.064 A 
HETATM   23  N   UNL     1      -5.704   1.498 -32.861  1.00  0.00    -0.263 NA
HETATM   24  C   UNL     1      -5.183   0.252 -32.941  1.00  0.00     0.117 A 
HETATM   25  C   UNL     1      -5.571  -0.689 -33.878  1.00  0.00     0.019 A 
HETATM   26  C   UNL     1      -6.551  -0.337 -34.795  1.00  0.00     0.003 A 
HETATM   27  C   UNL     1      -7.107   0.938 -34.745  1.00  0.00     0.030 A 
ENDBRANCH   9  22
TORSDOF 3
ENDMDL
MODEL 7
REMARK VINA RESULT:      -7.6      2.823      6.205
REMARK  3 active torsions:
REMARK  status: ('A' for Active; 'I' for Inactive)
REMARK    1  A    between atoms: C_9  and  C_10 
REMARK    2  A    between atoms: C_16  and  C_17 
REMARK       I    between atoms: C_17  and  N_18 
REMARK    3  A    between atoms: N_18  and  C_19 
ROOT
HETATM    1  C   UNL     1      -2.810  -0.013 -31.208  1.00  0.00     0.070 C 
HETATM    2  C   UNL     1      -4.033   0.245 -32.051  1.00  0.00     0.037 A 
HETATM    3  N   UNL     1      -4.690  -0.887 -32.524  1.00  0.00    -0.191 N 
HETATM    4  C   UNL     1      -5.697  -0.829 -33.419  1.00  0.00     0.735 A 
HETATM    5  N   UNL     1      -6.175   0.389 -33.812  1.00  0.00    -0.091 N 
HETATM    6  N   UNL     1      -7.070   0.236 -34.804  1.00  0.00     0.012 NA
HETATM    7  N   UNL     1      -7.191  -1.081 -34.942  1.00  0.00     0.033 NA
HETATM    8  N   UNL     1      -6.338  -1.757 -34.089  1.00  0.00     0.030 NA
HETATM    9  C   UNL     1      -5.666   1.671 -33.345  1.00  0.00     0.216 A 
HETATM   10  C   UNL     1      -4.480   1.476 -32.406  1.00  0.00     0.063 A 
HETATM   11  H   UNL     1      -4.297  -1.795 -32.287  1.00  0.00     0.184 HD
ENDROOT
BRANCH  10  12
HETATM   12  C   UNL     1      -3.841   2.751 -31.994  1.00  0.00     0.256 C 
HETATM   13  N   UNL     1      -2.961   3.246 -32.928  1.00  0.00    -0.323 N 
HETATM   14  H   UNL     1      -2.797   2.669 -33.745  1.00  0.00     0.169 HD
HETATM   15  O   UNL     1      -4.111   3.208 -30.890  1.00  0.00    -0.267 OA
BRANCH  13  16
HETATM   16  C   UNL     1      -2.243   4.458 -32.873  1.00  0.00     0.035 A 
HETATM   17  C   UNL     1      -1.418   4.827 -31.810  1.00  0.00     0.029 A 
HETATM   18  C   UNL     1      -0.751   6.057 -31.826  1.00  0.00     0.002 A 
HETATM   19  C   UNL     1      -0.911   6.930 -32.899  1.00  0.00     0.000 A 
HETATM   20  C   UNL     1      -1.732   6.571 -33.964  1.00  0.00     0.002 A 
HETATM   21  C   UNL     1      -2.391   5.338 -33.953  1.00  0.00     0.029 A 
ENDBRANCH  13  16
ENDBRANCH  10  12
BRANCH   9  22
HETATM   22  C   UNL     1      -6.806   2.448 -32.698  1.00  0.00     0.064 A 
HETATM   23  N   UNL     1      -7.161   3.644 -33.245  1.00  0.00    -0.263 NA
HETATM   24  C   UNL     1      -8.154   4.333 -32.638  1.00  0.00     0.117 A 
HETATM   25  C   UNL     1      -8.822   3.894 -31.510  1.00  0.00     0.019 A 
HETATM   26  C   UNL     1      -8.453   2.673 -30.962  1.00  0.00     0.003 A 
HETATM   27  C   UNL     1      -7.432   1.938 -31.558  1.00  0.00     0.030 A 
ENDBRANCH   9  22
TORSDOF 3
ENDMDL
MODEL 8
REMARK VINA RESULT:      -7.4      2.223      4.579
REMARK  3 active torsions:
REMARK  status: ('A' for Active; 'I' for Inactive)
REMARK    1  A    between atoms: C_9  and  C_10 
REMARK    2  A    between atoms: C_16  and  C_17 
REMARK       I    between atoms: C_17  and  N_18 
REMARK    3  A    between atoms: N_18  and  C_19 
ROOT
HETATM    1  C   UNL     1     -11.807   0.676 -33.786  1.00  0.00     0.070 C 
HETATM    2  C   UNL     1     -11.006   1.946 -33.917  1.00  0.00     0.037 A 
HETATM    3  N   UNL     1     -11.721   3.072 -34.315  1.00  0.00    -0.191 N 
HETATM    4  C   UNL     1     -11.129   4.240 -34.635  1.00  0.00     0.735 A 
HETATM    5  N   UNL     1      -9.779   4.375 -34.469  1.00  0.00    -0.091 N 
HETATM    6  N   UNL     1      -9.366   5.551 -34.973  1.00  0.00     0.012 NA
HETATM    7  N   UNL     1     -10.484   6.157 -35.362  1.00  0.00     0.033 NA
HETATM    8  N   UNL     1     -11.589   5.350 -35.162  1.00  0.00     0.030 NA
HETATM    9  C   UNL     1      -8.895   3.329 -33.974  1.00  0.00     0.216 A 
HETATM   10  C   UNL     1      -9.666   2.036 -33.728  1.00  0.00     0.063 A 
HETATM   11  H   UNL     1     -12.714   2.959 -34.505  1.00  0.00     0.184 HD
ENDROOT
BRANCH  10  12
HETATM   12  C   UNL     1      -8.795   0.898 -33.338  1.00  0.00     0.256 C 
HETATM   13  N   UNL     1      -7.893   0.545 -34.315  1.00  0.00    -0.323 N 
HETATM   14  H   UNL     1      -7.962   1.040 -35.196  1.00  0.00     0.169 HD
HETATM   15  O   UNL     1      -8.977   0.371 -32.248  1.00  0.00    -0.267 OA
BRANCH  13  16
HETATM   16  C   UNL     1      -6.891  -0.444 -34.240  1.00  0.00     0.035 A 
HETATM   17  C   UNL     1      -7.064  -1.762 -34.666  1.00  0.00     0.029 A 
HETATM   18  C   UNL     1      -6.023  -2.689 -34.542  1.00  0.00     0.002 A 
HETATM   19  C   UNL     1      -4.805  -2.307 -33.984  1.00  0.00     0.000 A 
HETATM   20  C   UNL     1      -4.623  -0.996 -33.556  1.00  0.00     0.002 A 
HETATM   21  C   UNL     1      -5.660  -0.067 -33.688  1.00  0.00     0.029 A 
ENDBRANCH  13  16
ENDBRANCH  10  12
BRANCH   9  22
HETATM   22  C   UNL     1      -8.183   3.835 -32.725  1.00  0.00     0.064 A 
HETATM   23  N   UNL     1      -8.940   4.165 -31.642  1.00  0.00    -0.263 NA
HETATM   24  C   UNL     1      -8.294   4.641 -30.554  1.00  0.00     0.117 A 
HETATM   25  C   UNL     1      -6.922   4.805 -30.481  1.00  0.00     0.019 A 
HETATM   26  C   UNL     1      -6.160   4.463 -31.590  1.00  0.00     0.003 A 
HETATM   27  C   UNL     1      -6.793   3.973 -32.728  1.00  0.00     0.030 A 
ENDBRANCH   9  22
TORSDOF 3
ENDMDL
MODEL 9
REMARK VINA RESULT:      -7.3      2.261      5.337
REMARK  3 active torsions:
REMARK  status: ('A' for Active; 'I' for Inactive)
REMARK    1  A    between atoms: C_9  and  C_10 
REMARK    2  A    between atoms: C_16  and  C_17 
REMARK       I    between atoms: C_17  and  N_18 
REMARK    3  A    between atoms: N_18  and  C_19 
ROOT
HETATM    1  C   UNL     1      -6.118   5.058 -29.185  1.00  0.00     0.070 C 
HETATM    2  C   UNL     1      -5.230   4.517 -30.276  1.00  0.00     0.037 A 
HETATM    3  N   UNL     1      -3.986   5.129 -30.400  1.00  0.00    -0.191 N 
HETATM    4  C   UNL     1      -3.143   4.876 -31.422  1.00  0.00     0.735 A 
HETATM    5  N   UNL     1      -3.463   3.905 -32.330  1.00  0.00    -0.091 N 
HETATM    6  N   UNL     1      -2.574   3.905 -33.338  1.00  0.00     0.012 NA
HETATM    7  N   UNL     1      -1.674   4.818 -32.989  1.00  0.00     0.033 NA
HETATM    8  N   UNL     1      -2.018   5.434 -31.800  1.00  0.00     0.030 NA
HETATM    9  C   UNL     1      -4.679   3.105 -32.295  1.00  0.00     0.216 A 
HETATM   10  C   UNL     1      -5.585   3.541 -31.148  1.00  0.00     0.063 A 
HETATM   11  H   UNL     1      -3.772   5.897 -29.769  1.00  0.00     0.184 HD
ENDROOT
BRANCH  10  12
HETATM   12  C   UNL     1      -6.895   2.842 -31.137  1.00  0.00     0.256 C 
HETATM   13  N   UNL     1      -7.476   2.756 -32.380  1.00  0.00    -0.323 N 
HETATM   14  H   UNL     1      -6.994   3.224 -33.139  1.00  0.00     0.169 HD
HETATM   15  O   UNL     1      -7.343   2.460 -30.063  1.00  0.00    -0.267 OA
BRANCH  13  16
HETATM   16  C   UNL     1      -8.680   2.107 -32.722  1.00  0.00     0.035 A 
HETATM   17  C   UNL     1      -8.863   0.724 -32.663  1.00  0.00     0.029 A 
HETATM   18  C   UNL     1     -10.087   0.156 -33.035  1.00  0.00     0.002 A 
HETATM   19  C   UNL     1     -11.132   0.963 -33.477  1.00  0.00     0.000 A 
HETATM   20  C   UNL     1     -10.959   2.343 -33.540  1.00  0.00     0.002 A 
HETATM   21  C   UNL     1      -9.740   2.912 -33.159  1.00  0.00     0.029 A 
ENDBRANCH  13  16
ENDBRANCH  10  12
BRANCH   9  22
HETATM   22  C   UNL     1      -4.299   1.632 -32.216  1.00  0.00     0.064 A 
HETATM   23  N   UNL     1      -4.925   0.760 -33.054  1.00  0.00    -0.263 NA
HETATM   24  C   UNL     1      -4.597  -0.548 -32.949  1.00  0.00     0.117 A 
HETATM   25  C   UNL     1      -3.668  -1.041 -32.050  1.00  0.00     0.019 A 
HETATM   26  C   UNL     1      -3.034  -0.143 -31.202  1.00  0.00     0.003 A 
HETATM   27  C   UNL     1      -3.350   1.210 -31.281  1.00  0.00     0.030 A 
ENDBRANCH   9  22
TORSDOF 3
ENDMDL
MODEL 10
REMARK VINA RESULT:      -7.2      2.098      6.194
REMARK  3 active torsions:
REMARK  status: ('A' for Active; 'I' for Inactive)
REMARK    1  A    between atoms: C_9  and  C_10 
REMARK    2  A    between atoms: C_16  and  C_17 
REMARK       I    between atoms: C_17  and  N_18 
REMARK    3  A    between atoms: N_18  and  C_19 
ROOT
HETATM    1  C   UNL     1      -3.195   0.415 -30.965  1.00  0.00     0.070 C 
HETATM    2  C   UNL     1      -4.164  -0.016 -32.036  1.00  0.00     0.037 A 
HETATM    3  N   UNL     1      -4.080  -1.349 -32.426  1.00  0.00    -0.191 N 
HETATM    4  C   UNL     1      -4.758  -1.849 -33.479  1.00  0.00     0.735 A 
HETATM    5  N   UNL     1      -5.650  -1.053 -34.141  1.00  0.00    -0.091 N 
HETATM    6  N   UNL     1      -6.112  -1.685 -35.234  1.00  0.00     0.012 NA
HETATM    7  N   UNL     1      -5.561  -2.894 -35.177  1.00  0.00     0.033 NA
HETATM    8  N   UNL     1      -4.712  -3.008 -34.091  1.00  0.00     0.030 NA
HETATM    9  C   UNL     1      -5.930   0.337 -33.806  1.00  0.00     0.216 A 
HETATM   10  C   UNL     1      -5.044   0.809 -32.658  1.00  0.00     0.063 A 
HETATM   11  H   UNL     1      -3.371  -1.928 -31.982  1.00  0.00     0.184 HD
ENDROOT
BRANCH  10  12
HETATM   12  C   UNL     1      -5.198   2.254 -32.353  1.00  0.00     0.256 C 
HETATM   13  N   UNL     1      -6.067   2.501 -31.315  1.00  0.00    -0.323 N 
HETATM   14  H   UNL     1      -6.546   1.698 -30.925  1.00  0.00     0.169 HD
HETATM   15  O   UNL     1      -4.598   3.064 -33.048  1.00  0.00    -0.267 OA
BRANCH  13  16
HETATM   16  C   UNL     1      -6.385   3.748 -30.741  1.00  0.00     0.035 A 
HETATM   17  C   UNL     1      -7.431   4.563 -31.176  1.00  0.00     0.029 A 
HETATM   18  C   UNL     1      -7.672   5.797 -30.561  1.00  0.00     0.002 A 
HETATM   19  C   UNL     1      -6.862   6.229 -29.513  1.00  0.00     0.000 A 
HETATM   20  C   UNL     1      -5.816   5.425 -29.073  1.00  0.00     0.002 A 
HETATM   21  C   UNL     1      -5.582   4.188 -29.680  1.00  0.00     0.029 A 
ENDBRANCH  13  16
ENDBRANCH  10  12
BRANCH   9  22
HETATM   22  C   UNL     1      -7.416   0.481 -33.499  1.00  0.00     0.064 A 
HETATM   23  N   UNL     1      -7.858   0.101 -32.269  1.00  0.00    -0.263 NA
HETATM   24  C   UNL     1      -9.184   0.207 -32.025  1.00  0.00     0.117 A 
HETATM   25  C   UNL     1     -10.103   0.679 -32.945  1.00  0.00     0.019 A 
HETATM   26  C   UNL     1      -9.641   1.065 -34.196  1.00  0.00     0.003 A 
HETATM   27  C   UNL     1      -8.282   0.965 -34.482  1.00  0.00     0.030 A 
ENDBRANCH   9  22
TORSDOF 3
ENDMDL
