MODEL 1
REMARK VINA RESULT:      -9.5      0.000      0.000
REMARK  8 active torsions:
REMARK  status: ('A' for Active; 'I' for Inactive)
REMARK    1  A    between atoms: N_2  and  C_4 
REMARK    2  A    between atoms: N_2  and  C_10 
REMARK    3  A    between atoms: C_10  and  C_11 
REMARK    4  A    between atoms: C_12  and  N_13 
REMARK    5  A    between atoms: N_13  and  C_14 
REMARK    6  A    between atoms: C_14  and  C_15 
REMARK       I    between atoms: C_15  and  N_16 
REMARK    7  A    between atoms: N_16  and  N_17 
REMARK       I    between atoms: N_17  and  C_18 
REMARK    8  A    between atoms: C_18  and  C_19 
ROOT
HETATM    1  N   UNL     1      -2.160   3.626 -31.175  1.00  0.00    -0.284 NA
HETATM    2  H   UNL     1      -2.096   3.986 -30.212  1.00  0.00     0.128 HD
ENDROOT
BRANCH   1   3
HETATM    3  C   UNL     1      -1.767   4.663 -32.050  1.00  0.00     0.016 A 
HETATM    4  C   UNL     1      -1.007   5.735 -31.526  1.00  0.00    -0.011 A 
HETATM    5  C   UNL     1      -0.677   6.829 -32.348  1.00  0.00     0.011 A 
HETATM    6  C   UNL     1      -1.090   6.868 -33.677  1.00  0.00     0.001 A 
HETATM    7  C   UNL     1      -1.848   5.825 -34.192  1.00  0.00     0.002 A 
HETATM    8  C   UNL     1      -2.195   4.739 -33.384  1.00  0.00     0.024 A 
BRANCH   4   9
HETATM    9  C   UNL     1      -0.553   5.762 -30.082  1.00  0.00     0.275 C 
BRANCH   9  10
HETATM   10  N   UNL     1      -1.140   6.883 -29.234  1.00  0.00    -0.067 N 
HETATM   11  C   UNL     1      -2.643   6.933 -29.394  1.00  0.00     0.270 C 
HETATM   12  H   UNL     1      -0.771   7.730 -29.705  1.00  0.00     0.280 HD
BRANCH  10  13
HETATM   13  C   UNL     1      -0.707   6.850 -27.765  1.00  0.00     0.188 C 
HETATM   14  C   UNL     1       0.818   6.936 -27.589  1.00  0.00     0.033 C 
HETATM   15  C   UNL     1       1.392   8.289 -28.004  1.00  0.00     0.002 C 
HETATM   16  C   UNL     1       0.708   9.437 -27.266  1.00  0.00     0.000 C 
HETATM   17  C   UNL     1      -0.813   9.374 -27.377  1.00  0.00     0.002 C 
HETATM   18  C   UNL     1      -1.347   8.002 -26.967  1.00  0.00     0.033 C 
ENDBRANCH  10  13
ENDBRANCH   9  10
ENDBRANCH   4   9
ENDBRANCH   1   3
BRANCH   1  19
HETATM   19  C   UNL     1      -3.545   3.102 -31.321  1.00  0.00     0.197 C 
BRANCH  19  20
HETATM   20  C   UNL     1      -3.478   1.623 -31.712  1.00  0.00     0.249 C 
HETATM   21  N   UNL     1      -4.252   1.276 -32.795  1.00  0.00    -0.266 N 
HETATM   22  H   UNL     1      -5.021   1.850 -33.149  1.00  0.00     0.190 HD
HETATM   23  O   UNL     1      -2.755   0.818 -31.120  1.00  0.00    -0.270 OA
BRANCH  21  24
HETATM   24  N   UNL     1      -4.309  -0.077 -33.161  1.00  0.00    -0.263 N 
HETATM   25  C   UNL     1      -5.390  -0.474 -33.927  1.00  0.00     0.270 C 
HETATM   26  O   UNL     1      -6.215   0.335 -34.344  1.00  0.00    -0.266 OA
HETATM   27  H   UNL     1      -3.787  -0.731 -32.578  1.00  0.00     0.190 HD
BRANCH  25  28
HETATM   28  C   UNL     1      -5.522  -1.932 -34.189  1.00  0.00     0.033 A 
HETATM   29  C   UNL     1      -4.403  -2.749 -33.988  1.00  0.00     0.017 A 
HETATM   30  C   UNL     1      -4.487  -4.123 -34.222  1.00  0.00     0.001 A 
HETATM   31  C   UNL     1      -5.690  -4.686 -34.646  1.00  0.00     0.000 A 
HETATM   32  C   UNL     1      -6.812  -3.881 -34.832  1.00  0.00     0.001 A 
HETATM   33  C   UNL     1      -6.734  -2.506 -34.602  1.00  0.00     0.017 A 
ENDBRANCH  25  28
ENDBRANCH  21  24
ENDBRANCH  19  20
ENDBRANCH   1  19
TORSDOF 8
ENDMDL
MODEL 2
REMARK VINA RESULT:      -9.1      0.740      1.658
REMARK  8 active torsions:
REMARK  status: ('A' for Active; 'I' for Inactive)
REMARK    1  A    between atoms: N_2  and  C_4 
REMARK    2  A    between atoms: N_2  and  C_10 
REMARK    3  A    between atoms: C_10  and  C_11 
REMARK    4  A    between atoms: C_12  and  N_13 
REMARK    5  A    between atoms: N_13  and  C_14 
REMARK    6  A    between atoms: C_14  and  C_15 
REMARK       I    between atoms: C_15  and  N_16 
REMARK    7  A    between atoms: N_16  and  N_17 
REMARK       I    between atoms: N_17  and  C_18 
REMARK    8  A    between atoms: C_18  and  C_19 
ROOT
HETATM    1  N   UNL     1      -2.821   3.834 -31.116  1.00  0.00    -0.284 NA
HETATM    2  H   UNL     1      -3.026   4.343 -30.244  1.00  0.00     0.128 HD
ENDROOT
BRANCH   1   3
HETATM    3  C   UNL     1      -2.212   4.741 -32.012  1.00  0.00     0.016 A 
HETATM    4  C   UNL     1      -1.863   6.027 -31.534  1.00  0.00    -0.011 A 
HETATM    5  C   UNL     1      -1.339   6.986 -32.422  1.00  0.00     0.011 A 
HETATM    6  C   UNL     1      -1.160   6.683 -33.769  1.00  0.00     0.001 A 
HETATM    7  C   UNL     1      -1.516   5.428 -34.245  1.00  0.00     0.002 A 
HETATM    8  C   UNL     1      -2.050   4.471 -33.378  1.00  0.00     0.024 A 
BRANCH   4   9
HETATM    9  C   UNL     1      -2.060   6.423 -30.087  1.00  0.00     0.275 C 
BRANCH   9  10
HETATM   10  N   UNL     1      -0.799   6.422 -29.233  1.00  0.00    -0.067 N 
HETATM   11  C   UNL     1       0.207   5.435 -29.778  1.00  0.00     0.270 C 
HETATM   12  H   UNL     1      -1.140   6.021 -28.338  1.00  0.00     0.280 HD
BRANCH  10  13
HETATM   13  C   UNL     1      -0.195   7.811 -29.005  1.00  0.00     0.188 C 
HETATM   14  C   UNL     1      -1.191   8.802 -28.380  1.00  0.00     0.033 C 
HETATM   15  C   UNL     1      -1.572   8.442 -26.946  1.00  0.00     0.002 C 
HETATM   16  C   UNL     1      -0.339   8.300 -26.058  1.00  0.00     0.000 C 
HETATM   17  C   UNL     1       0.701   7.355 -26.655  1.00  0.00     0.002 C 
HETATM   18  C   UNL     1       1.046   7.740 -28.093  1.00  0.00     0.033 C 
ENDBRANCH  10  13
ENDBRANCH   9  10
ENDBRANCH   4   9
ENDBRANCH   1   3
BRANCH   1  19
HETATM   19  C   UNL     1      -4.108   3.220 -31.540  1.00  0.00     0.197 C 
BRANCH  19  20
HETATM   20  C   UNL     1      -3.865   1.751 -31.894  1.00  0.00     0.249 C 
HETATM   21  N   UNL     1      -4.786   1.204 -32.757  1.00  0.00    -0.266 N 
HETATM   22  H   UNL     1      -5.706   1.614 -32.938  1.00  0.00     0.190 HD
HETATM   23  O   UNL     1      -2.894   1.123 -31.466  1.00  0.00    -0.270 OA
BRANCH  21  24
HETATM   24  N   UNL     1      -4.680  -0.161 -33.062  1.00  0.00    -0.263 N 
HETATM   25  C   UNL     1      -5.540  -0.658 -34.023  1.00  0.00     0.270 C 
HETATM   26  O   UNL     1      -6.303   0.077 -34.647  1.00  0.00    -0.266 OA
HETATM   27  H   UNL     1      -4.259  -0.757 -32.350  1.00  0.00     0.190 HD
BRANCH  25  28
HETATM   28  C   UNL     1      -5.523  -2.130 -34.238  1.00  0.00     0.033 A 
HETATM   29  C   UNL     1      -6.679  -2.744 -34.733  1.00  0.00     0.017 A 
HETATM   30  C   UNL     1      -6.702  -4.123 -34.950  1.00  0.00     0.001 A 
HETATM   31  C   UNL     1      -5.569  -4.891 -34.682  1.00  0.00     0.000 A 
HETATM   32  C   UNL     1      -4.410  -4.282 -34.205  1.00  0.00     0.001 A 
HETATM   33  C   UNL     1      -4.381  -2.904 -33.984  1.00  0.00     0.017 A 
ENDBRANCH  25  28
ENDBRANCH  21  24
ENDBRANCH  19  20
ENDBRANCH   1  19
TORSDOF 8
ENDMDL
MODEL 3
REMARK VINA RESULT:      -8.9      0.987      1.233
REMARK  8 active torsions:
REMARK  status: ('A' for Active; 'I' for Inactive)
REMARK    1  A    between atoms: N_2  and  C_4 
REMARK    2  A    between atoms: N_2  and  C_10 
REMARK    3  A    between atoms: C_10  and  C_11 
REMARK    4  A    between atoms: C_12  and  N_13 
REMARK    5  A    between atoms: N_13  and  C_14 
REMARK    6  A    between atoms: C_14  and  C_15 
REMARK       I    between atoms: C_15  and  N_16 
REMARK    7  A    between atoms: N_16  and  N_17 
REMARK       I    between atoms: N_17  and  C_18 
REMARK    8  A    between atoms: C_18  and  C_19 
ROOT
HETATM    1  N   UNL     1      -2.519   3.589 -31.353  1.00  0.00    -0.284 NA
HETATM    2  H   UNL     1      -2.015   3.620 -30.455  1.00  0.00     0.128 HD
ENDROOT
BRANCH   1   3
HETATM    3  C   UNL     1      -1.952   4.568 -32.199  1.00  0.00     0.016 A 
HETATM    4  C   UNL     1      -1.098   5.540 -31.626  1.00  0.00    -0.011 A 
HETATM    5  C   UNL     1      -0.590   6.583 -32.423  1.00  0.00     0.011 A 
HETATM    6  C   UNL     1      -0.918   6.670 -33.773  1.00  0.00     0.001 A 
HETATM    7  C   UNL     1      -1.767   5.726 -34.336  1.00  0.00     0.002 A 
HETATM    8  C   UNL     1      -2.290   4.693 -33.554  1.00  0.00     0.024 A 
BRANCH   4   9
HETATM    9  C   UNL     1      -0.729   5.515 -30.159  1.00  0.00     0.275 C 
BRANCH   9  10
HETATM   10  N   UNL     1      -1.223   6.700 -29.340  1.00  0.00    -0.067 N 
HETATM   11  C   UNL     1      -2.721   6.848 -29.479  1.00  0.00     0.270 C 
HETATM   12  H   UNL     1      -0.806   7.504 -29.845  1.00  0.00     0.280 HD
BRANCH  10  13
HETATM   13  C   UNL     1      -0.768   6.685 -27.878  1.00  0.00     0.188 C 
HETATM   14  C   UNL     1       0.754   6.843 -27.723  1.00  0.00     0.033 C 
HETATM   15  C   UNL     1       1.257   8.222 -28.143  1.00  0.00     0.002 C 
HETATM   16  C   UNL     1       0.531   9.336 -27.393  1.00  0.00     0.000 C 
HETATM   17  C   UNL     1      -0.987   9.201 -27.483  1.00  0.00     0.002 C 
HETATM   18  C   UNL     1      -1.450   7.805 -27.067  1.00  0.00     0.033 C 
ENDBRANCH  10  13
ENDBRANCH   9  10
ENDBRANCH   4   9
ENDBRANCH   1   3
BRANCH   1  19
HETATM   19  C   UNL     1      -3.961   3.735 -31.015  1.00  0.00     0.197 C 
BRANCH  19  20
HETATM   20  C   UNL     1      -4.740   2.584 -31.655  1.00  0.00     0.249 C 
HETATM   21  N   UNL     1      -4.381   1.330 -31.218  1.00  0.00    -0.266 N 
HETATM   22  H   UNL     1      -3.501   1.128 -30.737  1.00  0.00     0.190 HD
HETATM   23  O   UNL     1      -5.646   2.775 -32.469  1.00  0.00    -0.270 OA
BRANCH  21  24
HETATM   24  N   UNL     1      -4.991   0.219 -31.821  1.00  0.00    -0.263 N 
HETATM   25  C   UNL     1      -4.253  -0.463 -32.771  1.00  0.00     0.270 C 
HETATM   26  O   UNL     1      -3.085  -0.167 -33.014  1.00  0.00    -0.266 OA
HETATM   27  H   UNL     1      -6.009   0.190 -31.801  1.00  0.00     0.190 HD
BRANCH  25  28
HETATM   28  C   UNL     1      -4.954  -1.547 -33.508  1.00  0.00     0.033 A 
HETATM   29  C   UNL     1      -4.233  -2.700 -33.842  1.00  0.00     0.017 A 
HETATM   30  C   UNL     1      -4.857  -3.741 -34.533  1.00  0.00     0.001 A 
HETATM   31  C   UNL     1      -6.202  -3.640 -34.882  1.00  0.00     0.000 A 
HETATM   32  C   UNL     1      -6.930  -2.502 -34.538  1.00  0.00     0.001 A 
HETATM   33  C   UNL     1      -6.312  -1.456 -33.849  1.00  0.00     0.017 A 
ENDBRANCH  25  28
ENDBRANCH  21  24
ENDBRANCH  19  20
ENDBRANCH   1  19
TORSDOF 8
ENDMDL
MODEL 4
REMARK VINA RESULT:      -8.5      2.642      4.041
REMARK  8 active torsions:
REMARK  status: ('A' for Active; 'I' for Inactive)
REMARK    1  A    between atoms: N_2  and  C_4 
REMARK    2  A    between atoms: N_2  and  C_10 
REMARK    3  A    between atoms: C_10  and  C_11 
REMARK    4  A    between atoms: C_12  and  N_13 
REMARK    5  A    between atoms: N_13  and  C_14 
REMARK    6  A    between atoms: C_14  and  C_15 
REMARK       I    between atoms: C_15  and  N_16 
REMARK    7  A    between atoms: N_16  and  N_17 
REMARK       I    between atoms: N_17  and  C_18 
REMARK    8  A    between atoms: C_18  and  C_19 
ROOT
HETATM    1  N   UNL     1      -5.100   2.947 -30.713  1.00  0.00    -0.284 NA
HETATM    2  H   UNL     1      -5.706   2.157 -30.449  1.00  0.00     0.128 HD
ENDROOT
BRANCH   1   3
HETATM    3  C   UNL     1      -5.733   3.643 -31.766  1.00  0.00     0.016 A 
HETATM    4  C   UNL     1      -5.474   5.027 -31.909  1.00  0.00    -0.011 A 
HETATM    5  C   UNL     1      -6.158   5.770 -32.890  1.00  0.00     0.011 A 
HETATM    6  C   UNL     1      -7.088   5.158 -33.724  1.00  0.00     0.001 A 
HETATM    7  C   UNL     1      -7.356   3.803 -33.578  1.00  0.00     0.002 A 
HETATM    8  C   UNL     1      -6.696   3.056 -32.599  1.00  0.00     0.024 A 
BRANCH   4   9
HETATM    9  C   UNL     1      -4.494   5.754 -31.014  1.00  0.00     0.275 C 
BRANCH   9  10
HETATM   10  N   UNL     1      -3.616   6.786 -31.709  1.00  0.00    -0.067 N 
HETATM   11  C   UNL     1      -3.936   8.175 -31.206  1.00  0.00     0.270 C 
HETATM   12  H   UNL     1      -3.963   6.746 -32.687  1.00  0.00     0.280 HD
BRANCH  10  13
HETATM   13  C   UNL     1      -2.117   6.473 -31.655  1.00  0.00     0.188 C 
HETATM   14  C   UNL     1      -1.795   5.022 -32.053  1.00  0.00     0.033 C 
HETATM   15  C   UNL     1      -2.073   4.731 -33.525  1.00  0.00     0.002 C 
HETATM   16  C   UNL     1      -1.336   5.706 -34.439  1.00  0.00     0.000 C 
HETATM   17  C   UNL     1      -1.592   7.163 -34.060  1.00  0.00     0.002 C 
HETATM   18  C   UNL     1      -1.316   7.412 -32.578  1.00  0.00     0.033 C 
ENDBRANCH  10  13
ENDBRANCH   9  10
ENDBRANCH   4   9
ENDBRANCH   1   3
BRANCH   1  19
HETATM   19  C   UNL     1      -3.763   2.356 -30.996  1.00  0.00     0.197 C 
BRANCH  19  20
HETATM   20  C   UNL     1      -3.941   0.885 -31.379  1.00  0.00     0.249 C 
HETATM   21  N   UNL     1      -3.622   0.584 -32.683  1.00  0.00    -0.266 N 
HETATM   22  H   UNL     1      -3.547   1.286 -33.423  1.00  0.00     0.190 HD
HETATM   23  O   UNL     1      -4.306   0.032 -30.566  1.00  0.00    -0.270 OA
BRANCH  21  24
HETATM   24  N   UNL     1      -3.840  -0.727 -33.133  1.00  0.00    -0.263 N 
HETATM   25  C   UNL     1      -4.990  -0.954 -33.867  1.00  0.00     0.270 C 
HETATM   26  O   UNL     1      -5.742  -0.036 -34.187  1.00  0.00    -0.266 OA
HETATM   27  H   UNL     1      -3.366  -1.470 -32.622  1.00  0.00     0.190 HD
BRANCH  25  28
HETATM   28  C   UNL     1      -5.290  -2.369 -34.216  1.00  0.00     0.033 A 
HETATM   29  C   UNL     1      -4.277  -3.322 -34.055  1.00  0.00     0.017 A 
HETATM   30  C   UNL     1      -4.519  -4.661 -34.371  1.00  0.00     0.001 A 
HETATM   31  C   UNL     1      -5.773  -5.053 -34.837  1.00  0.00     0.000 A 
HETATM   32  C   UNL     1      -6.790  -4.110 -34.983  1.00  0.00     0.001 A 
HETATM   33  C   UNL     1      -6.554  -2.770 -34.672  1.00  0.00     0.017 A 
ENDBRANCH  25  28
ENDBRANCH  21  24
ENDBRANCH  19  20
ENDBRANCH   1  19
TORSDOF 8
ENDMDL
MODEL 5
REMARK VINA RESULT:      -8.4      1.347      2.361
REMARK  8 active torsions:
REMARK  status: ('A' for Active; 'I' for Inactive)
REMARK    1  A    between atoms: N_2  and  C_4 
REMARK    2  A    between atoms: N_2  and  C_10 
REMARK    3  A    between atoms: C_10  and  C_11 
REMARK    4  A    between atoms: C_12  and  N_13 
REMARK    5  A    between atoms: N_13  and  C_14 
REMARK    6  A    between atoms: C_14  and  C_15 
REMARK       I    between atoms: C_15  and  N_16 
REMARK    7  A    between atoms: N_16  and  N_17 
REMARK       I    between atoms: N_17  and  C_18 
REMARK    8  A    between atoms: C_18  and  C_19 
ROOT
HETATM    1  N   UNL     1      -3.304   4.252 -31.080  1.00  0.00    -0.284 NA
HETATM    2  H   UNL     1      -3.223   4.670 -30.142  1.00  0.00     0.128 HD
ENDROOT
BRANCH   1   3
HETATM    3  C   UNL     1      -2.501   5.011 -31.960  1.00  0.00     0.016 A 
HETATM    4  C   UNL     1      -1.938   6.220 -31.485  1.00  0.00    -0.011 A 
HETATM    5  C   UNL     1      -1.209   7.045 -32.361  1.00  0.00     0.011 A 
HETATM    6  C   UNL     1      -1.034   6.686 -33.694  1.00  0.00     0.001 A 
HETATM    7  C   UNL     1      -1.597   5.509 -34.169  1.00  0.00     0.002 A 
HETATM    8  C   UNL     1      -2.335   4.686 -33.314  1.00  0.00     0.024 A 
BRANCH   4   9
HETATM    9  C   UNL     1      -2.118   6.676 -30.053  1.00  0.00     0.275 C 
BRANCH   9  10
HETATM   10  N   UNL     1      -0.894   6.523 -29.161  1.00  0.00    -0.067 N 
HETATM   11  C   UNL     1       0.007   5.427 -29.684  1.00  0.00     0.270 C 
HETATM   12  H   UNL     1      -1.308   6.160 -28.281  1.00  0.00     0.280 HD
BRANCH  10  13
HETATM   13  C   UNL     1      -0.138   7.830 -28.902  1.00  0.00     0.188 C 
HETATM   14  C   UNL     1      -1.042   8.945 -28.349  1.00  0.00     0.033 C 
HETATM   15  C   UNL     1      -1.556   8.654 -26.942  1.00  0.00     0.002 C 
HETATM   16  C   UNL     1      -0.410   8.373 -25.973  1.00  0.00     0.000 C 
HETATM   17  C   UNL     1       0.541   7.299 -26.496  1.00  0.00     0.002 C 
HETATM   18  C   UNL     1       1.023   7.619 -27.910  1.00  0.00     0.033 C 
ENDBRANCH  10  13
ENDBRANCH   9  10
ENDBRANCH   4   9
ENDBRANCH   1   3
BRANCH   1  19
HETATM   19  C   UNL     1      -4.762   4.191 -31.373  1.00  0.00     0.197 C 
BRANCH  19  20
HETATM   20  C   UNL     1      -5.082   2.842 -32.022  1.00  0.00     0.249 C 
HETATM   21  N   UNL     1      -4.413   1.768 -31.482  1.00  0.00    -0.266 N 
HETATM   22  H   UNL     1      -3.573   1.855 -30.904  1.00  0.00     0.190 HD
HETATM   23  O   UNL     1      -5.905   2.729 -32.933  1.00  0.00    -0.270 OA
BRANCH  21  24
HETATM   24  N   UNL     1      -4.589   0.510 -32.079  1.00  0.00    -0.263 N 
HETATM   25  C   UNL     1      -3.650  -0.461 -31.782  1.00  0.00     0.270 C 
HETATM   26  O   UNL     1      -2.754  -0.262 -30.966  1.00  0.00    -0.266 OA
HETATM   27  H   UNL     1      -5.148   0.483 -32.931  1.00  0.00     0.190 HD
BRANCH  25  28
HETATM   28  C   UNL     1      -3.758  -1.743 -32.529  1.00  0.00     0.033 A 
HETATM   29  C   UNL     1      -4.442  -1.746 -33.750  1.00  0.00     0.017 A 
HETATM   30  C   UNL     1      -4.564  -2.929 -34.482  1.00  0.00     0.001 A 
HETATM   31  C   UNL     1      -3.997  -4.108 -34.002  1.00  0.00     0.000 A 
HETATM   32  C   UNL     1      -3.300  -4.108 -32.794  1.00  0.00     0.001 A 
HETATM   33  C   UNL     1      -3.176  -2.929 -32.057  1.00  0.00     0.017 A 
ENDBRANCH  25  28
ENDBRANCH  21  24
ENDBRANCH  19  20
ENDBRANCH   1  19
TORSDOF 8
ENDMDL
MODEL 6
REMARK VINA RESULT:      -8.4      2.906      4.778
REMARK  8 active torsions:
REMARK  status: ('A' for Active; 'I' for Inactive)
REMARK    1  A    between atoms: N_2  and  C_4 
REMARK    2  A    between atoms: N_2  and  C_10 
REMARK    3  A    between atoms: C_10  and  C_11 
REMARK    4  A    between atoms: C_12  and  N_13 
REMARK    5  A    between atoms: N_13  and  C_14 
REMARK    6  A    between atoms: C_14  and  C_15 
REMARK       I    between atoms: C_15  and  N_16 
REMARK    7  A    between atoms: N_16  and  N_17 
REMARK       I    between atoms: N_17  and  C_18 
REMARK    8  A    between atoms: C_18  and  C_19 
ROOT
HETATM    1  N   UNL     1      -7.503   3.579 -33.359  1.00  0.00    -0.284 NA
HETATM    2  H   UNL     1      -6.603   3.098 -33.498  1.00  0.00     0.128 HD
ENDROOT
BRANCH   1   3
HETATM    3  C   UNL     1      -7.227   4.912 -32.984  1.00  0.00     0.016 A 
HETATM    4  C   UNL     1      -5.875   5.324 -32.909  1.00  0.00    -0.011 A 
HETATM    5  C   UNL     1      -5.561   6.618 -32.450  1.00  0.00     0.011 A 
HETATM    6  C   UNL     1      -6.568   7.500 -32.069  1.00  0.00     0.001 A 
HETATM    7  C   UNL     1      -7.895   7.095 -32.128  1.00  0.00     0.002 A 
HETATM    8  C   UNL     1      -8.222   5.809 -32.567  1.00  0.00     0.024 A 
BRANCH   4   9
HETATM    9  C   UNL     1      -4.737   4.401 -33.283  1.00  0.00     0.275 C 
BRANCH   9  10
HETATM   10  N   UNL     1      -3.532   4.439 -32.352  1.00  0.00    -0.067 N 
HETATM   11  C   UNL     1      -3.653   3.371 -31.289  1.00  0.00     0.270 C 
HETATM   12  H   UNL     1      -3.660   5.346 -31.864  1.00  0.00     0.280 HD
BRANCH  10  13
HETATM   13  C   UNL     1      -2.181   4.399 -33.072  1.00  0.00     0.188 C 
HETATM   14  C   UNL     1      -2.188   5.176 -34.400  1.00  0.00     0.033 C 
HETATM   15  C   UNL     1      -2.343   6.682 -34.211  1.00  0.00     0.002 C 
HETATM   16  C   UNL     1      -1.273   7.243 -33.277  1.00  0.00     0.000 C 
HETATM   17  C   UNL     1      -1.199   6.479 -31.957  1.00  0.00     0.002 C 
HETATM   18  C   UNL     1      -1.057   4.975 -32.188  1.00  0.00     0.033 C 
ENDBRANCH  10  13
ENDBRANCH   9  10
ENDBRANCH   4   9
ENDBRANCH   1   3
BRANCH   1  19
HETATM   19  C   UNL     1      -8.265   2.744 -32.390  1.00  0.00     0.197 C 
BRANCH  19  20
HETATM   20  C   UNL     1      -7.642   1.348 -32.341  1.00  0.00     0.249 C 
HETATM   21  N   UNL     1      -6.602   1.147 -33.220  1.00  0.00    -0.266 N 
HETATM   22  H   UNL     1      -6.424   1.743 -34.032  1.00  0.00     0.190 HD
HETATM   23  O   UNL     1      -8.021   0.485 -31.545  1.00  0.00    -0.270 OA
BRANCH  21  24
HETATM   24  N   UNL     1      -6.036  -0.135 -33.293  1.00  0.00    -0.263 N 
HETATM   25  C   UNL     1      -6.313  -0.878 -34.426  1.00  0.00     0.270 C 
HETATM   26  O   UNL     1      -6.952  -0.409 -35.364  1.00  0.00    -0.266 OA
HETATM   27  H   UNL     1      -5.770  -0.569 -32.410  1.00  0.00     0.190 HD
BRANCH  25  28
HETATM   28  C   UNL     1      -5.832  -2.286 -34.434  1.00  0.00     0.033 A 
HETATM   29  C   UNL     1      -6.714  -3.289 -34.851  1.00  0.00     0.017 A 
HETATM   30  C   UNL     1      -6.300  -4.622 -34.875  1.00  0.00     0.001 A 
HETATM   31  C   UNL     1      -5.002  -4.956 -34.492  1.00  0.00     0.000 A 
HETATM   32  C   UNL     1      -4.113  -3.960 -34.091  1.00  0.00     0.001 A 
HETATM   33  C   UNL     1      -4.522  -2.625 -34.064  1.00  0.00     0.017 A 
ENDBRANCH  25  28
ENDBRANCH  21  24
ENDBRANCH  19  20
ENDBRANCH   1  19
TORSDOF 8
ENDMDL
MODEL 7
REMARK VINA RESULT:      -8.4      4.399      6.977
REMARK  8 active torsions:
REMARK  status: ('A' for Active; 'I' for Inactive)
REMARK    1  A    between atoms: N_2  and  C_4 
REMARK    2  A    between atoms: N_2  and  C_10 
REMARK    3  A    between atoms: C_10  and  C_11 
REMARK    4  A    between atoms: C_12  and  N_13 
REMARK    5  A    between atoms: N_13  and  C_14 
REMARK    6  A    between atoms: C_14  and  C_15 
REMARK       I    between atoms: C_15  and  N_16 
REMARK    7  A    between atoms: N_16  and  N_17 
REMARK       I    between atoms: N_17  and  C_18 
REMARK    8  A    between atoms: C_18  and  C_19 
ROOT
HETATM    1  N   UNL     1      -6.092   3.429 -30.622  1.00  0.00    -0.284 NA
HETATM    2  H   UNL     1      -6.999   2.971 -30.797  1.00  0.00     0.128 HD
ENDROOT
BRANCH   1   3
HETATM    3  C   UNL     1      -5.642   3.975 -31.844  1.00  0.00     0.016 A 
HETATM    4  C   UNL     1      -6.605   4.457 -32.762  1.00  0.00    -0.011 A 
HETATM    5  C   UNL     1      -6.197   4.923 -34.026  1.00  0.00     0.011 A 
HETATM    6  C   UNL     1      -4.853   4.916 -34.386  1.00  0.00     0.001 A 
HETATM    7  C   UNL     1      -3.906   4.430 -33.494  1.00  0.00     0.002 A 
HETATM    8  C   UNL     1      -4.297   3.952 -32.241  1.00  0.00     0.024 A 
BRANCH   4   9
HETATM    9  C   UNL     1      -8.084   4.464 -32.439  1.00  0.00     0.275 C 
BRANCH   9  10
HETATM   10  N   UNL     1      -8.696   3.099 -32.153  1.00  0.00    -0.067 N 
HETATM   11  C   UNL     1      -9.618   3.176 -30.957  1.00  0.00     0.270 C 
HETATM   12  H   UNL     1      -7.871   2.549 -31.846  1.00  0.00     0.280 HD
BRANCH  10  13
HETATM   13  C   UNL     1      -9.362   2.444 -33.367  1.00  0.00     0.188 C 
HETATM   14  C   UNL     1      -8.346   1.937 -34.405  1.00  0.00     0.033 C 
HETATM   15  C   UNL     1      -7.508   0.766 -33.899  1.00  0.00     0.002 C 
HETATM   16  C   UNL     1      -8.387  -0.384 -33.413  1.00  0.00     0.000 C 
HETATM   17  C   UNL     1      -9.440   0.076 -32.408  1.00  0.00     0.002 C 
HETATM   18  C   UNL     1     -10.249   1.256 -32.945  1.00  0.00     0.033 C 
ENDBRANCH  10  13
ENDBRANCH   9  10
ENDBRANCH   4   9
ENDBRANCH   1   3
BRANCH   1  19
HETATM   19  C   UNL     1      -5.233   2.396 -29.982  1.00  0.00     0.197 C 
BRANCH  19  20
HETATM   20  C   UNL     1      -5.634   1.018 -30.511  1.00  0.00     0.249 C 
HETATM   21  N   UNL     1      -4.682   0.397 -31.286  1.00  0.00    -0.266 N 
HETATM   22  H   UNL     1      -3.897   0.888 -31.721  1.00  0.00     0.190 HD
HETATM   23  O   UNL     1      -6.714   0.493 -30.230  1.00  0.00    -0.270 OA
BRANCH  21  24
HETATM   24  N   UNL     1      -5.009  -0.833 -31.878  1.00  0.00    -0.263 N 
HETATM   25  C   UNL     1      -4.216  -1.252 -32.931  1.00  0.00     0.270 C 
HETATM   26  O   UNL     1      -3.219  -0.623 -33.276  1.00  0.00    -0.266 OA
HETATM   27  H   UNL     1      -5.967  -1.158 -31.757  1.00  0.00     0.190 HD
BRANCH  25  28
HETATM   28  C   UNL     1      -4.653  -2.480 -33.647  1.00  0.00     0.033 A 
HETATM   29  C   UNL     1      -3.914  -3.655 -33.463  1.00  0.00     0.017 A 
HETATM   30  C   UNL     1      -4.293  -4.830 -34.116  1.00  0.00     0.001 A 
HETATM   31  C   UNL     1      -5.414  -4.838 -34.945  1.00  0.00     0.000 A 
HETATM   32  C   UNL     1      -6.163  -3.675 -35.119  1.00  0.00     0.001 A 
HETATM   33  C   UNL     1      -5.789  -2.497 -34.470  1.00  0.00     0.017 A 
ENDBRANCH  25  28
ENDBRANCH  21  24
ENDBRANCH  19  20
ENDBRANCH   1  19
TORSDOF 8
ENDMDL
MODEL 8
REMARK VINA RESULT:      -8.3      5.567      8.920
REMARK  8 active torsions:
REMARK  status: ('A' for Active; 'I' for Inactive)
REMARK    1  A    between atoms: N_2  and  C_4 
REMARK    2  A    between atoms: N_2  and  C_10 
REMARK    3  A    between atoms: C_10  and  C_11 
REMARK    4  A    between atoms: C_12  and  N_13 
REMARK    5  A    between atoms: N_13  and  C_14 
REMARK    6  A    between atoms: C_14  and  C_15 
REMARK       I    between atoms: C_15  and  N_16 
REMARK    7  A    between atoms: N_16  and  N_17 
REMARK       I    between atoms: N_17  and  C_18 
REMARK    8  A    between atoms: C_18  and  C_19 
ROOT
HETATM    1  N   UNL     1      -6.711   0.361 -34.323  1.00  0.00    -0.284 NA
HETATM    2  H   UNL     1      -6.144   1.030 -34.864  1.00  0.00     0.128 HD
ENDROOT
BRANCH   1   3
HETATM    3  C   UNL     1      -5.927  -0.794 -34.108  1.00  0.00     0.016 A 
HETATM    4  C   UNL     1      -4.931  -0.755 -33.103  1.00  0.00    -0.011 A 
HETATM    5  C   UNL     1      -4.072  -1.856 -32.924  1.00  0.00     0.011 A 
HETATM    6  C   UNL     1      -4.191  -2.987 -33.727  1.00  0.00     0.001 A 
HETATM    7  C   UNL     1      -5.157  -3.024 -34.723  1.00  0.00     0.002 A 
HETATM    8  C   UNL     1      -6.008  -1.933 -34.922  1.00  0.00     0.024 A 
BRANCH   4   9
HETATM    9  C   UNL     1      -4.736   0.457 -32.219  1.00  0.00     0.275 C 
BRANCH   9  10
HETATM   10  N   UNL     1      -5.996   0.986 -31.547  1.00  0.00    -0.067 N 
HETATM   11  C   UNL     1      -6.447   0.043 -30.455  1.00  0.00     0.270 C 
HETATM   12  H   UNL     1      -6.699   0.905 -32.306  1.00  0.00     0.280 HD
BRANCH  10  13
HETATM   13  C   UNL     1      -5.888   2.435 -31.064  1.00  0.00     0.188 C 
HETATM   14  C   UNL     1      -5.712   3.439 -32.216  1.00  0.00     0.033 C 
HETATM   15  C   UNL     1      -6.947   3.549 -33.107  1.00  0.00     0.002 C 
HETATM   16  C   UNL     1      -8.195   3.888 -32.295  1.00  0.00     0.000 C 
HETATM   17  C   UNL     1      -8.393   2.943 -31.113  1.00  0.00     0.002 C 
HETATM   18  C   UNL     1      -7.133   2.850 -30.254  1.00  0.00     0.033 C 
ENDBRANCH  10  13
ENDBRANCH   9  10
ENDBRANCH   4   9
ENDBRANCH   1   3
BRANCH   1  19
HETATM   19  C   UNL     1      -7.977   0.191 -35.086  1.00  0.00     0.197 C 
BRANCH  19  20
HETATM   20  C   UNL     1      -9.159   0.482 -34.159  1.00  0.00     0.249 C 
HETATM   21  N   UNL     1     -10.040   1.431 -34.625  1.00  0.00    -0.266 N 
HETATM   22  H   UNL     1      -9.813   2.098 -35.367  1.00  0.00     0.190 HD
HETATM   23  O   UNL     1      -9.325  -0.119 -33.095  1.00  0.00    -0.270 OA
BRANCH  21  24
HETATM   24  N   UNL     1     -11.103   1.813 -33.793  1.00  0.00    -0.263 N 
HETATM   25  C   UNL     1     -12.365   1.828 -34.357  1.00  0.00     0.270 C 
HETATM   26  O   UNL     1     -12.563   1.441 -35.506  1.00  0.00    -0.266 OA
HETATM   27  H   UNL     1     -10.865   2.376 -32.977  1.00  0.00     0.190 HD
BRANCH  25  28
HETATM   28  C   UNL     1     -13.465   2.372 -33.515  1.00  0.00     0.033 A 
HETATM   29  C   UNL     1     -13.442   3.733 -33.188  1.00  0.00     0.017 A 
HETATM   30  C   UNL     1     -14.457   4.282 -32.402  1.00  0.00     0.001 A 
HETATM   31  C   UNL     1     -15.501   3.478 -31.948  1.00  0.00     0.000 A 
HETATM   32  C   UNL     1     -15.538   2.125 -32.284  1.00  0.00     0.001 A 
HETATM   33  C   UNL     1     -14.525   1.570 -33.068  1.00  0.00     0.017 A 
ENDBRANCH  25  28
ENDBRANCH  21  24
ENDBRANCH  19  20
ENDBRANCH   1  19
TORSDOF 8
ENDMDL
MODEL 9
REMARK VINA RESULT:      -8.3      2.255      2.923
REMARK  8 active torsions:
REMARK  status: ('A' for Active; 'I' for Inactive)
REMARK    1  A    between atoms: N_2  and  C_4 
REMARK    2  A    between atoms: N_2  and  C_10 
REMARK    3  A    between atoms: C_10  and  C_11 
REMARK    4  A    between atoms: C_12  and  N_13 
REMARK    5  A    between atoms: N_13  and  C_14 
REMARK    6  A    between atoms: C_14  and  C_15 
REMARK       I    between atoms: C_15  and  N_16 
REMARK    7  A    between atoms: N_16  and  N_17 
REMARK       I    between atoms: N_17  and  C_18 
REMARK    8  A    between atoms: C_18  and  C_19 
ROOT
HETATM    1  N   UNL     1      -5.956   4.552 -32.363  1.00  0.00    -0.284 NA
HETATM    2  H   UNL     1      -6.486   5.435 -32.351  1.00  0.00     0.128 HD
ENDROOT
BRANCH   1   3
HETATM    3  C   UNL     1      -4.836   4.732 -33.205  1.00  0.00     0.016 A 
HETATM    4  C   UNL     1      -3.564   4.898 -32.608  1.00  0.00    -0.011 A 
HETATM    5  C   UNL     1      -2.441   5.170 -33.413  1.00  0.00     0.011 A 
HETATM    6  C   UNL     1      -2.568   5.279 -34.794  1.00  0.00     0.001 A 
HETATM    7  C   UNL     1      -3.817   5.132 -35.384  1.00  0.00     0.002 A 
HETATM    8  C   UNL     1      -4.942   4.875 -34.596  1.00  0.00     0.024 A 
BRANCH   4   9
HETATM    9  C   UNL     1      -3.368   4.818 -31.109  1.00  0.00     0.275 C 
BRANCH   9  10
HETATM   10  N   UNL     1      -3.784   6.059 -30.330  1.00  0.00    -0.067 N 
HETATM   11  C   UNL     1      -4.914   5.731 -29.381  1.00  0.00     0.270 C 
HETATM   12  H   UNL     1      -4.195   6.656 -31.072  1.00  0.00     0.280 HD
BRANCH  10  13
HETATM   13  C   UNL     1      -2.625   6.780 -29.635  1.00  0.00     0.188 C 
HETATM   14  C   UNL     1      -1.514   7.205 -30.611  1.00  0.00     0.033 C 
HETATM   15  C   UNL     1      -1.959   8.294 -31.584  1.00  0.00     0.002 C 
HETATM   16  C   UNL     1      -2.511   9.513 -30.848  1.00  0.00     0.000 C 
HETATM   17  C   UNL     1      -3.592   9.138 -29.836  1.00  0.00     0.002 C 
HETATM   18  C   UNL     1      -3.114   8.037 -28.890  1.00  0.00     0.033 C 
ENDBRANCH  10  13
ENDBRANCH   9  10
ENDBRANCH   4   9
ENDBRANCH   1   3
BRANCH   1  19
HETATM   19  C   UNL     1      -6.932   3.497 -32.748  1.00  0.00     0.197 C 
BRANCH  19  20
HETATM   20  C   UNL     1      -6.217   2.145 -32.779  1.00  0.00     0.249 C 
HETATM   21  N   UNL     1      -6.265   1.494 -33.990  1.00  0.00    -0.266 N 
HETATM   22  H   UNL     1      -6.937   1.719 -34.728  1.00  0.00     0.190 HD
HETATM   23  O   UNL     1      -5.613   1.696 -31.802  1.00  0.00    -0.270 OA
BRANCH  21  24
HETATM   24  N   UNL     1      -5.705   0.210 -34.075  1.00  0.00    -0.263 N 
HETATM   25  C   UNL     1      -6.527  -0.803 -34.532  1.00  0.00     0.270 C 
HETATM   26  O   UNL     1      -7.667  -0.578 -34.931  1.00  0.00    -0.266 OA
HETATM   27  H   UNL     1      -4.891   0.026 -33.488  1.00  0.00     0.190 HD
BRANCH  25  28
HETATM   28  C   UNL     1      -5.975  -2.184 -34.482  1.00  0.00     0.033 A 
HETATM   29  C   UNL     1      -6.802  -3.246 -34.868  1.00  0.00     0.017 A 
HETATM   30  C   UNL     1      -6.320  -4.556 -34.837  1.00  0.00     0.001 A 
HETATM   31  C   UNL     1      -5.011  -4.809 -34.431  1.00  0.00     0.000 A 
HETATM   32  C   UNL     1      -4.177  -3.754 -34.062  1.00  0.00     0.001 A 
HETATM   33  C   UNL     1      -4.653  -2.442 -34.089  1.00  0.00     0.017 A 
ENDBRANCH  25  28
ENDBRANCH  21  24
ENDBRANCH  19  20
ENDBRANCH   1  19
TORSDOF 8
ENDMDL
MODEL 10
REMARK VINA RESULT:      -8.0      1.708      2.439
REMARK  8 active torsions:
REMARK  status: ('A' for Active; 'I' for Inactive)
REMARK    1  A    between atoms: N_2  and  C_4 
REMARK    2  A    between atoms: N_2  and  C_10 
REMARK    3  A    between atoms: C_10  and  C_11 
REMARK    4  A    between atoms: C_12  and  N_13 
REMARK    5  A    between atoms: N_13  and  C_14 
REMARK    6  A    between atoms: C_14  and  C_15 
REMARK       I    between atoms: C_15  and  N_16 
REMARK    7  A    between atoms: N_16  and  N_17 
REMARK       I    between atoms: N_17  and  C_18 
REMARK    8  A    between atoms: C_18  and  C_19 
ROOT
HETATM    1  N   UNL     1      -3.403   5.252 -30.528  1.00  0.00    -0.284 NA
HETATM    2  H   UNL     1      -3.718   5.782 -29.702  1.00  0.00     0.128 HD
ENDROOT
BRANCH   1   3
HETATM    3  C   UNL     1      -2.086   5.664 -30.829  1.00  0.00     0.016 A 
HETATM    4  C   UNL     1      -1.497   6.672 -30.029  1.00  0.00    -0.011 A 
HETATM    5  C   UNL     1      -0.221   7.170 -30.356  1.00  0.00     0.011 A 
HETATM    6  C   UNL     1       0.470   6.682 -31.461  1.00  0.00     0.001 A 
HETATM    7  C   UNL     1      -0.111   5.704 -32.258  1.00  0.00     0.002 A 
HETATM    8  C   UNL     1      -1.382   5.209 -31.953  1.00  0.00     0.024 A 
BRANCH   4   9
HETATM    9  C   UNL     1      -2.210   7.261 -28.832  1.00  0.00     0.275 C 
BRANCH   9  10
HETATM   10  N   UNL     1      -1.504   8.433 -28.162  1.00  0.00    -0.067 N 
HETATM   11  C   UNL     1      -2.297   9.706 -28.354  1.00  0.00     0.270 C 
HETATM   12  H   UNL     1      -0.650   8.535 -28.743  1.00  0.00     0.280 HD
BRANCH  10  13
HETATM   13  C   UNL     1      -1.134   8.187 -26.696  1.00  0.00     0.188 C 
HETATM   14  C   UNL     1      -0.261   6.936 -26.501  1.00  0.00     0.033 C 
HETATM   15  C   UNL     1       1.133   7.080 -27.106  1.00  0.00     0.002 C 
HETATM   16  C   UNL     1       1.852   8.316 -26.568  1.00  0.00     0.000 C 
HETATM   17  C   UNL     1       1.009   9.581 -26.703  1.00  0.00     0.002 C 
HETATM   18  C   UNL     1      -0.382   9.393 -26.099  1.00  0.00     0.033 C 
ENDBRANCH  10  13
ENDBRANCH   9  10
ENDBRANCH   4   9
ENDBRANCH   1   3
BRANCH   1  19
HETATM   19  C   UNL     1      -4.440   5.475 -31.572  1.00  0.00     0.197 C 
BRANCH  19  20
HETATM   20  C   UNL     1      -4.497   4.248 -32.486  1.00  0.00     0.249 C 
HETATM   21  N   UNL     1      -4.664   3.049 -31.832  1.00  0.00    -0.266 N 
HETATM   22  H   UNL     1      -4.486   2.918 -30.834  1.00  0.00     0.190 HD
HETATM   23  O   UNL     1      -4.436   4.338 -33.714  1.00  0.00    -0.270 OA
BRANCH  21  24
HETATM   24  N   UNL     1      -4.641   1.871 -32.594  1.00  0.00    -0.263 N 
HETATM   25  C   UNL     1      -5.777   1.083 -32.565  1.00  0.00     0.270 C 
HETATM   26  O   UNL     1      -6.792   1.438 -31.972  1.00  0.00    -0.266 OA
HETATM   27  H   UNL     1      -3.722   1.492 -32.822  1.00  0.00     0.190 HD
BRANCH  25  28
HETATM   28  C   UNL     1      -5.694  -0.232 -33.256  1.00  0.00     0.033 A 
HETATM   29  C   UNL     1      -6.825  -0.700 -33.935  1.00  0.00     0.017 A 
HETATM   30  C   UNL     1      -6.788  -1.928 -34.597  1.00  0.00     0.001 A 
HETATM   31  C   UNL     1      -5.619  -2.688 -34.591  1.00  0.00     0.000 A 
HETATM   32  C   UNL     1      -4.484  -2.220 -33.931  1.00  0.00     0.001 A 
HETATM   33  C   UNL     1      -4.516  -0.993 -33.265  1.00  0.00     0.017 A 
ENDBRANCH  25  28
ENDBRANCH  21  24
ENDBRANCH  19  20
ENDBRANCH   1  19
TORSDOF 8
ENDMDL
