MODEL 1
REMARK VINA RESULT:      -9.0      0.000      0.000
REMARK  4 active torsions:
REMARK  status: ('A' for Active; 'I' for Inactive)
REMARK    1  A    between atoms: O_2  and  C_3 
REMARK    2  A    between atoms: C_4  and  N_5 
REMARK    3  A    between atoms: N_8  and  C_9 
REMARK    4  A    between atoms: C_9  and  C_10 
ROOT
HETATM    1  N   UNL     1      -6.563  -0.586 -33.818  1.00  0.00    -0.375 N 
HETATM    2  C   UNL     1      -6.761  -0.121 -32.434  1.00  0.00     0.153 C 
HETATM    3  C   UNL     1      -7.091   1.394 -32.419  1.00  0.00     0.292 C 
HETATM    4  N   UNL     1      -8.242   1.809 -33.264  1.00  0.00     0.095 N 
HETATM    5  C   UNL     1      -8.024   1.256 -34.628  1.00  0.00     0.292 C 
HETATM    6  C   UNL     1      -7.702  -0.256 -34.704  1.00  0.00     0.153 C 
ENDROOT
BRANCH   4   7
HETATM    7  C   UNL     1      -9.517   1.345 -32.680  1.00  0.00     0.313 C 
BRANCH   7   8
HETATM    8  C   UNL     1     -10.733   1.759 -33.484  1.00  0.00    -0.001 A 
HETATM    9  C   UNL     1     -11.886   0.969 -33.632  1.00  0.00     0.070 A 
HETATM   10  C   UNL     1     -12.986   1.332 -34.394  1.00  0.00     0.012 A 
HETATM   11  N   UNL     1     -12.211  -0.251 -33.091  1.00  0.00    -0.277 N 
HETATM   12  C   UNL     1     -13.894   0.259 -34.242  1.00  0.00     0.152 A 
HETATM   13  C   UNL     1     -12.971   2.557 -35.081  1.00  0.00     0.015 A 
HETATM   14  N   UNL     1     -13.425  -0.709 -33.450  1.00  0.00    -0.186 NA
HETATM   15  C   UNL     1     -11.836   3.369 -34.974  1.00  0.00     0.002 A 
HETATM   16  C   UNL     1     -10.742   2.973 -34.198  1.00  0.00     0.011 A 
HETATM   17  H   UNL     1     -11.640  -0.789 -32.446  1.00  0.00     0.189 HD
ENDBRANCH   7   8
ENDBRANCH   4   7
BRANCH   1  18
HETATM   18  C   UNL     1      -6.007  -1.858 -34.056  1.00  0.00     0.064 A 
HETATM   19  C   UNL     1      -4.652  -2.226 -33.864  1.00  0.00     0.097 A 
HETATM   20  C   UNL     1      -4.225  -3.540 -34.111  1.00  0.00     0.081 A 
HETATM   21  C   UNL     1      -5.120  -4.482 -34.598  1.00  0.00     0.119 A 
HETATM   22  C   UNL     1      -6.439  -4.148 -34.841  1.00  0.00     0.044 A 
HETATM   23  F   UNL     1      -4.698  -5.732 -34.835  1.00  0.00    -0.206 F 
HETATM   24  C   UNL     1      -6.872  -2.849 -34.572  1.00  0.00     0.035 A 
BRANCH  19  25
HETATM   25  O   UNL     1      -3.770  -1.312 -33.336  1.00  0.00    -0.354 OA
HETATM   26  C   UNL     1      -3.305  -1.644 -32.029  1.00  0.00     0.210 C 
ENDBRANCH  19  25
ENDBRANCH   1  18
TORSDOF 4
ENDMDL
MODEL 2
REMARK VINA RESULT:      -8.4      5.359      8.229
REMARK  4 active torsions:
REMARK  status: ('A' for Active; 'I' for Inactive)
REMARK    1  A    between atoms: O_2  and  C_3 
REMARK    2  A    between atoms: C_4  and  N_5 
REMARK    3  A    between atoms: N_8  and  C_9 
REMARK    4  A    between atoms: C_9  and  C_10 
ROOT
HETATM    1  N   UNL     1      -5.157   0.925 -32.638  1.00  0.00    -0.375 N 
HETATM    2  C   UNL     1      -5.414   2.251 -33.225  1.00  0.00     0.153 C 
HETATM    3  C   UNL     1      -5.001   3.368 -32.232  1.00  0.00     0.292 C 
HETATM    4  N   UNL     1      -3.603   3.297 -31.731  1.00  0.00     0.095 N 
HETATM    5  C   UNL     1      -3.377   1.920 -31.214  1.00  0.00     0.292 C 
HETATM    6  C   UNL     1      -3.761   0.765 -32.169  1.00  0.00     0.153 C 
ENDROOT
BRANCH   4   7
HETATM    7  C   UNL     1      -2.644   3.647 -32.799  1.00  0.00     0.313 C 
BRANCH   7   8
HETATM    8  C   UNL     1      -2.094   5.053 -32.676  1.00  0.00    -0.001 A 
HETATM    9  C   UNL     1      -1.315   5.504 -31.596  1.00  0.00     0.070 A 
HETATM   10  C   UNL     1      -0.838   6.800 -31.466  1.00  0.00     0.012 A 
HETATM   11  N   UNL     1      -0.841   4.835 -30.494  1.00  0.00    -0.277 N 
HETATM   12  C   UNL     1      -0.107   6.790 -30.256  1.00  0.00     0.152 A 
HETATM   13  C   UNL     1      -1.146   7.746 -32.456  1.00  0.00     0.015 A 
HETATM   14  N   UNL     1      -0.108   5.595 -29.659  1.00  0.00    -0.186 NA
HETATM   15  C   UNL     1      -1.932   7.345 -33.543  1.00  0.00     0.002 A 
HETATM   16  C   UNL     1      -2.399   6.031 -33.644  1.00  0.00     0.011 A 
HETATM   17  H   UNL     1      -0.973   3.848 -30.291  1.00  0.00     0.189 HD
ENDBRANCH   7   8
ENDBRANCH   4   7
BRANCH   1  18
HETATM   18  C   UNL     1      -5.688  -0.226 -33.250  1.00  0.00     0.064 A 
HETATM   19  C   UNL     1      -7.062  -0.543 -33.383  1.00  0.00     0.097 A 
HETATM   20  C   UNL     1      -7.466  -1.715 -34.043  1.00  0.00     0.081 A 
HETATM   21  C   UNL     1      -6.517  -2.604 -34.527  1.00  0.00     0.119 A 
HETATM   22  C   UNL     1      -5.167  -2.351 -34.375  1.00  0.00     0.044 A 
HETATM   23  F   UNL     1      -6.916  -3.720 -35.150  1.00  0.00    -0.206 F 
HETATM   24  C   UNL     1      -4.762  -1.175 -33.742  1.00  0.00     0.035 A 
BRANCH  19  25
HETATM   25  O   UNL     1      -8.009   0.355 -32.950  1.00  0.00    -0.354 OA
HETATM   26  C   UNL     1      -9.072   0.569 -33.877  1.00  0.00     0.210 C 
ENDBRANCH  19  25
ENDBRANCH   1  18
TORSDOF 4
ENDMDL
MODEL 3
REMARK VINA RESULT:      -8.4      1.502      2.103
REMARK  4 active torsions:
REMARK  status: ('A' for Active; 'I' for Inactive)
REMARK    1  A    between atoms: O_2  and  C_3 
REMARK    2  A    between atoms: C_4  and  N_5 
REMARK    3  A    between atoms: N_8  and  C_9 
REMARK    4  A    between atoms: C_9  and  C_10 
ROOT
HETATM    1  N   UNL     1      -6.658  -0.503 -33.748  1.00  0.00    -0.375 N 
HETATM    2  C   UNL     1      -6.825  -0.072 -32.350  1.00  0.00     0.153 C 
HETATM    3  C   UNL     1      -7.158   1.441 -32.290  1.00  0.00     0.292 C 
HETATM    4  N   UNL     1      -8.328   1.874 -33.098  1.00  0.00     0.095 N 
HETATM    5  C   UNL     1      -8.140   1.355 -34.480  1.00  0.00     0.292 C 
HETATM    6  C   UNL     1      -7.818  -0.154 -34.600  1.00  0.00     0.153 C 
ENDROOT
BRANCH   4   7
HETATM    7  C   UNL     1      -9.588   1.393 -32.497  1.00  0.00     0.313 C 
BRANCH   7   8
HETATM    8  C   UNL     1     -10.818   1.761 -33.301  1.00  0.00    -0.001 A 
HETATM    9  C   UNL     1     -11.218   3.081 -33.571  1.00  0.00     0.070 A 
HETATM   10  C   UNL     1     -12.362   3.420 -34.279  1.00  0.00     0.012 A 
HETATM   11  N   UNL     1     -10.624   4.278 -33.256  1.00  0.00    -0.277 N 
HETATM   12  C   UNL     1     -12.351   4.833 -34.316  1.00  0.00     0.152 A 
HETATM   13  C   UNL     1     -13.198   2.399 -34.760  1.00  0.00     0.015 A 
HETATM   14  N   UNL     1     -11.294   5.361 -33.692  1.00  0.00    -0.186 NA
HETATM   15  C   UNL     1     -12.846   1.069 -34.500  1.00  0.00     0.002 A 
HETATM   16  C   UNL     1     -11.687   0.761 -33.782  1.00  0.00     0.011 A 
HETATM   17  H   UNL     1      -9.740   4.397 -32.768  1.00  0.00     0.189 HD
ENDBRANCH   7   8
ENDBRANCH   4   7
BRANCH   1  18
HETATM   18  C   UNL     1      -6.105  -1.767 -34.030  1.00  0.00     0.064 A 
HETATM   19  C   UNL     1      -4.741  -2.129 -33.904  1.00  0.00     0.097 A 
HETATM   20  C   UNL     1      -4.317  -3.437 -34.190  1.00  0.00     0.081 A 
HETATM   21  C   UNL     1      -5.227  -4.377 -34.652  1.00  0.00     0.119 A 
HETATM   22  C   UNL     1      -6.557  -4.048 -34.832  1.00  0.00     0.044 A 
HETATM   23  F   UNL     1      -4.808  -5.620 -34.926  1.00  0.00    -0.206 F 
HETATM   24  C   UNL     1      -6.986  -2.757 -34.523  1.00  0.00     0.035 A 
BRANCH  19  25
HETATM   25  O   UNL     1      -3.842  -1.217 -33.401  1.00  0.00    -0.354 OA
HETATM   26  C   UNL     1      -3.345  -1.548 -32.105  1.00  0.00     0.210 C 
ENDBRANCH  19  25
ENDBRANCH   1  18
TORSDOF 4
ENDMDL
MODEL 4
REMARK VINA RESULT:      -8.3      4.645      7.377
REMARK  4 active torsions:
REMARK  status: ('A' for Active; 'I' for Inactive)
REMARK    1  A    between atoms: O_2  and  C_3 
REMARK    2  A    between atoms: C_4  and  N_5 
REMARK    3  A    between atoms: N_8  and  C_9 
REMARK    4  A    between atoms: C_9  and  C_10 
ROOT
HETATM    1  N   UNL     1      -4.840   0.360 -32.211  1.00  0.00    -0.375 N 
HETATM    2  C   UNL     1      -6.000   1.195 -31.854  1.00  0.00     0.153 C 
HETATM    3  C   UNL     1      -5.629   2.163 -30.702  1.00  0.00     0.292 C 
HETATM    4  N   UNL     1      -4.440   3.022 -30.941  1.00  0.00     0.095 N 
HETATM    5  C   UNL     1      -3.321   2.137 -31.363  1.00  0.00     0.292 C 
HETATM    6  C   UNL     1      -3.631   1.156 -32.521  1.00  0.00     0.153 C 
ENDROOT
BRANCH   4   7
HETATM    7  C   UNL     1      -4.734   4.057 -31.953  1.00  0.00     0.313 C 
BRANCH   7   8
HETATM    8  C   UNL     1      -3.496   4.748 -32.486  1.00  0.00    -0.001 A 
HETATM    9  C   UNL     1      -2.628   5.527 -31.701  1.00  0.00     0.070 A 
HETATM   10  C   UNL     1      -1.512   6.187 -32.195  1.00  0.00     0.012 A 
HETATM   11  N   UNL     1      -2.637   5.797 -30.355  1.00  0.00    -0.277 N 
HETATM   12  C   UNL     1      -0.944   6.818 -31.065  1.00  0.00     0.152 A 
HETATM   13  C   UNL     1      -1.212   6.097 -33.564  1.00  0.00     0.015 A 
HETATM   14  N   UNL     1      -1.628   6.585 -29.941  1.00  0.00    -0.186 NA
HETATM   15  C   UNL     1      -2.059   5.344 -34.386  1.00  0.00     0.002 A 
HETATM   16  C   UNL     1      -3.177   4.692 -33.858  1.00  0.00     0.011 A 
HETATM   17  H   UNL     1      -3.303   5.435 -29.678  1.00  0.00     0.189 HD
ENDBRANCH   7   8
ENDBRANCH   4   7
BRANCH   1  18
HETATM   18  C   UNL     1      -5.014  -0.759 -33.049  1.00  0.00     0.064 A 
HETATM   19  C   UNL     1      -4.221  -1.933 -33.049  1.00  0.00     0.097 A 
HETATM   20  C   UNL     1      -4.517  -2.996 -33.919  1.00  0.00     0.081 A 
HETATM   21  C   UNL     1      -5.561  -2.883 -34.826  1.00  0.00     0.119 A 
HETATM   22  C   UNL     1      -6.327  -1.735 -34.886  1.00  0.00     0.044 A 
HETATM   23  F   UNL     1      -5.828  -3.903 -35.653  1.00  0.00    -0.206 F 
HETATM   24  C   UNL     1      -6.053  -0.688 -34.005  1.00  0.00     0.035 A 
BRANCH  19  25
HETATM   25  O   UNL     1      -3.216  -2.072 -32.121  1.00  0.00    -0.354 OA
HETATM   26  C   UNL     1      -2.917  -3.427 -31.789  1.00  0.00     0.210 C 
ENDBRANCH  19  25
ENDBRANCH   1  18
TORSDOF 4
ENDMDL
MODEL 5
REMARK VINA RESULT:      -7.9      4.857      7.480
REMARK  4 active torsions:
REMARK  status: ('A' for Active; 'I' for Inactive)
REMARK    1  A    between atoms: O_2  and  C_3 
REMARK    2  A    between atoms: C_4  and  N_5 
REMARK    3  A    between atoms: N_8  and  C_9 
REMARK    4  A    between atoms: C_9  and  C_10 
ROOT
HETATM    1  N   UNL     1      -5.966   2.219 -32.405  1.00  0.00    -0.375 N 
HETATM    2  C   UNL     1      -7.043   3.195 -32.647  1.00  0.00     0.153 C 
HETATM    3  C   UNL     1      -6.981   4.333 -31.596  1.00  0.00     0.292 C 
HETATM    4  N   UNL     1      -5.675   5.035 -31.486  1.00  0.00     0.095 N 
HETATM    5  C   UNL     1      -4.619   4.001 -31.312  1.00  0.00     0.292 C 
HETATM    6  C   UNL     1      -4.626   2.845 -32.342  1.00  0.00     0.153 C 
ENDROOT
BRANCH   4   7
HETATM    7  C   UNL     1      -5.429   5.878 -32.674  1.00  0.00     0.313 C 
BRANCH   7   8
HETATM    8  C   UNL     1      -4.047   6.499 -32.696  1.00  0.00    -0.001 A 
HETATM    9  C   UNL     1      -3.018   6.100 -33.567  1.00  0.00     0.070 A 
HETATM   10  C   UNL     1      -1.742   6.645 -33.566  1.00  0.00     0.012 A 
HETATM   11  N   UNL     1      -3.009   5.168 -34.575  1.00  0.00    -0.277 N 
HETATM   12  C   UNL     1      -1.063   5.961 -34.600  1.00  0.00     0.152 A 
HETATM   13  C   UNL     1      -1.428   7.654 -32.641  1.00  0.00     0.015 A 
HETATM   14  N   UNL     1      -1.831   5.058 -35.217  1.00  0.00    -0.186 NA
HETATM   15  C   UNL     1      -2.419   8.070 -31.744  1.00  0.00     0.002 A 
HETATM   16  C   UNL     1      -3.695   7.500 -31.769  1.00  0.00     0.011 A 
HETATM   17  H   UNL     1      -3.800   4.605 -34.876  1.00  0.00     0.189 HD
ENDBRANCH   7   8
ENDBRANCH   4   7
BRANCH   1  18
HETATM   18  C   UNL     1      -5.984   0.978 -33.071  1.00  0.00     0.064 A 
HETATM   19  C   UNL     1      -5.318  -0.202 -32.656  1.00  0.00     0.097 A 
HETATM   20  C   UNL     1      -5.438  -1.389 -33.396  1.00  0.00     0.081 A 
HETATM   21  C   UNL     1      -6.170  -1.404 -34.575  1.00  0.00     0.119 A 
HETATM   22  C   UNL     1      -6.796  -0.261 -35.035  1.00  0.00     0.044 A 
HETATM   23  F   UNL     1      -6.272  -2.542 -35.273  1.00  0.00    -0.206 F 
HETATM   24  C   UNL     1      -6.701   0.914 -34.288  1.00  0.00     0.035 A 
BRANCH  19  25
HETATM   25  O   UNL     1      -4.630  -0.208 -31.466  1.00  0.00    -0.354 OA
HETATM   26  C   UNL     1      -3.369  -0.872 -31.528  1.00  0.00     0.210 C 
ENDBRANCH  19  25
ENDBRANCH   1  18
TORSDOF 4
ENDMDL
MODEL 6
REMARK VINA RESULT:      -7.7      3.825      8.248
REMARK  4 active torsions:
REMARK  status: ('A' for Active; 'I' for Inactive)
REMARK    1  A    between atoms: O_2  and  C_3 
REMARK    2  A    between atoms: C_4  and  N_5 
REMARK    3  A    between atoms: N_8  and  C_9 
REMARK    4  A    between atoms: C_9  and  C_10 
ROOT
HETATM    1  N   UNL     1      -9.938   2.143 -33.278  1.00  0.00    -0.375 N 
HETATM    2  C   UNL     1      -8.870   2.751 -32.465  1.00  0.00     0.153 C 
HETATM    3  C   UNL     1      -8.219   1.683 -31.550  1.00  0.00     0.292 C 
HETATM    4  N   UNL     1      -7.704   0.472 -32.241  1.00  0.00     0.095 N 
HETATM    5  C   UNL     1      -8.797  -0.060 -33.098  1.00  0.00     0.292 C 
HETATM    6  C   UNL     1      -9.477   0.962 -34.043  1.00  0.00     0.153 C 
ENDROOT
BRANCH   4   7
HETATM    7  C   UNL     1      -6.494   0.790 -33.028  1.00  0.00     0.313 C 
BRANCH   7   8
HETATM    8  C   UNL     1      -5.350  -0.174 -32.791  1.00  0.00    -0.001 A 
HETATM    9  C   UNL     1      -5.168  -1.371 -33.504  1.00  0.00     0.070 A 
HETATM   10  C   UNL     1      -4.140  -2.271 -33.266  1.00  0.00     0.012 A 
HETATM   11  N   UNL     1      -5.879  -1.908 -34.549  1.00  0.00    -0.277 N 
HETATM   12  C   UNL     1      -4.342  -3.301 -34.214  1.00  0.00     0.152 A 
HETATM   13  C   UNL     1      -3.213  -2.000 -32.246  1.00  0.00     0.015 A 
HETATM   14  N   UNL     1      -5.402  -3.084 -34.997  1.00  0.00    -0.186 NA
HETATM   15  C   UNL     1      -3.367  -0.826 -31.500  1.00  0.00     0.002 A 
HETATM   16  C   UNL     1      -4.415   0.060 -31.764  1.00  0.00     0.011 A 
HETATM   17  H   UNL     1      -6.682  -1.484 -35.006  1.00  0.00     0.189 HD
ENDBRANCH   7   8
ENDBRANCH   4   7
BRANCH   1  18
HETATM   18  C   UNL     1     -10.832   2.967 -33.989  1.00  0.00     0.064 A 
HETATM   19  C   UNL     1     -12.229   2.771 -34.112  1.00  0.00     0.097 A 
HETATM   20  C   UNL     1     -13.019   3.685 -34.828  1.00  0.00     0.081 A 
HETATM   21  C   UNL     1     -12.428   4.765 -35.469  1.00  0.00     0.119 A 
HETATM   22  C   UNL     1     -11.061   4.962 -35.409  1.00  0.00     0.044 A 
HETATM   23  F   UNL     1     -13.193   5.626 -36.153  1.00  0.00    -0.206 F 
HETATM   24  C   UNL     1     -10.277   4.071 -34.677  1.00  0.00     0.035 A 
BRANCH  19  25
HETATM   25  O   UNL     1     -12.830   1.732 -33.441  1.00  0.00    -0.354 OA
HETATM   26  C   UNL     1     -13.266   0.671 -34.287  1.00  0.00     0.210 C 
ENDBRANCH  19  25
ENDBRANCH   1  18
TORSDOF 4
ENDMDL
MODEL 7
REMARK VINA RESULT:      -7.7      2.328      2.879
REMARK  4 active torsions:
REMARK  status: ('A' for Active; 'I' for Inactive)
REMARK    1  A    between atoms: O_2  and  C_3 
REMARK    2  A    between atoms: C_4  and  N_5 
REMARK    3  A    between atoms: N_8  and  C_9 
REMARK    4  A    between atoms: C_9  and  C_10 
ROOT
HETATM    1  N   UNL     1      -6.152   0.204 -32.675  1.00  0.00    -0.375 N 
HETATM    2  C   UNL     1      -6.342   0.162 -31.214  1.00  0.00     0.153 C 
HETATM    3  C   UNL     1      -6.278   1.593 -30.623  1.00  0.00     0.292 C 
HETATM    4  N   UNL     1      -7.209   2.581 -31.228  1.00  0.00     0.095 N 
HETATM    5  C   UNL     1      -7.024   2.533 -32.703  1.00  0.00     0.292 C 
HETATM    6  C   UNL     1      -7.091   1.128 -33.350  1.00  0.00     0.153 C 
ENDROOT
BRANCH   4   7
HETATM    7  C   UNL     1      -8.605   2.293 -30.840  1.00  0.00     0.313 C 
BRANCH   7   8
HETATM    8  C   UNL     1      -9.518   3.498 -30.940  1.00  0.00    -0.001 A 
HETATM    9  C   UNL     1     -10.680   3.544 -31.731  1.00  0.00     0.070 A 
HETATM   10  C   UNL     1     -11.499   4.657 -31.849  1.00  0.00     0.012 A 
HETATM   11  N   UNL     1     -11.272   2.578 -32.507  1.00  0.00    -0.277 N 
HETATM   12  C   UNL     1     -12.534   4.245 -32.719  1.00  0.00     0.152 A 
HETATM   13  C   UNL     1     -11.166   5.830 -31.154  1.00  0.00     0.015 A 
HETATM   14  N   UNL     1     -12.399   2.979 -33.124  1.00  0.00    -0.186 NA
HETATM   15  C   UNL     1     -10.008   5.834 -30.366  1.00  0.00     0.002 A 
HETATM   16  C   UNL     1      -9.203   4.696 -30.268  1.00  0.00     0.011 A 
HETATM   17  H   UNL     1     -10.952   1.620 -32.617  1.00  0.00     0.189 HD
ENDBRANCH   7   8
ENDBRANCH   4   7
BRANCH   1  18
HETATM   18  C   UNL     1      -5.918  -0.989 -33.385  1.00  0.00     0.064 A 
HETATM   19  C   UNL     1      -4.653  -1.572 -33.645  1.00  0.00     0.097 A 
HETATM   20  C   UNL     1      -4.554  -2.786 -34.343  1.00  0.00     0.081 A 
HETATM   21  C   UNL     1      -5.697  -3.402 -34.833  1.00  0.00     0.119 A 
HETATM   22  C   UNL     1      -6.944  -2.840 -34.639  1.00  0.00     0.044 A 
HETATM   23  F   UNL     1      -5.587  -4.557 -35.503  1.00  0.00    -0.206 F 
HETATM   24  C   UNL     1      -7.048  -1.647 -33.922  1.00  0.00     0.035 A 
BRANCH  19  25
HETATM   25  O   UNL     1      -3.520  -0.994 -33.122  1.00  0.00    -0.354 OA
HETATM   26  C   UNL     1      -3.053  -1.614 -31.925  1.00  0.00     0.210 C 
ENDBRANCH  19  25
ENDBRANCH   1  18
TORSDOF 4
ENDMDL
MODEL 8
REMARK VINA RESULT:      -7.6      4.094      8.558
REMARK  4 active torsions:
REMARK  status: ('A' for Active; 'I' for Inactive)
REMARK    1  A    between atoms: O_2  and  C_3 
REMARK    2  A    between atoms: C_4  and  N_5 
REMARK    3  A    between atoms: N_8  and  C_9 
REMARK    4  A    between atoms: C_9  and  C_10 
ROOT
HETATM    1  N   UNL     1     -10.521   2.409 -33.052  1.00  0.00    -0.375 N 
HETATM    2  C   UNL     1      -9.079   2.710 -33.040  1.00  0.00     0.153 C 
HETATM    3  C   UNL     1      -8.302   1.592 -32.299  1.00  0.00     0.292 C 
HETATM    4  N   UNL     1      -8.529   0.211 -32.801  1.00  0.00     0.095 N 
HETATM    5  C   UNL     1      -9.998  -0.014 -32.857  1.00  0.00     0.292 C 
HETATM    6  C   UNL     1     -10.823   1.066 -33.597  1.00  0.00     0.153 C 
ENDROOT
BRANCH   4   7
HETATM    7  C   UNL     1      -7.893   0.022 -34.121  1.00  0.00     0.313 C 
BRANCH   7   8
HETATM    8  C   UNL     1      -6.694  -0.904 -34.084  1.00  0.00    -0.001 A 
HETATM    9  C   UNL     1      -5.437  -0.546 -33.568  1.00  0.00     0.070 A 
HETATM   10  C   UNL     1      -4.329  -1.381 -33.564  1.00  0.00     0.012 A 
HETATM   11  N   UNL     1      -5.014   0.613 -32.963  1.00  0.00    -0.277 N 
HETATM   12  C   UNL     1      -3.312  -0.619 -32.946  1.00  0.00     0.152 A 
HETATM   13  C   UNL     1      -4.439  -2.668 -34.113  1.00  0.00     0.015 A 
HETATM   14  N   UNL     1      -3.724   0.598 -32.579  1.00  0.00    -0.186 NA
HETATM   15  C   UNL     1      -5.670  -3.061 -34.653  1.00  0.00     0.002 A 
HETATM   16  C   UNL     1      -6.767  -2.195 -34.643  1.00  0.00     0.011 A 
HETATM   17  H   UNL     1      -5.589   1.427 -32.766  1.00  0.00     0.189 HD
ENDBRANCH   7   8
ENDBRANCH   4   7
BRANCH   1  18
HETATM   18  C   UNL     1     -11.440   3.402 -33.441  1.00  0.00     0.064 A 
HETATM   19  C   UNL     1     -12.225   4.200 -32.573  1.00  0.00     0.097 A 
HETATM   20  C   UNL     1     -13.088   5.181 -33.087  1.00  0.00     0.081 A 
HETATM   21  C   UNL     1     -13.220   5.343 -34.458  1.00  0.00     0.119 A 
HETATM   22  C   UNL     1     -12.505   4.551 -35.338  1.00  0.00     0.044 A 
HETATM   23  F   UNL     1     -14.051   6.279 -34.935  1.00  0.00    -0.206 F 
HETATM   24  C   UNL     1     -11.627   3.593 -34.829  1.00  0.00     0.035 A 
BRANCH  19  25
HETATM   25  O   UNL     1     -12.065   4.080 -31.212  1.00  0.00    -0.354 OA
HETATM   26  C   UNL     1     -13.284   4.154 -30.476  1.00  0.00     0.210 C 
ENDBRANCH  19  25
ENDBRANCH   1  18
TORSDOF 4
ENDMDL
MODEL 9
REMARK VINA RESULT:      -7.6      3.538      6.033
REMARK  4 active torsions:
REMARK  status: ('A' for Active; 'I' for Inactive)
REMARK    1  A    between atoms: O_2  and  C_3 
REMARK    2  A    between atoms: C_4  and  N_5 
REMARK    3  A    between atoms: N_8  and  C_9 
REMARK    4  A    between atoms: C_9  and  C_10 
ROOT
HETATM    1  N   UNL     1      -6.572  -0.302 -33.227  1.00  0.00    -0.375 N 
HETATM    2  C   UNL     1      -6.083   0.955 -33.820  1.00  0.00     0.153 C 
HETATM    3  C   UNL     1      -6.943   2.149 -33.332  1.00  0.00     0.292 C 
HETATM    4  N   UNL     1      -7.061   2.295 -31.857  1.00  0.00     0.095 N 
HETATM    5  C   UNL     1      -7.490   0.982 -31.305  1.00  0.00     0.292 C 
HETATM    6  C   UNL     1      -6.658  -0.246 -31.750  1.00  0.00     0.153 C 
ENDROOT
BRANCH   4   7
HETATM    7  C   UNL     1      -5.783   2.747 -31.270  1.00  0.00     0.313 C 
BRANCH   7   8
HETATM    8  C   UNL     1      -5.929   3.955 -30.367  1.00  0.00    -0.001 A 
HETATM    9  C   UNL     1      -4.945   4.947 -30.211  1.00  0.00     0.070 A 
HETATM   10  C   UNL     1      -5.064   6.035 -29.359  1.00  0.00     0.012 A 
HETATM   11  N   UNL     1      -3.726   5.102 -30.824  1.00  0.00    -0.277 N 
HETATM   12  C   UNL     1      -3.864   6.760 -29.540  1.00  0.00     0.152 A 
HETATM   13  C   UNL     1      -6.225   6.175 -28.583  1.00  0.00     0.015 A 
HETATM   14  N   UNL     1      -3.044   6.194 -30.431  1.00  0.00    -0.186 NA
HETATM   15  C   UNL     1      -7.224   5.200 -28.694  1.00  0.00     0.002 A 
HETATM   16  C   UNL     1      -7.074   4.114 -29.562  1.00  0.00     0.011 A 
HETATM   17  H   UNL     1      -3.337   4.498 -31.542  1.00  0.00     0.189 HD
ENDBRANCH   7   8
ENDBRANCH   4   7
BRANCH   1  18
HETATM   18  C   UNL     1      -6.110  -1.536 -33.724  1.00  0.00     0.064 A 
HETATM   19  C   UNL     1      -4.762  -1.972 -33.754  1.00  0.00     0.097 A 
HETATM   20  C   UNL     1      -4.433  -3.243 -34.251  1.00  0.00     0.081 A 
HETATM   21  C   UNL     1      -5.422  -4.067 -34.768  1.00  0.00     0.119 A 
HETATM   22  C   UNL     1      -6.742  -3.657 -34.798  1.00  0.00     0.044 A 
HETATM   23  F   UNL     1      -5.093  -5.275 -35.244  1.00  0.00    -0.206 F 
HETATM   24  C   UNL     1      -7.076  -2.404 -34.281  1.00  0.00     0.035 A 
BRANCH  19  25
HETATM   25  O   UNL     1      -3.782  -1.183 -33.199  1.00  0.00    -0.354 OA
HETATM   26  C   UNL     1      -3.223  -1.711 -31.998  1.00  0.00     0.210 C 
ENDBRANCH  19  25
ENDBRANCH   1  18
TORSDOF 4
ENDMDL
MODEL 10
REMARK VINA RESULT:      -7.6      5.618      8.405
REMARK  4 active torsions:
REMARK  status: ('A' for Active; 'I' for Inactive)
REMARK    1  A    between atoms: O_2  and  C_3 
REMARK    2  A    between atoms: C_4  and  N_5 
REMARK    3  A    between atoms: N_8  and  C_9 
REMARK    4  A    between atoms: C_9  and  C_10 
ROOT
HETATM    1  N   UNL     1      -4.134   4.756 -31.878  1.00  0.00    -0.375 N 
HETATM    2  C   UNL     1      -4.929   4.411 -30.687  1.00  0.00     0.153 C 
HETATM    3  C   UNL     1      -6.343   3.931 -31.107  1.00  0.00     0.292 C 
HETATM    4  N   UNL     1      -6.378   2.811 -32.083  1.00  0.00     0.095 N 
HETATM    5  C   UNL     1      -5.506   3.183 -33.230  1.00  0.00     0.292 C 
HETATM    6  C   UNL     1      -4.077   3.658 -32.870  1.00  0.00     0.153 C 
ENDROOT
BRANCH   4   7
HETATM    7  C   UNL     1      -5.945   1.549 -31.450  1.00  0.00     0.313 C 
BRANCH   7   8
HETATM    8  C   UNL     1      -6.068   0.345 -32.361  1.00  0.00    -0.001 A 
HETATM    9  C   UNL     1      -5.081  -0.647 -32.495  1.00  0.00     0.070 A 
HETATM   10  C   UNL     1      -5.179  -1.733 -33.353  1.00  0.00     0.012 A 
HETATM   11  N   UNL     1      -3.878  -0.805 -31.852  1.00  0.00    -0.277 N 
HETATM   12  C   UNL     1      -3.984  -2.458 -33.146  1.00  0.00     0.152 A 
HETATM   13  C   UNL     1      -6.321  -1.869 -34.159  1.00  0.00     0.015 A 
HETATM   14  N   UNL     1      -3.187  -1.896 -32.233  1.00  0.00    -0.186 NA
HETATM   15  C   UNL     1      -7.322  -0.895 -34.069  1.00  0.00     0.002 A 
HETATM   16  C   UNL     1      -7.193   0.188 -33.195  1.00  0.00     0.011 A 
HETATM   17  H   UNL     1      -3.506  -0.203 -31.123  1.00  0.00     0.189 HD
ENDBRANCH   7   8
ENDBRANCH   4   7
BRANCH   1  18
HETATM   18  C   UNL     1      -2.919   5.452 -31.731  1.00  0.00     0.064 A 
HETATM   19  C   UNL     1      -2.758   6.860 -31.725  1.00  0.00     0.097 A 
HETATM   20  C   UNL     1      -1.491   7.435 -31.540  1.00  0.00     0.081 A 
HETATM   21  C   UNL     1      -0.371   6.626 -31.413  1.00  0.00     0.119 A 
HETATM   22  C   UNL     1      -0.482   5.249 -31.459  1.00  0.00     0.044 A 
HETATM   23  F   UNL     1       0.833   7.188 -31.242  1.00  0.00    -0.206 F 
HETATM   24  C   UNL     1      -1.744   4.674 -31.616  1.00  0.00     0.035 A 
BRANCH  19  25
HETATM   25  O   UNL     1      -3.868   7.669 -31.802  1.00  0.00    -0.354 OA
HETATM   26  C   UNL     1      -4.272   8.219 -30.550  1.00  0.00     0.210 C 
ENDBRANCH  19  25
ENDBRANCH   1  18
TORSDOF 4
ENDMDL
