MODEL 1
REMARK VINA RESULT:      -9.2      0.000      0.000
REMARK  3 active torsions:
REMARK  status: ('A' for Active; 'I' for Inactive)
REMARK    1  A    between atoms: C_4  and  C_5 
REMARK    2  A    between atoms: C_11  and  C_12 
REMARK    3  A    between atoms: C_21  and  N_22 
ROOT
HETATM    1  C   UNL     1     -40.343  52.757 -51.046  1.00  0.00     0.098 A 
HETATM    2  N   UNL     1     -40.259  52.465 -49.731  1.00  0.00    -0.172 NA
HETATM    3  N   UNL     1     -40.609  53.601 -49.102  1.00  0.00    -0.256 N 
HETATM    4  H   UNL     1     -40.607  53.620 -48.088  1.00  0.00     0.191 HD
HETATM    5  C   UNL     1     -40.916  54.601 -49.961  1.00  0.00     0.175 A 
HETATM    6  C   UNL     1     -40.794  54.095 -51.227  1.00  0.00     0.036 A 
HETATM    7  C   UNL     1     -41.163  54.947 -52.412  1.00  0.00     0.077 C 
HETATM    8  C   UNL     1     -41.224  56.418 -51.948  1.00  0.00     0.076 C 
HETATM    9  C   UNL     1     -41.026  57.431 -52.932  1.00  0.00     0.100 C 
HETATM   10  N   UNL     1     -40.802  58.265 -53.706  1.00  0.00    -0.192 NA
HETATM   11  C   UNL     1     -41.298  56.780 -50.634  1.00  0.00     0.140 C 
HETATM   12  O   UNL     1     -41.265  55.829 -49.600  1.00  0.00    -0.279 OA
ENDROOT
BRANCH   7  13
HETATM   13  C   UNL     1     -42.456  54.368 -53.091  1.00  0.00     0.003 C 
HETATM   14  C   UNL     1     -43.729  55.216 -52.885  1.00  0.00     0.032 C 
HETATM   15  C   UNL     1     -43.962  56.244 -53.946  1.00  0.00    -0.030 C 
HETATM   16  C   UNL     1     -43.412  56.175 -55.164  1.00  0.00    -0.031 C 
HETATM   17  C   UNL     1     -42.518  55.062 -55.611  1.00  0.00     0.027 C 
HETATM   18  C   UNL     1     -42.290  53.962 -54.570  1.00  0.00     0.009 C 
ENDBRANCH   7  13
BRANCH  11  19
HETATM   19  N   UNL     1     -41.350  58.071 -50.157  1.00  0.00    -0.282 NA
HETATM   20  H   UNL     1     -41.054  58.795 -50.807  1.00  0.00     0.126 HD
HETATM   21  H   UNL     1     -40.923  58.157 -49.240  1.00  0.00     0.126 HD
ENDBRANCH  11  19
BRANCH   1  22
HETATM   22  C   UNL     1     -40.024  51.747 -52.053  1.00  0.00    -0.005 A 
HETATM   23  C   UNL     1     -39.826  50.413 -51.668  1.00  0.00     0.014 A 
HETATM   24  C   UNL     1     -39.525  49.436 -52.619  1.00  0.00     0.001 A 
HETATM   25  C   UNL     1     -39.415  49.784 -53.964  1.00  0.00     0.000 A 
HETATM   26  C   UNL     1     -39.598  51.108 -54.357  1.00  0.00     0.001 A 
HETATM   27  C   UNL     1     -39.898  52.087 -53.406  1.00  0.00     0.014 A 
ENDBRANCH   1  22
TORSDOF 3
ENDMDL
MODEL 2
REMARK VINA RESULT:      -9.1      0.394      1.059
REMARK  3 active torsions:
REMARK  status: ('A' for Active; 'I' for Inactive)
REMARK    1  A    between atoms: C_4  and  C_5 
REMARK    2  A    between atoms: C_11  and  C_12 
REMARK    3  A    between atoms: C_21  and  N_22 
ROOT
HETATM    1  C   UNL     1     -40.401  52.940 -50.639  1.00  0.00     0.098 A 
HETATM    2  N   UNL     1     -40.357  52.767 -49.302  1.00  0.00    -0.172 NA
HETATM    3  N   UNL     1     -40.726  53.954 -48.788  1.00  0.00    -0.256 N 
HETATM    4  H   UNL     1     -40.755  54.064 -47.781  1.00  0.00     0.191 HD
HETATM    5  C   UNL     1     -41.007  54.873 -49.742  1.00  0.00     0.175 A 
HETATM    6  C   UNL     1     -40.846  54.256 -50.953  1.00  0.00     0.036 A 
HETATM    7  C   UNL     1     -41.179  54.996 -52.221  1.00  0.00     0.077 C 
HETATM    8  C   UNL     1     -41.254  56.503 -51.892  1.00  0.00     0.076 C 
HETATM    9  C   UNL     1     -41.026  57.424 -52.957  1.00  0.00     0.100 C 
HETATM   10  N   UNL     1     -40.779  58.186 -53.796  1.00  0.00    -0.192 NA
HETATM   11  C   UNL     1     -41.368  56.981 -50.619  1.00  0.00     0.140 C 
HETATM   12  O   UNL     1     -41.366  56.127 -49.504  1.00  0.00    -0.279 OA
ENDROOT
BRANCH   7  13
HETATM   13  C   UNL     1     -42.451  54.355 -52.884  1.00  0.00     0.003 C 
HETATM   14  C   UNL     1     -43.726  55.220 -52.805  1.00  0.00     0.032 C 
HETATM   15  C   UNL     1     -43.918  56.140 -53.969  1.00  0.00    -0.030 C 
HETATM   16  C   UNL     1     -43.328  55.952 -55.155  1.00  0.00    -0.031 C 
HETATM   17  C   UNL     1     -42.424  54.799 -55.461  1.00  0.00     0.027 C 
HETATM   18  C   UNL     1     -42.236  53.807 -54.310  1.00  0.00     0.009 C 
ENDBRANCH   7  13
BRANCH  11  19
HETATM   19  N   UNL     1     -41.435  58.309 -50.262  1.00  0.00    -0.282 NA
HETATM   20  H   UNL     1     -40.915  58.953 -50.853  1.00  0.00     0.126 HD
HETATM   21  H   UNL     1     -41.262  58.448 -49.271  1.00  0.00     0.126 HD
ENDBRANCH  11  19
BRANCH   1  22
HETATM   22  C   UNL     1     -40.051  51.845 -51.542  1.00  0.00    -0.005 A 
HETATM   23  C   UNL     1     -39.827  52.103 -52.902  1.00  0.00     0.014 A 
HETATM   24  C   UNL     1     -39.487  51.068 -53.775  1.00  0.00     0.001 A 
HETATM   25  C   UNL     1     -39.371  49.764 -53.298  1.00  0.00     0.000 A 
HETATM   26  C   UNL     1     -39.603  49.493 -51.951  1.00  0.00     0.001 A 
HETATM   27  C   UNL     1     -39.944  50.528 -51.076  1.00  0.00     0.014 A 
ENDBRANCH   1  22
TORSDOF 3
ENDMDL
MODEL 3
REMARK VINA RESULT:      -8.5      2.839      4.590
REMARK  3 active torsions:
REMARK  status: ('A' for Active; 'I' for Inactive)
REMARK    1  A    between atoms: C_4  and  C_5 
REMARK    2  A    between atoms: C_11  and  C_12 
REMARK    3  A    between atoms: C_21  and  N_22 
ROOT
HETATM    1  C   UNL     1     -42.185  54.259 -54.190  1.00  0.00     0.098 A 
HETATM    2  N   UNL     1     -42.436  53.888 -55.463  1.00  0.00    -0.172 NA
HETATM    3  N   UNL     1     -43.215  54.866 -55.960  1.00  0.00    -0.256 N 
HETATM    4  H   UNL     1     -43.542  54.793 -56.917  1.00  0.00     0.191 HD
HETATM    5  C   UNL     1     -43.466  55.844 -55.058  1.00  0.00     0.175 A 
HETATM    6  C   UNL     1     -42.794  55.516 -53.912  1.00  0.00     0.036 A 
HETATM    7  C   UNL     1     -42.798  56.465 -52.743  1.00  0.00     0.077 C 
HETATM    8  C   UNL     1     -43.947  57.475 -52.949  1.00  0.00     0.076 C 
HETATM    9  C   UNL     1     -44.488  58.107 -51.790  1.00  0.00     0.100 C 
HETATM   10  N   UNL     1     -44.983  58.580 -50.854  1.00  0.00    -0.192 NA
HETATM   11  C   UNL     1     -44.562  57.667 -54.152  1.00  0.00     0.140 C 
HETATM   12  O   UNL     1     -44.227  56.906 -55.285  1.00  0.00    -0.279 OA
ENDROOT
BRANCH   7  13
HETATM   13  C   UNL     1     -41.359  57.063 -52.548  1.00  0.00     0.003 C 
HETATM   14  C   UNL     1     -41.021  58.248 -53.477  1.00  0.00     0.032 C 
HETATM   15  C   UNL     1     -41.359  59.591 -52.910  1.00  0.00    -0.030 C 
HETATM   16  C   UNL     1     -41.520  59.811 -51.599  1.00  0.00    -0.031 C 
HETATM   17  C   UNL     1     -41.366  58.753 -50.553  1.00  0.00     0.027 C 
HETATM   18  C   UNL     1     -40.974  57.372 -51.086  1.00  0.00     0.009 C 
ENDBRANCH   7  13
BRANCH  11  19
HETATM   19  N   UNL     1     -45.592  58.547 -54.398  1.00  0.00    -0.282 NA
HETATM   20  H   UNL     1     -46.507  58.265 -54.054  1.00  0.00     0.126 HD
HETATM   21  H   UNL     1     -45.607  58.859 -55.364  1.00  0.00     0.126 HD
ENDBRANCH  11  19
BRANCH   1  22
HETATM   22  C   UNL     1     -41.360  53.421 -53.322  1.00  0.00    -0.005 A 
HETATM   23  C   UNL     1     -40.511  52.456 -53.881  1.00  0.00     0.014 A 
HETATM   24  C   UNL     1     -39.712  51.652 -53.066  1.00  0.00     0.001 A 
HETATM   25  C   UNL     1     -39.760  51.801 -51.681  1.00  0.00     0.000 A 
HETATM   26  C   UNL     1     -40.609  52.749 -51.112  1.00  0.00     0.001 A 
HETATM   27  C   UNL     1     -41.409  53.553 -51.928  1.00  0.00     0.014 A 
ENDBRANCH   1  22
TORSDOF 3
ENDMDL
MODEL 4
REMARK VINA RESULT:      -8.3      2.032      3.059
REMARK  3 active torsions:
REMARK  status: ('A' for Active; 'I' for Inactive)
REMARK    1  A    between atoms: C_4  and  C_5 
REMARK    2  A    between atoms: C_11  and  C_12 
REMARK    3  A    between atoms: C_21  and  N_22 
ROOT
HETATM    1  C   UNL     1     -41.312  55.602 -51.981  1.00  0.00     0.098 A 
HETATM    2  N   UNL     1     -41.362  55.668 -50.635  1.00  0.00    -0.172 NA
HETATM    3  N   UNL     1     -41.836  56.898 -50.366  1.00  0.00    -0.256 N 
HETATM    4  H   UNL     1     -41.948  57.179 -49.399  1.00  0.00     0.191 HD
HETATM    5  C   UNL     1     -42.093  57.615 -51.485  1.00  0.00     0.175 A 
HETATM    6  C   UNL     1     -41.805  56.809 -52.554  1.00  0.00     0.036 A 
HETATM    7  C   UNL     1     -42.081  57.293 -53.953  1.00  0.00     0.077 C 
HETATM    8  C   UNL     1     -42.265  58.825 -53.904  1.00  0.00     0.076 C 
HETATM    9  C   UNL     1     -42.008  59.560 -55.098  1.00  0.00     0.100 C 
HETATM   10  N   UNL     1     -41.741  60.180 -56.042  1.00  0.00    -0.192 NA
HETATM   11  C   UNL     1     -42.504  59.508 -52.747  1.00  0.00     0.140 C 
HETATM   12  O   UNL     1     -42.540  58.863 -51.499  1.00  0.00    -0.279 OA
ENDROOT
BRANCH   7  13
HETATM   13  C   UNL     1     -43.259  56.460 -54.573  1.00  0.00     0.003 C 
HETATM   14  C   UNL     1     -44.669  56.999 -54.252  1.00  0.00     0.032 C 
HETATM   15  C   UNL     1     -45.196  57.977 -55.253  1.00  0.00    -0.030 C 
HETATM   16  C   UNL     1     -44.732  58.065 -56.506  1.00  0.00    -0.031 C 
HETATM   17  C   UNL     1     -43.649  57.189 -57.053  1.00  0.00     0.027 C 
HETATM   18  C   UNL     1     -43.112  56.141 -56.075  1.00  0.00     0.009 C 
ENDBRANCH   7  13
BRANCH  11  19
HETATM   19  N   UNL     1     -42.673  60.871 -52.638  1.00  0.00    -0.282 NA
HETATM   20  H   UNL     1     -42.751  61.232 -51.690  1.00  0.00     0.126 HD
HETATM   21  H   UNL     1     -43.397  61.218 -53.259  1.00  0.00     0.126 HD
ENDBRANCH  11  19
BRANCH   1  22
HETATM   22  C   UNL     1     -40.832  54.393 -52.648  1.00  0.00    -0.005 A 
HETATM   23  C   UNL     1     -40.548  53.245 -51.896  1.00  0.00     0.014 A 
HETATM   24  C   UNL     1     -40.094  52.081 -52.519  1.00  0.00     0.001 A 
HETATM   25  C   UNL     1     -39.915  52.055 -53.901  1.00  0.00     0.000 A 
HETATM   26  C   UNL     1     -40.183  53.194 -54.658  1.00  0.00     0.001 A 
HETATM   27  C   UNL     1     -40.637  54.360 -54.035  1.00  0.00     0.014 A 
ENDBRANCH   1  22
TORSDOF 3
ENDMDL
MODEL 5
REMARK VINA RESULT:      -7.9      3.750      7.183
REMARK  3 active torsions:
REMARK  status: ('A' for Active; 'I' for Inactive)
REMARK    1  A    between atoms: C_4  and  C_5 
REMARK    2  A    between atoms: C_11  and  C_12 
REMARK    3  A    between atoms: C_21  and  N_22 
ROOT
HETATM    1  C   UNL     1     -43.099  58.073 -58.244  1.00  0.00     0.098 A 
HETATM    2  N   UNL     1     -42.574  59.111 -58.928  1.00  0.00    -0.172 NA
HETATM    3  N   UNL     1     -41.936  59.848 -58.001  1.00  0.00    -0.256 N 
HETATM    4  H   UNL     1     -41.467  60.699 -58.290  1.00  0.00     0.191 HD
HETATM    5  C   UNL     1     -42.029  59.320 -56.758  1.00  0.00     0.175 A 
HETATM    6  C   UNL     1     -42.740  58.155 -56.869  1.00  0.00     0.036 A 
HETATM    7  C   UNL     1     -42.934  57.279 -55.660  1.00  0.00     0.077 C 
HETATM    8  C   UNL     1     -42.617  58.116 -54.402  1.00  0.00     0.076 C 
HETATM    9  C   UNL     1     -43.215  57.714 -53.172  1.00  0.00     0.100 C 
HETATM   10  N   UNL     1     -43.744  57.440 -52.177  1.00  0.00    -0.192 NA
HETATM   11  C   UNL     1     -41.931  59.295 -54.448  1.00  0.00     0.140 C 
HETATM   12  O   UNL     1     -41.513  59.863 -55.664  1.00  0.00    -0.279 OA
ENDROOT
BRANCH   7  13
HETATM   13  C   UNL     1     -42.122  55.946 -55.843  1.00  0.00     0.003 C 
HETATM   14  C   UNL     1     -40.933  55.777 -54.874  1.00  0.00     0.032 C 
HETATM   15  C   UNL     1     -41.274  55.073 -53.598  1.00  0.00    -0.030 C 
HETATM   16  C   UNL     1     -42.347  54.284 -53.463  1.00  0.00    -0.031 C 
HETATM   17  C   UNL     1     -43.316  54.001 -54.567  1.00  0.00     0.027 C 
HETATM   18  C   UNL     1     -42.979  54.665 -55.905  1.00  0.00     0.009 C 
ENDBRANCH   7  13
BRANCH  11  19
HETATM   19  N   UNL     1     -41.622  60.089 -53.366  1.00  0.00    -0.282 NA
HETATM   20  H   UNL     1     -41.893  59.722 -52.457  1.00  0.00     0.126 HD
HETATM   21  H   UNL     1     -41.901  61.054 -53.507  1.00  0.00     0.126 HD
ENDBRANCH  11  19
BRANCH   1  22
HETATM   22  C   UNL     1     -43.881  57.049 -58.933  1.00  0.00    -0.005 A 
HETATM   23  C   UNL     1     -45.245  57.260 -59.183  1.00  0.00     0.014 A 
HETATM   24  C   UNL     1     -46.005  56.294 -59.846  1.00  0.00     0.001 A 
HETATM   25  C   UNL     1     -45.409  55.104 -60.260  1.00  0.00     0.000 A 
HETATM   26  C   UNL     1     -44.057  54.878 -60.007  1.00  0.00     0.001 A 
HETATM   27  C   UNL     1     -43.297  55.844 -59.343  1.00  0.00     0.014 A 
ENDBRANCH   1  22
TORSDOF 3
ENDMDL
MODEL 6
REMARK VINA RESULT:      -7.8      3.137      4.851
REMARK  3 active torsions:
REMARK  status: ('A' for Active; 'I' for Inactive)
REMARK    1  A    between atoms: C_4  and  C_5 
REMARK    2  A    between atoms: C_11  and  C_12 
REMARK    3  A    between atoms: C_21  and  N_22 
ROOT
HETATM    1  C   UNL     1     -41.025  54.086 -52.818  1.00  0.00     0.098 A 
HETATM    2  N   UNL     1     -40.513  53.033 -53.488  1.00  0.00    -0.172 NA
HETATM    3  N   UNL     1     -40.834  53.253 -54.776  1.00  0.00    -0.256 N 
HETATM    4  H   UNL     1     -40.556  52.572 -55.473  1.00  0.00     0.191 HD
HETATM    5  C   UNL     1     -41.524  54.404 -54.953  1.00  0.00     0.175 A 
HETATM    6  C   UNL     1     -41.641  54.995 -53.724  1.00  0.00     0.036 A 
HETATM    7  C   UNL     1     -42.284  56.352 -53.604  1.00  0.00     0.077 C 
HETATM    8  C   UNL     1     -43.074  56.626 -54.902  1.00  0.00     0.076 C 
HETATM    9  C   UNL     1     -44.160  57.548 -54.832  1.00  0.00     0.100 C 
HETATM   10  N   UNL     1     -45.087  58.244 -54.779  1.00  0.00    -0.192 NA
HETATM   11  C   UNL     1     -42.882  55.919 -56.052  1.00  0.00     0.140 C 
HETATM   12  O   UNL     1     -41.983  54.840 -56.118  1.00  0.00    -0.279 OA
ENDROOT
BRANCH   7  13
HETATM   13  C   UNL     1     -41.197  57.413 -53.202  1.00  0.00     0.003 C 
HETATM   14  C   UNL     1     -41.233  58.717 -54.026  1.00  0.00     0.032 C 
HETATM   15  C   UNL     1     -42.101  59.788 -53.446  1.00  0.00    -0.030 C 
HETATM   16  C   UNL     1     -42.463  59.818 -52.158  1.00  0.00    -0.031 C 
HETATM   17  C   UNL     1     -42.033  58.801 -51.149  1.00  0.00     0.027 C 
HETATM   18  C   UNL     1     -41.105  57.710 -51.691  1.00  0.00     0.009 C 
ENDBRANCH   7  13
BRANCH  11  19
HETATM   19  N   UNL     1     -43.556  56.112 -57.238  1.00  0.00    -0.282 NA
HETATM   20  H   UNL     1     -44.517  56.434 -57.153  1.00  0.00     0.126 HD
HETATM   21  H   UNL     1     -43.452  55.324 -57.869  1.00  0.00     0.126 HD
ENDBRANCH  11  19
BRANCH   1  22
HETATM   22  C   UNL     1     -40.874  54.189 -51.368  1.00  0.00    -0.005 A 
HETATM   23  C   UNL     1     -39.621  53.970 -50.778  1.00  0.00     0.014 A 
HETATM   24  C   UNL     1     -39.459  54.069 -49.394  1.00  0.00     0.001 A 
HETATM   25  C   UNL     1     -40.551  54.383 -48.587  1.00  0.00     0.000 A 
HETATM   26  C   UNL     1     -41.804  54.592 -49.161  1.00  0.00     0.001 A 
HETATM   27  C   UNL     1     -41.966  54.491 -50.545  1.00  0.00     0.014 A 
ENDBRANCH   1  22
TORSDOF 3
ENDMDL
MODEL 7
REMARK VINA RESULT:      -7.8      3.059      4.974
REMARK  3 active torsions:
REMARK  status: ('A' for Active; 'I' for Inactive)
REMARK    1  A    between atoms: C_4  and  C_5 
REMARK    2  A    between atoms: C_11  and  C_12 
REMARK    3  A    between atoms: C_21  and  N_22 
ROOT
HETATM    1  C   UNL     1     -41.287  56.907 -53.537  1.00  0.00     0.098 A 
HETATM    2  N   UNL     1     -41.200  57.512 -52.335  1.00  0.00    -0.172 NA
HETATM    3  N   UNL     1     -41.545  58.792 -52.567  1.00  0.00    -0.256 N 
HETATM    4  H   UNL     1     -41.540  59.449 -51.795  1.00  0.00     0.191 HD
HETATM    5  C   UNL     1     -41.853  59.023 -53.865  1.00  0.00     0.175 A 
HETATM    6  C   UNL     1     -41.735  57.829 -54.524  1.00  0.00     0.036 A 
HETATM    7  C   UNL     1     -42.107  57.739 -55.981  1.00  0.00     0.077 C 
HETATM    8  C   UNL     1     -42.162  59.172 -56.553  1.00  0.00     0.076 C 
HETATM    9  C   UNL     1     -41.965  59.332 -57.956  1.00  0.00     0.100 C 
HETATM   10  N   UNL     1     -41.742  59.486 -59.084  1.00  0.00    -0.192 NA
HETATM   11  C   UNL     1     -42.232  60.284 -55.766  1.00  0.00     0.140 C 
HETATM   12  O   UNL     1     -42.197  60.203 -54.363  1.00  0.00    -0.279 OA
ENDROOT
BRANCH   7  13
HETATM   13  C   UNL     1     -43.403  56.866 -56.138  1.00  0.00     0.003 C 
HETATM   14  C   UNL     1     -44.666  57.653 -56.544  1.00  0.00     0.032 C 
HETATM   15  C   UNL     1     -44.883  57.752 -58.020  1.00  0.00    -0.030 C 
HETATM   16  C   UNL     1     -44.328  56.908 -58.899  1.00  0.00    -0.031 C 
HETATM   17  C   UNL     1     -43.445  55.765 -58.510  1.00  0.00     0.027 C 
HETATM   18  C   UNL     1     -43.234  55.599 -57.002  1.00  0.00     0.009 C 
ENDBRANCH   7  13
BRANCH  11  19
HETATM   19  N   UNL     1     -42.279  61.586 -56.214  1.00  0.00    -0.282 NA
HETATM   20  H   UNL     1     -41.852  62.279 -55.604  1.00  0.00     0.126 HD
HETATM   21  H   UNL     1     -43.208  61.848 -56.528  1.00  0.00     0.126 HD
ENDBRANCH  11  19
BRANCH   1  22
HETATM   22  C   UNL     1     -40.973  55.486 -53.677  1.00  0.00    -0.005 A 
HETATM   23  C   UNL     1     -40.349  55.019 -54.842  1.00  0.00     0.014 A 
HETATM   24  C   UNL     1     -40.037  53.666 -54.989  1.00  0.00     0.001 A 
HETATM   25  C   UNL     1     -40.353  52.765 -53.973  1.00  0.00     0.000 A 
HETATM   26  C   UNL     1     -40.985  53.215 -52.816  1.00  0.00     0.001 A 
HETATM   27  C   UNL     1     -41.297  54.569 -52.669  1.00  0.00     0.014 A 
ENDBRANCH   1  22
TORSDOF 3
ENDMDL
MODEL 8
REMARK VINA RESULT:      -7.6     13.651     16.686
REMARK  3 active torsions:
REMARK  status: ('A' for Active; 'I' for Inactive)
REMARK    1  A    between atoms: C_4  and  C_5 
REMARK    2  A    between atoms: C_11  and  C_12 
REMARK    3  A    between atoms: C_21  and  N_22 
ROOT
HETATM    1  C   UNL     1     -35.453  41.437 -53.767  1.00  0.00     0.098 A 
HETATM    2  N   UNL     1     -35.787  42.415 -52.901  1.00  0.00    -0.172 NA
HETATM    3  N   UNL     1     -34.883  42.322 -51.909  1.00  0.00    -0.256 N 
HETATM    4  H   UNL     1     -34.945  42.962 -51.126  1.00  0.00     0.191 HD
HETATM    5  C   UNL     1     -33.986  41.327 -52.111  1.00  0.00     0.175 A 
HETATM    6  C   UNL     1     -34.291  40.750 -53.315  1.00  0.00     0.036 A 
HETATM    7  C   UNL     1     -33.408  39.664 -53.869  1.00  0.00     0.077 C 
HETATM    8  C   UNL     1     -32.529  39.125 -52.720  1.00  0.00     0.076 C 
HETATM    9  C   UNL     1     -32.023  37.798 -52.841  1.00  0.00     0.100 C 
HETATM   10  N   UNL     1     -31.658  36.698 -52.893  1.00  0.00    -0.192 NA
HETATM   11  C   UNL     1     -32.350  39.795 -51.545  1.00  0.00     0.140 C 
HETATM   12  O   UNL     1     -33.010  41.006 -51.274  1.00  0.00    -0.279 OA
ENDROOT
BRANCH   7  13
HETATM   13  C   UNL     1     -32.657  40.197 -55.142  1.00  0.00     0.003 C 
HETATM   14  C   UNL     1     -31.225  39.653 -55.321  1.00  0.00     0.032 C 
HETATM   15  C   UNL     1     -31.140  38.398 -56.132  1.00  0.00    -0.030 C 
HETATM   16  C   UNL     1     -32.098  38.011 -56.982  1.00  0.00    -0.031 C 
HETATM   17  C   UNL     1     -33.351  38.789 -57.233  1.00  0.00     0.027 C 
HETATM   18  C   UNL     1     -33.458  40.105 -56.457  1.00  0.00     0.009 C 
ENDBRANCH   7  13
BRANCH  11  19
HETATM   19  N   UNL     1     -31.584  39.367 -50.483  1.00  0.00    -0.282 NA
HETATM   20  H   UNL     1     -31.215  38.422 -50.557  1.00  0.00     0.126 HD
HETATM   21  H   UNL     1     -32.030  39.553 -49.590  1.00  0.00     0.126 HD
ENDBRANCH  11  19
BRANCH   1  22
HETATM   22  C   UNL     1     -36.232  41.227 -54.986  1.00  0.00    -0.005 A 
HETATM   23  C   UNL     1     -36.440  42.292 -55.875  1.00  0.00     0.014 A 
HETATM   24  C   UNL     1     -37.176  42.107 -57.047  1.00  0.00     0.001 A 
HETATM   25  C   UNL     1     -37.718  40.856 -57.339  1.00  0.00     0.000 A 
HETATM   26  C   UNL     1     -37.528  39.793 -56.457  1.00  0.00     0.001 A 
HETATM   27  C   UNL     1     -36.791  39.978 -55.284  1.00  0.00     0.014 A 
ENDBRANCH   1  22
TORSDOF 3
ENDMDL
MODEL 9
REMARK VINA RESULT:      -7.6      3.332      5.483
REMARK  3 active torsions:
REMARK  status: ('A' for Active; 'I' for Inactive)
REMARK    1  A    between atoms: C_4  and  C_5 
REMARK    2  A    between atoms: C_11  and  C_12 
REMARK    3  A    between atoms: C_21  and  N_22 
ROOT
HETATM    1  C   UNL     1     -43.416  55.889 -53.696  1.00  0.00     0.098 A 
HETATM    2  N   UNL     1     -43.961  55.536 -54.879  1.00  0.00    -0.172 NA
HETATM    3  N   UNL     1     -44.721  56.586 -55.237  1.00  0.00    -0.256 N 
HETATM    4  H   UNL     1     -45.244  56.540 -56.103  1.00  0.00     0.191 HD
HETATM    5  C   UNL     1     -44.679  57.594 -54.334  1.00  0.00     0.175 A 
HETATM    6  C   UNL     1     -43.822  57.206 -53.339  1.00  0.00     0.036 A 
HETATM    7  C   UNL     1     -43.488  58.161 -52.224  1.00  0.00     0.077 C 
HETATM    8  C   UNL     1     -44.545  59.286 -52.221  1.00  0.00     0.076 C 
HETATM    9  C   UNL     1     -44.767  59.982 -50.997  1.00  0.00     0.100 C 
HETATM   10  N   UNL     1     -45.008  60.514 -49.994  1.00  0.00    -0.192 NA
HETATM   11  C   UNL     1     -45.372  59.531 -53.279  1.00  0.00     0.140 C 
HETATM   12  O   UNL     1     -45.358  58.729 -54.432  1.00  0.00    -0.279 OA
ENDROOT
BRANCH   7  13
HETATM   13  C   UNL     1     -41.986  58.605 -52.345  1.00  0.00     0.003 C 
HETATM   14  C   UNL     1     -41.719  60.082 -51.991  1.00  0.00     0.032 C 
HETATM   15  C   UNL     1     -41.389  60.320 -50.551  1.00  0.00    -0.030 C 
HETATM   16  C   UNL     1     -40.935  59.360 -49.737  1.00  0.00    -0.031 C 
HETATM   17  C   UNL     1     -40.691  57.949 -50.170  1.00  0.00     0.027 C 
HETATM   18  C   UNL     1     -40.973  57.672 -51.650  1.00  0.00     0.009 C 
ENDBRANCH   7  13
BRANCH  11  19
HETATM   19  N   UNL     1     -46.335  60.514 -53.337  1.00  0.00    -0.282 NA
HETATM   20  H   UNL     1     -45.999  61.469 -53.241  1.00  0.00     0.126 HD
HETATM   21  H   UNL     1     -47.129  60.307 -52.738  1.00  0.00     0.126 HD
ENDBRANCH  11  19
BRANCH   1  22
HETATM   22  C   UNL     1     -42.520  54.976 -52.989  1.00  0.00    -0.005 A 
HETATM   23  C   UNL     1     -42.832  54.558 -51.688  1.00  0.00     0.014 A 
HETATM   24  C   UNL     1     -41.988  53.682 -51.001  1.00  0.00     0.001 A 
HETATM   25  C   UNL     1     -40.822  53.220 -51.608  1.00  0.00     0.000 A 
HETATM   26  C   UNL     1     -40.495  53.638 -52.896  1.00  0.00     0.001 A 
HETATM   27  C   UNL     1     -41.338  54.516 -53.583  1.00  0.00     0.014 A 
ENDBRANCH   1  22
TORSDOF 3
ENDMDL
MODEL 10
REMARK VINA RESULT:      -7.5     13.708     16.601
REMARK  3 active torsions:
REMARK  status: ('A' for Active; 'I' for Inactive)
REMARK    1  A    between atoms: C_4  and  C_5 
REMARK    2  A    between atoms: C_11  and  C_12 
REMARK    3  A    between atoms: C_21  and  N_22 
ROOT
HETATM    1  C   UNL     1     -33.700  40.545 -55.907  1.00  0.00     0.098 A 
HETATM    2  N   UNL     1     -34.059  41.396 -56.891  1.00  0.00    -0.172 NA
HETATM    3  N   UNL     1     -35.089  42.096 -56.383  1.00  0.00    -0.256 N 
HETATM    4  H   UNL     1     -35.536  42.800 -56.960  1.00  0.00     0.191 HD
HETATM    5  C   UNL     1     -35.397  41.729 -55.117  1.00  0.00     0.175 A 
HETATM    6  C   UNL     1     -34.506  40.756 -54.753  1.00  0.00     0.036 A 
HETATM    7  C   UNL     1     -34.529  40.206 -53.351  1.00  0.00     0.077 C 
HETATM    8  C   UNL     1     -35.879  40.586 -52.707  1.00  0.00     0.076 C 
HETATM    9  C   UNL     1     -36.357  39.770 -51.640  1.00  0.00     0.100 C 
HETATM   10  N   UNL     1     -36.791  39.079 -50.816  1.00  0.00    -0.192 NA
HETATM   11  C   UNL     1     -36.696  41.556 -53.211  1.00  0.00     0.140 C 
HETATM   12  O   UNL     1     -36.387  42.242 -54.398  1.00  0.00    -0.279 OA
ENDROOT
BRANCH   7  13
HETATM   13  C   UNL     1     -33.232  40.657 -52.589  1.00  0.00     0.003 C 
HETATM   14  C   UNL     1     -33.467  41.135 -51.141  1.00  0.00     0.032 C 
HETATM   15  C   UNL     1     -33.367  40.054 -50.112  1.00  0.00    -0.030 C 
HETATM   16  C   UNL     1     -32.721  38.901 -50.323  1.00  0.00    -0.031 C 
HETATM   17  C   UNL     1     -32.015  38.565 -51.599  1.00  0.00     0.027 C 
HETATM   18  C   UNL     1     -32.053  39.664 -52.664  1.00  0.00     0.009 C 
ENDBRANCH   7  13
BRANCH  11  19
HETATM   19  N   UNL     1     -37.911  41.938 -52.687  1.00  0.00    -0.282 NA
HETATM   20  H   UNL     1     -38.700  41.340 -52.920  1.00  0.00     0.126 HD
HETATM   21  H   UNL     1     -38.098  42.925 -52.836  1.00  0.00     0.126 HD
ENDBRANCH  11  19
BRANCH   1  22
HETATM   22  C   UNL     1     -32.598  39.605 -56.104  1.00  0.00    -0.005 A 
HETATM   23  C   UNL     1     -31.306  40.086 -56.364  1.00  0.00     0.014 A 
HETATM   24  C   UNL     1     -30.242  39.201 -56.548  1.00  0.00     0.001 A 
HETATM   25  C   UNL     1     -30.460  37.826 -56.481  1.00  0.00     0.000 A 
HETATM   26  C   UNL     1     -31.741  37.336 -56.235  1.00  0.00     0.001 A 
HETATM   27  C   UNL     1     -32.807  38.221 -56.051  1.00  0.00     0.014 A 
ENDBRANCH   1  22
TORSDOF 3
ENDMDL
