MODEL 1
REMARK VINA RESULT:      -7.8      0.000      0.000
REMARK  7 active torsions:
REMARK  status: ('A' for Active; 'I' for Inactive)
REMARK    1  A    between atoms: O_2  and  C_3 
REMARK    2  A    between atoms: C_4  and  C_5 
REMARK    3  A    between atoms: C_5  and  N_6 
REMARK    4  A    between atoms: N_6  and  C_7 
REMARK    5  A    between atoms: C_9  and  N_10 
REMARK    6  A    between atoms: N_10  and  C_11 
REMARK    7  A    between atoms: C_11  and  C_12 
ROOT
HETATM    1  C   UNL     1     -42.497  54.915 -54.033  1.00  0.00     0.119 A 
HETATM    2  N   UNL     1     -42.554  54.626 -55.348  1.00  0.00    -0.207 NA
HETATM    3  C   UNL     1     -43.313  55.404 -56.130  1.00  0.00     0.181 A 
HETATM    4  N   UNL     1     -43.980  56.457 -55.679  1.00  0.00    -0.330 N 
HETATM    5  H   UNL     1     -44.451  57.033 -56.364  1.00  0.00     0.168 HD
HETATM    6  C   UNL     1     -43.995  56.766 -54.379  1.00  0.00     0.048 A 
HETATM    7  C   UNL     1     -43.258  55.970 -53.478  1.00  0.00     0.031 A 
HETATM    8  C   UNL     1     -44.732  57.872 -53.930  1.00  0.00     0.030 A 
HETATM    9  C   UNL     1     -44.761  58.189 -52.574  1.00  0.00     0.002 A 
HETATM   10  C   UNL     1     -44.065  57.403 -51.662  1.00  0.00     0.001 A 
HETATM   11  C   UNL     1     -43.323  56.303 -52.104  1.00  0.00     0.017 A 
ENDROOT
BRANCH   1  12
HETATM   12  N   UNL     1     -41.721  54.102 -53.194  1.00  0.00    -0.272 NA
HETATM   13  H   UNL     1     -41.565  54.546 -52.294  1.00  0.00     0.129 HD
BRANCH  12  14
HETATM   14  C   UNL     1     -40.425  53.640 -53.714  1.00  0.00     0.135 C 
BRANCH  14  15
HETATM   15  C   UNL     1     -40.112  52.195 -53.400  1.00  0.00    -0.012 A 
HETATM   16  C   UNL     1     -39.709  51.869 -52.090  1.00  0.00     0.075 A 
HETATM   17  C   UNL     1     -39.475  50.542 -51.722  1.00  0.00     0.037 A 
HETATM   18  C   UNL     1     -39.594  49.527 -52.670  1.00  0.00     0.003 A 
HETATM   19  C   UNL     1     -39.954  49.837 -53.979  1.00  0.00     0.001 A 
HETATM   20  C   UNL     1     -40.216  51.161 -54.342  1.00  0.00     0.011 A 
BRANCH  16  21
HETATM   21  O   UNL     1     -39.630  52.902 -51.189  1.00  0.00    -0.355 OA
HETATM   22  C   UNL     1     -40.432  52.703 -50.026  1.00  0.00     0.210 C 
ENDBRANCH  16  21
ENDBRANCH  14  15
ENDBRANCH  12  14
ENDBRANCH   1  12
BRANCH   3  23
HETATM   23  N   UNL     1     -43.321  55.124 -57.488  1.00  0.00    -0.259 NA
HETATM   24  H   UNL     1     -44.165  54.559 -57.627  1.00  0.00     0.130 HD
BRANCH  23  25
HETATM   25  C   UNL     1     -43.323  56.268 -58.386  1.00  0.00     0.121 C 
BRANCH  25  26
HETATM   26  C   UNL     1     -43.573  55.751 -59.771  1.00  0.00    -0.022 C 
HETATM   27  C   UNL     1     -44.443  54.784 -60.092  1.00  0.00     0.008 C 
ENDBRANCH  25  26
ENDBRANCH  23  25
ENDBRANCH   3  23
TORSDOF 7
ENDMDL
MODEL 2
REMARK VINA RESULT:      -7.5      3.021      6.526
REMARK  7 active torsions:
REMARK  status: ('A' for Active; 'I' for Inactive)
REMARK    1  A    between atoms: O_2  and  C_3 
REMARK    2  A    between atoms: C_4  and  C_5 
REMARK    3  A    between atoms: C_5  and  N_6 
REMARK    4  A    between atoms: N_6  and  C_7 
REMARK    5  A    between atoms: C_9  and  N_10 
REMARK    6  A    between atoms: N_10  and  C_11 
REMARK    7  A    between atoms: C_11  and  C_12 
ROOT
HETATM    1  C   UNL     1     -42.370  54.186 -52.482  1.00  0.00     0.119 A 
HETATM    2  N   UNL     1     -41.880  53.482 -53.522  1.00  0.00    -0.207 NA
HETATM    3  C   UNL     1     -40.718  52.839 -53.354  1.00  0.00     0.181 A 
HETATM    4  N   UNL     1     -40.048  52.835 -52.209  1.00  0.00    -0.330 N 
HETATM    5  H   UNL     1     -39.228  52.247 -52.157  1.00  0.00     0.168 HD
HETATM    6  C   UNL     1     -40.464  53.549 -51.158  1.00  0.00     0.048 A 
HETATM    7  C   UNL     1     -41.656  54.295 -51.266  1.00  0.00     0.031 A 
HETATM    8  C   UNL     1     -39.719  53.546 -49.971  1.00  0.00     0.030 A 
HETATM    9  C   UNL     1     -40.140  54.300 -48.878  1.00  0.00     0.002 A 
HETATM   10  C   UNL     1     -41.299  55.065 -48.968  1.00  0.00     0.001 A 
HETATM   11  C   UNL     1     -42.050  55.067 -50.147  1.00  0.00     0.017 A 
ENDROOT
BRANCH   1  12
HETATM   12  N   UNL     1     -43.578  54.880 -52.644  1.00  0.00    -0.272 NA
HETATM   13  H   UNL     1     -44.328  54.253 -52.921  1.00  0.00     0.129 HD
BRANCH  12  14
HETATM   14  C   UNL     1     -43.575  56.034 -53.556  1.00  0.00     0.135 C 
BRANCH  14  15
HETATM   15  C   UNL     1     -42.682  57.170 -53.116  1.00  0.00    -0.012 A 
HETATM   16  C   UNL     1     -43.069  57.925 -51.992  1.00  0.00     0.075 A 
HETATM   17  C   UNL     1     -42.249  58.941 -51.494  1.00  0.00     0.037 A 
HETATM   18  C   UNL     1     -41.054  59.248 -52.142  1.00  0.00     0.003 A 
HETATM   19  C   UNL     1     -40.675  58.536 -53.277  1.00  0.00     0.001 A 
HETATM   20  C   UNL     1     -41.480  57.501 -53.759  1.00  0.00     0.011 A 
BRANCH  16  21
HETATM   21  O   UNL     1     -44.243  57.567 -51.376  1.00  0.00    -0.355 OA
HETATM   22  C   UNL     1     -45.219  58.607 -51.367  1.00  0.00     0.210 C 
ENDBRANCH  16  21
ENDBRANCH  14  15
ENDBRANCH  12  14
ENDBRANCH   1  12
BRANCH   3  23
HETATM   23  N   UNL     1     -40.253  52.079 -54.416  1.00  0.00    -0.259 NA
HETATM   24  H   UNL     1     -39.232  52.131 -54.339  1.00  0.00     0.130 HD
BRANCH  23  25
HETATM   25  C   UNL     1     -40.688  50.691 -54.461  1.00  0.00     0.121 C 
BRANCH  25  26
HETATM   26  C   UNL     1     -39.584  49.857 -53.885  1.00  0.00    -0.022 C 
HETATM   27  C   UNL     1     -39.544  49.380 -52.633  1.00  0.00     0.008 C 
ENDBRANCH  25  26
ENDBRANCH  23  25
ENDBRANCH   3  23
TORSDOF 7
ENDMDL
MODEL 3
REMARK VINA RESULT:      -7.4      2.628      7.345
REMARK  7 active torsions:
REMARK  status: ('A' for Active; 'I' for Inactive)
REMARK    1  A    between atoms: O_2  and  C_3 
REMARK    2  A    between atoms: C_4  and  C_5 
REMARK    3  A    between atoms: C_5  and  N_6 
REMARK    4  A    between atoms: N_6  and  C_7 
REMARK    5  A    between atoms: C_9  and  N_10 
REMARK    6  A    between atoms: N_10  and  C_11 
REMARK    7  A    between atoms: C_11  and  C_12 
ROOT
HETATM    1  C   UNL     1     -41.335  54.953 -54.419  1.00  0.00     0.119 A 
HETATM    2  N   UNL     1     -41.736  55.996 -53.666  1.00  0.00    -0.207 NA
HETATM    3  C   UNL     1     -41.552  55.923 -52.342  1.00  0.00     0.181 A 
HETATM    4  N   UNL     1     -40.969  54.891 -51.745  1.00  0.00    -0.330 N 
HETATM    5  H   UNL     1     -40.796  54.971 -50.752  1.00  0.00     0.168 HD
HETATM    6  C   UNL     1     -40.591  53.811 -52.435  1.00  0.00     0.048 A 
HETATM    7  C   UNL     1     -40.791  53.787 -53.832  1.00  0.00     0.031 A 
HETATM    8  C   UNL     1     -40.002  52.727 -51.771  1.00  0.00     0.030 A 
HETATM    9  C   UNL     1     -39.619  51.593 -52.484  1.00  0.00     0.002 A 
HETATM   10  C   UNL     1     -39.830  51.534 -53.858  1.00  0.00     0.001 A 
HETATM   11  C   UNL     1     -40.411  52.615 -54.528  1.00  0.00     0.017 A 
ENDROOT
BRANCH   1  12
HETATM   12  N   UNL     1     -41.534  55.004 -55.806  1.00  0.00    -0.272 NA
HETATM   13  H   UNL     1     -40.908  55.675 -56.243  1.00  0.00     0.129 HD
BRANCH  12  14
HETATM   14  C   UNL     1     -42.900  55.267 -56.283  1.00  0.00     0.135 C 
BRANCH  14  15
HETATM   15  C   UNL     1     -42.966  55.982 -57.612  1.00  0.00    -0.012 A 
HETATM   16  C   UNL     1     -42.556  57.329 -57.666  1.00  0.00     0.075 A 
HETATM   17  C   UNL     1     -42.526  58.021 -58.879  1.00  0.00     0.037 A 
HETATM   18  C   UNL     1     -42.951  57.391 -60.048  1.00  0.00     0.003 A 
HETATM   19  C   UNL     1     -43.395  56.072 -60.005  1.00  0.00     0.001 A 
HETATM   20  C   UNL     1     -43.398  55.370 -58.797  1.00  0.00     0.011 A 
BRANCH  16  21
HETATM   21  O   UNL     1     -42.125  57.895 -56.491  1.00  0.00    -0.355 OA
HETATM   22  C   UNL     1     -42.322  59.306 -56.436  1.00  0.00     0.210 C 
ENDBRANCH  16  21
ENDBRANCH  14  15
ENDBRANCH  12  14
ENDBRANCH   1  12
BRANCH   3  23
HETATM   23  N   UNL     1     -41.923  57.024 -51.586  1.00  0.00    -0.259 NA
HETATM   24  H   UNL     1     -42.784  56.732 -51.114  1.00  0.00     0.130 HD
BRANCH  23  25
HETATM   25  C   UNL     1     -40.950  57.504 -50.617  1.00  0.00     0.121 C 
BRANCH  25  26
HETATM   26  C   UNL     1     -40.405  58.802 -51.134  1.00  0.00    -0.022 C 
HETATM   27  C   UNL     1     -39.484  59.557 -50.518  1.00  0.00     0.008 C 
ENDBRANCH  25  26
ENDBRANCH  23  25
ENDBRANCH   3  23
TORSDOF 7
ENDMDL
MODEL 4
REMARK VINA RESULT:      -7.4      2.130      5.063
REMARK  7 active torsions:
REMARK  status: ('A' for Active; 'I' for Inactive)
REMARK    1  A    between atoms: O_2  and  C_3 
REMARK    2  A    between atoms: C_4  and  C_5 
REMARK    3  A    between atoms: C_5  and  N_6 
REMARK    4  A    between atoms: N_6  and  C_7 
REMARK    5  A    between atoms: C_9  and  N_10 
REMARK    6  A    between atoms: N_10  and  C_11 
REMARK    7  A    between atoms: C_11  and  C_12 
ROOT
HETATM    1  C   UNL     1     -43.036  55.466 -54.027  1.00  0.00     0.119 A 
HETATM    2  N   UNL     1     -43.144  56.225 -55.135  1.00  0.00    -0.207 NA
HETATM    3  C   UNL     1     -42.286  56.000 -56.137  1.00  0.00     0.181 A 
HETATM    4  N   UNL     1     -41.361  55.050 -56.103  1.00  0.00    -0.330 N 
HETATM    5  H   UNL     1     -40.821  54.902 -56.945  1.00  0.00     0.168 HD
HETATM    6  C   UNL     1     -41.179  54.296 -55.014  1.00  0.00     0.048 A 
HETATM    7  C   UNL     1     -42.012  54.499 -53.894  1.00  0.00     0.031 A 
HETATM    8  C   UNL     1     -40.174  53.318 -55.000  1.00  0.00     0.030 A 
HETATM    9  C   UNL     1     -39.972  52.540 -53.863  1.00  0.00     0.002 A 
HETATM   10  C   UNL     1     -40.763  52.740 -52.735  1.00  0.00     0.001 A 
HETATM   11  C   UNL     1     -41.770  53.709 -52.745  1.00  0.00     0.017 A 
ENDROOT
BRANCH   1  12
HETATM   12  N   UNL     1     -43.915  55.697 -52.959  1.00  0.00    -0.272 NA
HETATM   13  H   UNL     1     -44.846  55.346 -53.167  1.00  0.00     0.129 HD
BRANCH  12  14
HETATM   14  C   UNL     1     -44.039  57.080 -52.475  1.00  0.00     0.135 C 
BRANCH  14  15
HETATM   15  C   UNL     1     -42.726  57.720 -52.086  1.00  0.00    -0.012 A 
HETATM   16  C   UNL     1     -42.013  57.171 -51.002  1.00  0.00     0.075 A 
HETATM   17  C   UNL     1     -40.760  57.674 -50.640  1.00  0.00     0.037 A 
HETATM   18  C   UNL     1     -40.225  58.762 -51.327  1.00  0.00     0.003 A 
HETATM   19  C   UNL     1     -40.935  59.341 -52.377  1.00  0.00     0.001 A 
HETATM   20  C   UNL     1     -42.175  58.821 -52.757  1.00  0.00     0.011 A 
BRANCH  16  21
HETATM   21  O   UNL     1     -42.573  56.086 -50.374  1.00  0.00    -0.355 OA
HETATM   22  C   UNL     1     -41.658  55.380 -49.537  1.00  0.00     0.210 C 
ENDBRANCH  16  21
ENDBRANCH  14  15
ENDBRANCH  12  14
ENDBRANCH   1  12
BRANCH   3  23
HETATM   23  N   UNL     1     -42.442  56.754 -57.290  1.00  0.00    -0.259 NA
HETATM   24  H   UNL     1     -41.634  56.506 -57.869  1.00  0.00     0.130 HD
BRANCH  23  25
HETATM   25  C   UNL     1     -43.678  56.557 -58.032  1.00  0.00     0.121 C 
BRANCH  25  26
HETATM   26  C   UNL     1     -43.403  55.540 -59.099  1.00  0.00    -0.022 C 
HETATM   27  C   UNL     1     -44.305  55.063 -59.967  1.00  0.00     0.008 C 
ENDBRANCH  25  26
ENDBRANCH  23  25
ENDBRANCH   3  23
TORSDOF 7
ENDMDL
MODEL 5
REMARK VINA RESULT:      -7.3      2.415      5.429
REMARK  7 active torsions:
REMARK  status: ('A' for Active; 'I' for Inactive)
REMARK    1  A    between atoms: O_2  and  C_3 
REMARK    2  A    between atoms: C_4  and  C_5 
REMARK    3  A    between atoms: C_5  and  N_6 
REMARK    4  A    between atoms: N_6  and  C_7 
REMARK    5  A    between atoms: C_9  and  N_10 
REMARK    6  A    between atoms: N_10  and  C_11 
REMARK    7  A    between atoms: C_11  and  C_12 
ROOT
HETATM    1  C   UNL     1     -43.341  55.683 -54.390  1.00  0.00     0.119 A 
HETATM    2  N   UNL     1     -43.369  56.309 -55.583  1.00  0.00    -0.207 NA
HETATM    3  C   UNL     1     -42.435  55.986 -56.486  1.00  0.00     0.181 A 
HETATM    4  N   UNL     1     -41.509  55.060 -56.273  1.00  0.00    -0.330 N 
HETATM    5  H   UNL     1     -40.905  54.826 -57.050  1.00  0.00     0.168 HD
HETATM    6  C   UNL     1     -41.405  54.438 -55.095  1.00  0.00     0.048 A 
HETATM    7  C   UNL     1     -42.323  54.754 -54.071  1.00  0.00     0.031 A 
HETATM    8  C   UNL     1     -40.398  53.484 -54.893  1.00  0.00     0.030 A 
HETATM    9  C   UNL     1     -40.278  52.843 -53.662  1.00  0.00     0.002 A 
HETATM   10  C   UNL     1     -41.154  53.157 -52.628  1.00  0.00     0.001 A 
HETATM   11  C   UNL     1     -42.164  54.103 -52.824  1.00  0.00     0.017 A 
ENDROOT
BRANCH   1  12
HETATM   12  N   UNL     1     -44.300  56.020 -53.425  1.00  0.00    -0.272 NA
HETATM   13  H   UNL     1     -45.243  55.882 -53.780  1.00  0.00     0.129 HD
BRANCH  12  14
HETATM   14  C   UNL     1     -44.220  57.365 -52.835  1.00  0.00     0.135 C 
BRANCH  14  15
HETATM   15  C   UNL     1     -42.882  57.689 -52.212  1.00  0.00    -0.012 A 
HETATM   16  C   UNL     1     -42.075  58.663 -52.833  1.00  0.00     0.075 A 
HETATM   17  C   UNL     1     -40.861  59.056 -52.265  1.00  0.00     0.037 A 
HETATM   18  C   UNL     1     -40.414  58.447 -51.093  1.00  0.00     0.003 A 
HETATM   19  C   UNL     1     -41.181  57.455 -50.488  1.00  0.00     0.001 A 
HETATM   20  C   UNL     1     -42.410  57.082 -51.039  1.00  0.00     0.011 A 
BRANCH  16  21
HETATM   21  O   UNL     1     -42.573  59.248 -53.971  1.00  0.00    -0.355 OA
HETATM   22  C   UNL     1     -42.522  60.674 -53.945  1.00  0.00     0.210 C 
ENDBRANCH  16  21
ENDBRANCH  14  15
ENDBRANCH  12  14
ENDBRANCH   1  12
BRANCH   3  23
HETATM   23  N   UNL     1     -42.508  56.601 -57.725  1.00  0.00    -0.259 NA
HETATM   24  H   UNL     1     -41.780  56.143 -58.282  1.00  0.00     0.130 HD
BRANCH  23  25
HETATM   25  C   UNL     1     -43.790  56.530 -58.411  1.00  0.00     0.121 C 
BRANCH  25  26
HETATM   26  C   UNL     1     -43.653  55.524 -59.513  1.00  0.00    -0.022 C 
HETATM   27  C   UNL     1     -44.471  54.482 -59.719  1.00  0.00     0.008 C 
ENDBRANCH  25  26
ENDBRANCH  23  25
ENDBRANCH   3  23
TORSDOF 7
ENDMDL
MODEL 6
REMARK VINA RESULT:      -7.1      2.780      7.573
REMARK  7 active torsions:
REMARK  status: ('A' for Active; 'I' for Inactive)
REMARK    1  A    between atoms: O_2  and  C_3 
REMARK    2  A    between atoms: C_4  and  C_5 
REMARK    3  A    between atoms: C_5  and  N_6 
REMARK    4  A    between atoms: N_6  and  C_7 
REMARK    5  A    between atoms: C_9  and  N_10 
REMARK    6  A    between atoms: N_10  and  C_11 
REMARK    7  A    between atoms: C_11  and  C_12 
ROOT
HETATM    1  C   UNL     1     -41.505  55.407 -54.430  1.00  0.00     0.119 A 
HETATM    2  N   UNL     1     -41.880  56.408 -53.611  1.00  0.00    -0.207 NA
HETATM    3  C   UNL     1     -41.695  56.247 -52.295  1.00  0.00     0.181 A 
HETATM    4  N   UNL     1     -41.134  55.167 -51.766  1.00  0.00    -0.330 N 
HETATM    5  H   UNL     1     -40.957  55.179 -50.771  1.00  0.00     0.168 HD
HETATM    6  C   UNL     1     -40.781  54.125 -52.525  1.00  0.00     0.048 A 
HETATM    7  C   UNL     1     -40.984  54.194 -53.919  1.00  0.00     0.031 A 
HETATM    8  C   UNL     1     -40.215  52.988 -51.933  1.00  0.00     0.030 A 
HETATM    9  C   UNL     1     -39.859  51.894 -52.718  1.00  0.00     0.002 A 
HETATM   10  C   UNL     1     -40.074  51.926 -54.093  1.00  0.00     0.001 A 
HETATM   11  C   UNL     1     -40.632  53.060 -54.690  1.00  0.00     0.017 A 
ENDROOT
BRANCH   1  12
HETATM   12  N   UNL     1     -41.705  55.550 -55.811  1.00  0.00    -0.272 NA
HETATM   13  H   UNL     1     -40.861  55.877 -56.272  1.00  0.00     0.129 HD
BRANCH  12  14
HETATM   14  C   UNL     1     -42.828  56.393 -56.245  1.00  0.00     0.135 C 
BRANCH  14  15
HETATM   15  C   UNL     1     -42.647  57.010 -57.612  1.00  0.00    -0.012 A 
HETATM   16  C   UNL     1     -43.051  56.266 -58.738  1.00  0.00     0.075 A 
HETATM   17  C   UNL     1     -42.975  56.810 -60.023  1.00  0.00     0.037 A 
HETATM   18  C   UNL     1     -42.450  58.088 -60.204  1.00  0.00     0.003 A 
HETATM   19  C   UNL     1     -42.010  58.823 -59.105  1.00  0.00     0.001 A 
HETATM   20  C   UNL     1     -42.113  58.290 -57.817  1.00  0.00     0.011 A 
BRANCH  16  21
HETATM   21  O   UNL     1     -43.583  55.022 -58.503  1.00  0.00    -0.355 OA
HETATM   22  C   UNL     1     -44.361  54.522 -59.590  1.00  0.00     0.210 C 
ENDBRANCH  16  21
ENDBRANCH  14  15
ENDBRANCH  12  14
ENDBRANCH   1  12
BRANCH   3  23
HETATM   23  N   UNL     1     -42.040  57.306 -51.469  1.00  0.00    -0.259 NA
HETATM   24  H   UNL     1     -41.761  57.000 -50.532  1.00  0.00     0.130 HD
BRANCH  23  25
HETATM   25  C   UNL     1     -41.441  58.594 -51.782  1.00  0.00     0.121 C 
BRANCH  25  26
HETATM   26  C   UNL     1     -40.661  59.030 -50.578  1.00  0.00    -0.022 C 
HETATM   27  C   UNL     1     -39.395  59.469 -50.590  1.00  0.00     0.008 C 
ENDBRANCH  25  26
ENDBRANCH  23  25
ENDBRANCH   3  23
TORSDOF 7
ENDMDL
MODEL 7
REMARK VINA RESULT:      -7.1     13.903     15.389
REMARK  7 active torsions:
REMARK  status: ('A' for Active; 'I' for Inactive)
REMARK    1  A    between atoms: O_2  and  C_3 
REMARK    2  A    between atoms: C_4  and  C_5 
REMARK    3  A    between atoms: C_5  and  N_6 
REMARK    4  A    between atoms: N_6  and  C_7 
REMARK    5  A    between atoms: C_9  and  N_10 
REMARK    6  A    between atoms: N_10  and  C_11 
REMARK    7  A    between atoms: C_11  and  C_12 
ROOT
HETATM    1  C   UNL     1     -36.019  41.951 -53.337  1.00  0.00     0.119 A 
HETATM    2  N   UNL     1     -37.045  41.636 -52.522  1.00  0.00    -0.207 NA
HETATM    3  C   UNL     1     -38.216  41.309 -53.083  1.00  0.00     0.181 A 
HETATM    4  N   UNL     1     -38.402  41.250 -54.394  1.00  0.00    -0.330 N 
HETATM    5  H   UNL     1     -39.296  40.907 -54.718  1.00  0.00     0.168 HD
HETATM    6  C   UNL     1     -37.435  41.594 -55.250  1.00  0.00     0.048 A 
HETATM    7  C   UNL     1     -36.182  41.996 -54.741  1.00  0.00     0.031 A 
HETATM    8  C   UNL     1     -37.672  41.546 -56.631  1.00  0.00     0.030 A 
HETATM    9  C   UNL     1     -36.671  41.917 -57.526  1.00  0.00     0.002 A 
HETATM   10  C   UNL     1     -35.436  42.343 -57.049  1.00  0.00     0.001 A 
HETATM   11  C   UNL     1     -35.190  42.386 -55.673  1.00  0.00     0.017 A 
ENDROOT
BRANCH   1  12
HETATM   12  N   UNL     1     -34.789  42.313 -52.769  1.00  0.00    -0.272 NA
HETATM   13  H   UNL     1     -34.015  41.871 -53.258  1.00  0.00     0.129 HD
BRANCH  12  14
HETATM   14  C   UNL     1     -34.619  42.082 -51.326  1.00  0.00     0.135 C 
BRANCH  14  15
HETATM   15  C   UNL     1     -33.795  40.861 -50.987  1.00  0.00    -0.012 A 
HETATM   16  C   UNL     1     -34.407  39.828 -50.251  1.00  0.00     0.075 A 
HETATM   17  C   UNL     1     -33.719  38.644 -49.970  1.00  0.00     0.037 A 
HETATM   18  C   UNL     1     -32.394  38.498 -50.378  1.00  0.00     0.003 A 
HETATM   19  C   UNL     1     -31.763  39.526 -51.074  1.00  0.00     0.001 A 
HETATM   20  C   UNL     1     -32.459  40.698 -51.381  1.00  0.00     0.011 A 
BRANCH  16  21
HETATM   21  O   UNL     1     -35.719  40.012 -49.893  1.00  0.00    -0.355 OA
HETATM   22  C   UNL     1     -36.278  38.901 -49.194  1.00  0.00     0.210 C 
ENDBRANCH  16  21
ENDBRANCH  14  15
ENDBRANCH  12  14
ENDBRANCH   1  12
BRANCH   3  23
HETATM   23  N   UNL     1     -39.246  40.938 -52.233  1.00  0.00    -0.259 NA
HETATM   24  H   UNL     1     -39.044  41.430 -51.356  1.00  0.00     0.130 HD
BRANCH  23  25
HETATM   25  C   UNL     1     -40.597  41.237 -52.681  1.00  0.00     0.121 C 
BRANCH  25  26
HETATM   26  C   UNL     1     -41.517  40.259 -52.015  1.00  0.00    -0.022 C 
HETATM   27  C   UNL     1     -41.131  39.200 -51.290  1.00  0.00     0.008 C 
ENDBRANCH  25  26
ENDBRANCH  23  25
ENDBRANCH   3  23
TORSDOF 7
ENDMDL
MODEL 8
REMARK VINA RESULT:      -7.1     14.041     16.508
REMARK  7 active torsions:
REMARK  status: ('A' for Active; 'I' for Inactive)
REMARK    1  A    between atoms: O_2  and  C_3 
REMARK    2  A    between atoms: C_4  and  C_5 
REMARK    3  A    between atoms: C_5  and  N_6 
REMARK    4  A    between atoms: N_6  and  C_7 
REMARK    5  A    between atoms: C_9  and  N_10 
REMARK    6  A    between atoms: N_10  and  C_11 
REMARK    7  A    between atoms: C_11  and  C_12 
ROOT
HETATM    1  C   UNL     1     -35.102  41.685 -56.358  1.00  0.00     0.119 A 
HETATM    2  N   UNL     1     -35.975  42.106 -55.423  1.00  0.00    -0.207 NA
HETATM    3  C   UNL     1     -35.678  41.880 -54.138  1.00  0.00     0.181 A 
HETATM    4  N   UNL     1     -34.556  41.293 -53.743  1.00  0.00    -0.330 N 
HETATM    5  H   UNL     1     -34.383  41.249 -52.748  1.00  0.00     0.168 HD
HETATM    6  C   UNL     1     -33.673  40.817 -54.627  1.00  0.00     0.048 A 
HETATM    7  C   UNL     1     -33.932  40.973 -56.005  1.00  0.00     0.031 A 
HETATM    8  C   UNL     1     -32.508  40.178 -54.178  1.00  0.00     0.030 A 
HETATM    9  C   UNL     1     -31.592  39.668 -55.095  1.00  0.00     0.002 A 
HETATM   10  C   UNL     1     -31.838  39.785 -56.459  1.00  0.00     0.001 A 
HETATM   11  C   UNL     1     -32.994  40.426 -56.914  1.00  0.00     0.017 A 
ENDROOT
BRANCH   1  12
HETATM   12  N   UNL     1     -35.402  41.898 -57.711  1.00  0.00    -0.272 NA
HETATM   13  H   UNL     1     -34.967  42.750 -58.055  1.00  0.00     0.129 HD
BRANCH  12  14
HETATM   14  C   UNL     1     -36.823  41.917 -58.091  1.00  0.00     0.135 C 
BRANCH  14  15
HETATM   15  C   UNL     1     -37.253  40.744 -58.940  1.00  0.00    -0.012 A 
HETATM   16  C   UNL     1     -37.693  39.575 -58.289  1.00  0.00     0.075 A 
HETATM   17  C   UNL     1     -38.171  38.483 -59.019  1.00  0.00     0.037 A 
HETATM   18  C   UNL     1     -38.169  38.527 -60.412  1.00  0.00     0.003 A 
HETATM   19  C   UNL     1     -37.702  39.661 -61.072  1.00  0.00     0.001 A 
HETATM   20  C   UNL     1     -37.251  40.764 -60.342  1.00  0.00     0.011 A 
BRANCH  16  21
HETATM   21  O   UNL     1     -37.696  39.592 -56.915  1.00  0.00    -0.355 OA
HETATM   22  C   UNL     1     -36.842  38.609 -56.334  1.00  0.00     0.210 C 
ENDBRANCH  16  21
ENDBRANCH  14  15
ENDBRANCH  12  14
ENDBRANCH   1  12
BRANCH   3  23
HETATM   23  N   UNL     1     -36.562  42.363 -53.186  1.00  0.00    -0.259 NA
HETATM   24  H   UNL     1     -37.426  42.544 -53.708  1.00  0.00     0.130 HD
BRANCH  23  25
HETATM   25  C   UNL     1     -36.829  41.498 -52.048  1.00  0.00     0.121 C 
BRANCH  25  26
HETATM   26  C   UNL     1     -38.055  40.698 -52.370  1.00  0.00    -0.022 C 
HETATM   27  C   UNL     1     -39.248  41.209 -52.706  1.00  0.00     0.008 C 
ENDBRANCH  25  26
ENDBRANCH  23  25
ENDBRANCH   3  23
TORSDOF 7
ENDMDL
MODEL 9
REMARK VINA RESULT:      -7.1      2.321      5.894
REMARK  7 active torsions:
REMARK  status: ('A' for Active; 'I' for Inactive)
REMARK    1  A    between atoms: O_2  and  C_3 
REMARK    2  A    between atoms: C_4  and  C_5 
REMARK    3  A    between atoms: C_5  and  N_6 
REMARK    4  A    between atoms: N_6  and  C_7 
REMARK    5  A    between atoms: C_9  and  N_10 
REMARK    6  A    between atoms: N_10  and  C_11 
REMARK    7  A    between atoms: C_11  and  C_12 
ROOT
HETATM    1  C   UNL     1     -42.810  54.585 -52.461  1.00  0.00     0.119 A 
HETATM    2  N   UNL     1     -43.401  54.947 -53.616  1.00  0.00    -0.207 NA
HETATM    3  C   UNL     1     -42.959  54.392 -54.751  1.00  0.00     0.181 A 
HETATM    4  N   UNL     1     -41.992  53.484 -54.787  1.00  0.00    -0.330 N 
HETATM    5  H   UNL     1     -41.792  53.060 -55.683  1.00  0.00     0.168 HD
HETATM    6  C   UNL     1     -41.340  53.118 -53.679  1.00  0.00     0.048 A 
HETATM    7  C   UNL     1     -41.713  53.690 -52.445  1.00  0.00     0.031 A 
HETATM    8  C   UNL     1     -40.306  52.175 -53.755  1.00  0.00     0.030 A 
HETATM    9  C   UNL     1     -39.614  51.801 -52.605  1.00  0.00     0.002 A 
HETATM   10  C   UNL     1     -39.945  52.372 -51.380  1.00  0.00     0.001 A 
HETATM   11  C   UNL     1     -40.980  53.307 -51.296  1.00  0.00     0.017 A 
ENDROOT
BRANCH   1  12
HETATM   12  N   UNL     1     -43.248  55.167 -51.263  1.00  0.00    -0.272 NA
HETATM   13  H   UNL     1     -44.215  55.471 -51.335  1.00  0.00     0.129 HD
BRANCH  12  14
HETATM   14  C   UNL     1     -42.451  56.280 -50.724  1.00  0.00     0.135 C 
BRANCH  14  15
HETATM   15  C   UNL     1     -42.248  57.422 -51.691  1.00  0.00    -0.012 A 
HETATM   16  C   UNL     1     -43.362  58.215 -52.030  1.00  0.00     0.075 A 
HETATM   17  C   UNL     1     -43.223  59.329 -52.862  1.00  0.00     0.037 A 
HETATM   18  C   UNL     1     -41.977  59.636 -53.407  1.00  0.00     0.003 A 
HETATM   19  C   UNL     1     -40.873  58.840 -53.113  1.00  0.00     0.001 A 
HETATM   20  C   UNL     1     -41.005  57.743 -52.257  1.00  0.00     0.011 A 
BRANCH  16  21
HETATM   21  O   UNL     1     -44.561  57.884 -51.448  1.00  0.00    -0.355 OA
HETATM   22  C   UNL     1     -45.243  59.000 -50.878  1.00  0.00     0.210 C 
ENDBRANCH  16  21
ENDBRANCH  14  15
ENDBRANCH  12  14
ENDBRANCH   1  12
BRANCH   3  23
HETATM   23  N   UNL     1     -43.611  54.737 -55.924  1.00  0.00    -0.259 NA
HETATM   24  H   UNL     1     -44.399  55.316 -55.617  1.00  0.00     0.130 HD
BRANCH  23  25
HETATM   25  C   UNL     1     -42.822  55.441 -56.923  1.00  0.00     0.121 C 
BRANCH  25  26
HETATM   26  C   UNL     1     -42.527  56.806 -56.380  1.00  0.00    -0.022 C 
HETATM   27  C   UNL     1     -43.402  57.820 -56.311  1.00  0.00     0.008 C 
ENDBRANCH  25  26
ENDBRANCH  23  25
ENDBRANCH   3  23
TORSDOF 7
ENDMDL
MODEL 10
REMARK VINA RESULT:      -7.0      1.925      2.092
REMARK  7 active torsions:
REMARK  status: ('A' for Active; 'I' for Inactive)
REMARK    1  A    between atoms: O_2  and  C_3 
REMARK    2  A    between atoms: C_4  and  C_5 
REMARK    3  A    between atoms: C_5  and  N_6 
REMARK    4  A    between atoms: N_6  and  C_7 
REMARK    5  A    between atoms: C_9  and  N_10 
REMARK    6  A    between atoms: N_10  and  C_11 
REMARK    7  A    between atoms: C_11  and  C_12 
ROOT
HETATM    1  C   UNL     1     -41.815  56.664 -54.420  1.00  0.00     0.119 A 
HETATM    2  N   UNL     1     -41.985  56.070 -55.617  1.00  0.00    -0.207 NA
HETATM    3  C   UNL     1     -42.336  56.838 -56.656  1.00  0.00     0.181 A 
HETATM    4  N   UNL     1     -42.491  58.152 -56.569  1.00  0.00    -0.330 N 
HETATM    5  H   UNL     1     -42.668  58.654 -57.428  1.00  0.00     0.168 HD
HETATM    6  C   UNL     1     -42.377  58.789 -55.399  1.00  0.00     0.048 A 
HETATM    7  C   UNL     1     -42.054  58.047 -54.244  1.00  0.00     0.031 A 
HETATM    8  C   UNL     1     -42.572  60.176 -55.335  1.00  0.00     0.030 A 
HETATM    9  C   UNL     1     -42.469  60.842 -54.117  1.00  0.00     0.002 A 
HETATM   10  C   UNL     1     -42.179  60.128 -52.958  1.00  0.00     0.001 A 
HETATM   11  C   UNL     1     -41.976  58.746 -53.016  1.00  0.00     0.017 A 
ENDROOT
BRANCH   1  12
HETATM   12  N   UNL     1     -41.464  55.874 -53.315  1.00  0.00    -0.272 NA
HETATM   13  H   UNL     1     -40.461  55.711 -53.284  1.00  0.00     0.129 HD
BRANCH  12  14
HETATM   14  C   UNL     1     -42.148  54.581 -53.167  1.00  0.00     0.135 C 
BRANCH  14  15
HETATM   15  C   UNL     1     -41.224  53.385 -53.191  1.00  0.00    -0.012 A 
HETATM   16  C   UNL     1     -40.487  53.089 -52.028  1.00  0.00     0.075 A 
HETATM   17  C   UNL     1     -39.671  51.956 -51.965  1.00  0.00     0.037 A 
HETATM   18  C   UNL     1     -39.545  51.130 -53.080  1.00  0.00     0.003 A 
HETATM   19  C   UNL     1     -40.238  51.430 -54.251  1.00  0.00     0.001 A 
HETATM   20  C   UNL     1     -41.076  52.546 -54.305  1.00  0.00     0.011 A 
BRANCH  16  21
HETATM   21  O   UNL     1     -40.665  53.921 -50.950  1.00  0.00    -0.355 OA
HETATM   22  C   UNL     1     -40.269  53.337 -49.710  1.00  0.00     0.210 C 
ENDBRANCH  16  21
ENDBRANCH  14  15
ENDBRANCH  12  14
ENDBRANCH   1  12
BRANCH   3  23
HETATM   23  N   UNL     1     -42.458  56.220 -57.891  1.00  0.00    -0.259 NA
HETATM   24  H   UNL     1     -42.258  55.232 -57.703  1.00  0.00     0.130 HD
BRANCH  23  25
HETATM   25  C   UNL     1     -43.740  56.359 -58.563  1.00  0.00     0.121 C 
BRANCH  25  26
HETATM   26  C   UNL     1     -43.743  55.413 -59.725  1.00  0.00    -0.022 C 
HETATM   27  C   UNL     1     -44.634  54.431 -59.926  1.00  0.00     0.008 C 
ENDBRANCH  25  26
ENDBRANCH  23  25
ENDBRANCH   3  23
TORSDOF 7
ENDMDL
