MODEL 1
REMARK VINA RESULT:      -8.2      0.000      0.000
REMARK  2 active torsions:
REMARK  status: ('A' for Active; 'I' for Inactive)
REMARK    1  A    between atoms: C_6  and  N_7 
REMARK    2  A    between atoms: N_7  and  C_8 
ROOT
HETATM    1  C   UNL     1     -44.708  57.724 -50.951  1.00  0.00     0.093 C 
HETATM    2  C   UNL     1     -43.861  56.643 -51.549  1.00  0.00     0.125 A 
HETATM    3  N   UNL     1     -43.078  55.950 -50.725  1.00  0.00    -0.226 NA
HETATM    4  C   UNL     1     -42.340  55.024 -51.355  1.00  0.00     0.114 A 
HETATM    5  C   UNL     1     -42.320  54.751 -52.718  1.00  0.00     0.053 A 
HETATM    6  C   UNL     1     -43.212  55.525 -53.507  1.00  0.00     0.143 A 
HETATM    7  N   UNL     1     -43.954  56.469 -52.877  1.00  0.00    -0.215 NA
HETATM    8  S   UNL     1     -41.297  54.029 -50.450  1.00  0.00    -0.073 SA
HETATM    9  C   UNL     1     -40.783  53.205 -51.839  1.00  0.00    -0.008 A 
HETATM   10  C   UNL     1     -41.359  53.694 -53.000  1.00  0.00    -0.028 A 
HETATM   11  C   UNL     1     -41.005  53.105 -54.338  1.00  0.00     0.041 C 
HETATM   12  C   UNL     1     -39.763  52.201 -54.283  1.00  0.00     0.005 C 
HETATM   13  C   UNL     1     -39.779  51.281 -53.058  1.00  0.00     0.005 C 
HETATM   14  C   UNL     1     -39.781  52.094 -51.758  1.00  0.00     0.047 C 
ENDROOT
BRANCH   6  15
HETATM   15  N   UNL     1     -43.331  55.351 -54.895  1.00  0.00    -0.340 N 
HETATM   16  H   UNL     1     -43.823  54.514 -55.158  1.00  0.00     0.167 HD
BRANCH  15  17
HETATM   17  C   UNL     1     -43.034  56.185 -55.991  1.00  0.00     0.036 A 
HETATM   18  C   UNL     1     -43.028  55.611 -57.276  1.00  0.00     0.069 A 
HETATM   19  C   UNL     1     -42.715  56.404 -58.361  1.00  0.00     0.107 A 
HETATM   20  C   UNL     1     -42.401  57.732 -58.220  1.00  0.00     0.105 A 
HETATM   21  O   UNL     1     -42.676  55.996 -59.658  1.00  0.00    -0.323 OA
HETATM   22  O   UNL     1     -42.126  58.332 -59.408  1.00  0.00    -0.323 OA
HETATM   23  C   UNL     1     -42.378  58.335 -56.985  1.00  0.00     0.042 A 
HETATM   24  C   UNL     1     -42.301  57.226 -60.316  1.00  0.00     0.352 A 
HETATM   25  C   UNL     1     -42.691  57.548 -55.868  1.00  0.00     0.032 A 
ENDBRANCH  15  17
ENDBRANCH   6  15
TORSDOF 2
ENDMDL
MODEL 2
REMARK VINA RESULT:      -8.2      3.636      6.645
REMARK  2 active torsions:
REMARK  status: ('A' for Active; 'I' for Inactive)
REMARK    1  A    between atoms: C_6  and  N_7 
REMARK    2  A    between atoms: N_7  and  C_8 
ROOT
HETATM    1  C   UNL     1     -41.689  59.915 -52.217  1.00  0.00     0.093 C 
HETATM    2  C   UNL     1     -41.907  59.127 -53.472  1.00  0.00     0.125 A 
HETATM    3  N   UNL     1     -41.848  59.785 -54.629  1.00  0.00    -0.226 NA
HETATM    4  C   UNL     1     -42.081  59.002 -55.692  1.00  0.00     0.114 A 
HETATM    5  C   UNL     1     -42.371  57.642 -55.686  1.00  0.00     0.053 A 
HETATM    6  C   UNL     1     -42.382  57.027 -54.406  1.00  0.00     0.143 A 
HETATM    7  N   UNL     1     -42.156  57.816 -53.326  1.00  0.00    -0.215 NA
HETATM    8  S   UNL     1     -42.022  59.675 -57.254  1.00  0.00    -0.073 SA
HETATM    9  C   UNL     1     -42.382  58.184 -57.974  1.00  0.00    -0.008 A 
HETATM   10  C   UNL     1     -42.589  57.174 -57.048  1.00  0.00    -0.028 A 
HETATM   11  C   UNL     1     -42.946  55.783 -57.496  1.00  0.00     0.041 C 
HETATM   12  C   UNL     1     -43.358  55.721 -58.976  1.00  0.00     0.005 C 
HETATM   13  C   UNL     1     -42.437  56.563 -59.863  1.00  0.00     0.005 C 
HETATM   14  C   UNL     1     -42.487  58.043 -59.462  1.00  0.00     0.047 C 
ENDROOT
BRANCH   6  15
HETATM   15  N   UNL     1     -42.630  55.656 -54.233  1.00  0.00    -0.340 N 
HETATM   16  H   UNL     1     -43.567  55.381 -54.472  1.00  0.00     0.167 HD
BRANCH  15  17
HETATM   17  C   UNL     1     -41.790  54.565 -53.936  1.00  0.00     0.036 A 
HETATM   18  C   UNL     1     -41.681  54.163 -52.591  1.00  0.00     0.069 A 
HETATM   19  C   UNL     1     -40.844  53.112 -52.274  1.00  0.00     0.107 A 
HETATM   20  C   UNL     1     -40.111  52.456 -53.230  1.00  0.00     0.105 A 
HETATM   21  O   UNL     1     -40.642  52.607 -51.027  1.00  0.00    -0.323 OA
HETATM   22  O   UNL     1     -39.356  51.453 -52.710  1.00  0.00    -0.323 OA
HETATM   23  C   UNL     1     -40.172  52.821 -54.553  1.00  0.00     0.042 A 
HETATM   24  C   UNL     1     -39.695  51.555 -51.312  1.00  0.00     0.352 A 
HETATM   25  C   UNL     1     -41.014  53.887 -54.899  1.00  0.00     0.032 A 
ENDBRANCH  15  17
ENDBRANCH   6  15
TORSDOF 2
ENDMDL
MODEL 3
REMARK VINA RESULT:      -8.1      1.463      2.016
REMARK  2 active torsions:
REMARK  status: ('A' for Active; 'I' for Inactive)
REMARK    1  A    between atoms: C_6  and  N_7 
REMARK    2  A    between atoms: N_7  and  C_8 
ROOT
HETATM    1  C   UNL     1     -42.142  57.691 -51.116  1.00  0.00     0.093 C 
HETATM    2  C   UNL     1     -41.762  56.349 -51.661  1.00  0.00     0.125 A 
HETATM    3  N   UNL     1     -41.129  55.511 -50.842  1.00  0.00    -0.226 NA
HETATM    4  C   UNL     1     -40.808  54.348 -51.426  1.00  0.00     0.114 A 
HETATM    5  C   UNL     1     -41.057  53.971 -52.741  1.00  0.00     0.053 A 
HETATM    6  C   UNL     1     -41.761  54.923 -53.524  1.00  0.00     0.143 A 
HETATM    7  N   UNL     1     -42.082  56.105 -52.941  1.00  0.00    -0.215 NA
HETATM    8  S   UNL     1     -40.015  53.147 -50.517  1.00  0.00    -0.073 SA
HETATM    9  C   UNL     1     -39.973  52.089 -51.840  1.00  0.00    -0.008 A 
HETATM   10  C   UNL     1     -40.519  52.640 -52.988  1.00  0.00    -0.028 A 
HETATM   11  C   UNL     1     -40.548  51.860 -54.274  1.00  0.00     0.041 C 
HETATM   12  C   UNL     1     -39.654  50.611 -54.235  1.00  0.00     0.005 C 
HETATM   13  C   UNL     1     -39.791  49.850 -52.912  1.00  0.00     0.005 C 
HETATM   14  C   UNL     1     -39.365  50.725 -51.727  1.00  0.00     0.047 C 
ENDROOT
BRANCH   6  15
HETATM   15  N   UNL     1     -42.114  54.683 -54.861  1.00  0.00    -0.340 N 
HETATM   16  H   UNL     1     -42.308  53.717 -55.062  1.00  0.00     0.167 HD
BRANCH  15  17
HETATM   17  C   UNL     1     -42.398  55.541 -55.942  1.00  0.00     0.036 A 
HETATM   18  C   UNL     1     -42.097  56.908 -55.797  1.00  0.00     0.069 A 
HETATM   19  C   UNL     1     -42.389  57.771 -56.834  1.00  0.00     0.107 A 
HETATM   20  C   UNL     1     -42.972  57.334 -57.997  1.00  0.00     0.105 A 
HETATM   21  O   UNL     1     -42.151  59.110 -56.844  1.00  0.00    -0.323 OA
HETATM   22  O   UNL     1     -43.174  58.339 -58.888  1.00  0.00    -0.323 OA
HETATM   23  C   UNL     1     -43.299  56.012 -58.180  1.00  0.00     0.042 A 
HETATM   24  C   UNL     1     -42.652  59.463 -58.151  1.00  0.00     0.352 A 
HETATM   25  C   UNL     1     -43.013  55.117 -57.139  1.00  0.00     0.032 A 
ENDBRANCH  15  17
ENDBRANCH   6  15
TORSDOF 2
ENDMDL
MODEL 4
REMARK VINA RESULT:      -7.9      2.085      2.336
REMARK  2 active torsions:
REMARK  status: ('A' for Active; 'I' for Inactive)
REMARK    1  A    between atoms: C_6  and  N_7 
REMARK    2  A    between atoms: N_7  and  C_8 
ROOT
HETATM    1  C   UNL     1     -43.091  60.069 -52.898  1.00  0.00     0.093 C 
HETATM    2  C   UNL     1     -42.590  58.696 -53.225  1.00  0.00     0.125 A 
HETATM    3  N   UNL     1     -42.261  57.904 -52.206  1.00  0.00    -0.226 NA
HETATM    4  C   UNL     1     -41.799  56.708 -52.598  1.00  0.00     0.114 A 
HETATM    5  C   UNL     1     -41.638  56.256 -53.903  1.00  0.00     0.053 A 
HETATM    6  C   UNL     1     -42.045  57.164 -54.917  1.00  0.00     0.143 A 
HETATM    7  N   UNL     1     -42.504  58.379 -54.526  1.00  0.00    -0.215 NA
HETATM    8  S   UNL     1     -41.353  55.558 -51.425  1.00  0.00    -0.073 SA
HETATM    9  C   UNL     1     -40.927  54.425 -52.611  1.00  0.00    -0.008 A 
HETATM   10  C   UNL     1     -41.080  54.911 -53.900  1.00  0.00    -0.028 A 
HETATM   11  C   UNL     1     -40.727  54.058 -55.088  1.00  0.00     0.041 C 
HETATM   12  C   UNL     1     -39.915  52.810 -54.706  1.00  0.00     0.005 C 
HETATM   13  C   UNL     1     -40.471  52.127 -53.452  1.00  0.00     0.005 C 
HETATM   14  C   UNL     1     -40.413  53.068 -52.242  1.00  0.00     0.047 C 
ENDROOT
BRANCH   6  15
HETATM   15  N   UNL     1     -41.973  56.848 -56.283  1.00  0.00    -0.340 N 
HETATM   16  H   UNL     1     -41.085  56.469 -56.564  1.00  0.00     0.167 HD
BRANCH  15  17
HETATM   17  C   UNL     1     -42.940  56.816 -57.307  1.00  0.00     0.036 A 
HETATM   18  C   UNL     1     -43.045  55.643 -58.079  1.00  0.00     0.069 A 
HETATM   19  C   UNL     1     -43.968  55.598 -59.104  1.00  0.00     0.107 A 
HETATM   20  C   UNL     1     -44.778  56.667 -59.396  1.00  0.00     0.105 A 
HETATM   21  O   UNL     1     -44.190  54.538 -59.927  1.00  0.00    -0.323 OA
HETATM   22  O   UNL     1     -45.615  56.417 -60.437  1.00  0.00    -0.323 OA
HETATM   23  C   UNL     1     -44.702  57.838 -58.681  1.00  0.00     0.042 A 
HETATM   24  C   UNL     1     -45.236  55.066 -60.770  1.00  0.00     0.352 A 
HETATM   25  C   UNL     1     -43.770  57.907 -57.636  1.00  0.00     0.032 A 
ENDBRANCH  15  17
ENDBRANCH   6  15
TORSDOF 2
ENDMDL
MODEL 5
REMARK VINA RESULT:      -7.7      3.289      6.369
REMARK  2 active torsions:
REMARK  status: ('A' for Active; 'I' for Inactive)
REMARK    1  A    between atoms: C_6  and  N_7 
REMARK    2  A    between atoms: N_7  and  C_8 
ROOT
HETATM    1  C   UNL     1     -45.163  59.127 -52.335  1.00  0.00     0.093 C 
HETATM    2  C   UNL     1     -44.697  58.522 -53.624  1.00  0.00     0.125 A 
HETATM    3  N   UNL     1     -44.645  59.316 -54.691  1.00  0.00    -0.226 NA
HETATM    4  C   UNL     1     -44.242  58.679 -55.801  1.00  0.00     0.114 A 
HETATM    5  C   UNL     1     -43.904  57.336 -55.923  1.00  0.00     0.053 A 
HETATM    6  C   UNL     1     -43.964  56.582 -54.721  1.00  0.00     0.143 A 
HETATM    7  N   UNL     1     -44.379  57.218 -53.598  1.00  0.00    -0.215 NA
HETATM    8  S   UNL     1     -44.095  59.549 -57.257  1.00  0.00    -0.073 SA
HETATM    9  C   UNL     1     -43.580  58.170 -58.097  1.00  0.00    -0.008 A 
HETATM   10  C   UNL     1     -43.550  57.035 -57.303  1.00  0.00    -0.028 A 
HETATM   11  C   UNL     1     -43.144  55.707 -57.880  1.00  0.00     0.041 C 
HETATM   12  C   UNL     1     -43.106  55.709 -59.416  1.00  0.00     0.005 C 
HETATM   13  C   UNL     1     -42.454  56.980 -59.971  1.00  0.00     0.005 C 
HETATM   14  C   UNL     1     -43.241  58.229 -59.555  1.00  0.00     0.047 C 
ENDROOT
BRANCH   6  15
HETATM   15  N   UNL     1     -43.626  55.220 -54.671  1.00  0.00    -0.340 N 
HETATM   16  H   UNL     1     -44.132  54.652 -55.328  1.00  0.00     0.167 HD
BRANCH  15  17
HETATM   17  C   UNL     1     -42.615  54.512 -53.991  1.00  0.00     0.036 A 
HETATM   18  C   UNL     1     -41.961  53.471 -54.677  1.00  0.00     0.069 A 
HETATM   19  C   UNL     1     -40.986  52.748 -54.022  1.00  0.00     0.107 A 
HETATM   20  C   UNL     1     -40.641  53.010 -52.720  1.00  0.00     0.105 A 
HETATM   21  O   UNL     1     -40.265  51.723 -54.553  1.00  0.00    -0.323 OA
HETATM   22  O   UNL     1     -39.660  52.189 -52.265  1.00  0.00    -0.323 OA
HETATM   23  C   UNL     1     -41.260  54.007 -52.004  1.00  0.00     0.042 A 
HETATM   24  C   UNL     1     -39.426  51.374 -53.431  1.00  0.00     0.352 A 
HETATM   25  C   UNL     1     -42.257  54.753 -52.648  1.00  0.00     0.032 A 
ENDBRANCH  15  17
ENDBRANCH   6  15
TORSDOF 2
ENDMDL
MODEL 6
REMARK VINA RESULT:      -7.7      1.900      4.402
REMARK  2 active torsions:
REMARK  status: ('A' for Active; 'I' for Inactive)
REMARK    1  A    between atoms: C_6  and  N_7 
REMARK    2  A    between atoms: N_7  and  C_8 
ROOT
HETATM    1  C   UNL     1     -40.566  52.127 -54.185  1.00  0.00     0.093 C 
HETATM    2  C   UNL     1     -41.297  53.421 -53.999  1.00  0.00     0.125 A 
HETATM    3  N   UNL     1     -41.892  53.627 -52.826  1.00  0.00    -0.226 NA
HETATM    4  C   UNL     1     -42.542  54.798 -52.763  1.00  0.00     0.114 A 
HETATM    5  C   UNL     1     -42.647  55.754 -53.767  1.00  0.00     0.053 A 
HETATM    6  C   UNL     1     -41.954  55.454 -54.969  1.00  0.00     0.143 A 
HETATM    7  N   UNL     1     -41.302  54.267 -55.042  1.00  0.00    -0.215 NA
HETATM    8  S   UNL     1     -43.341  55.236 -51.326  1.00  0.00    -0.073 SA
HETATM    9  C   UNL     1     -43.855  56.708 -51.989  1.00  0.00    -0.008 A 
HETATM   10  C   UNL     1     -43.465  56.869 -53.309  1.00  0.00    -0.028 A 
HETATM   11  C   UNL     1     -43.851  58.103 -54.077  1.00  0.00     0.041 C 
HETATM   12  C   UNL     1     -44.937  58.930 -53.371  1.00  0.00     0.005 C 
HETATM   13  C   UNL     1     -44.675  59.055 -51.867  1.00  0.00     0.005 C 
HETATM   14  C   UNL     1     -44.673  57.677 -51.192  1.00  0.00     0.047 C 
ENDROOT
BRANCH   6  15
HETATM   15  N   UNL     1     -41.937  56.330 -56.067  1.00  0.00    -0.340 N 
HETATM   16  H   UNL     1     -41.112  56.901 -56.117  1.00  0.00     0.167 HD
BRANCH  15  17
HETATM   17  C   UNL     1     -42.774  56.465 -57.192  1.00  0.00     0.036 A 
HETATM   18  C   UNL     1     -43.098  55.303 -57.918  1.00  0.00     0.069 A 
HETATM   19  C   UNL     1     -43.896  55.415 -59.038  1.00  0.00     0.107 A 
HETATM   20  C   UNL     1     -44.373  56.627 -59.469  1.00  0.00     0.105 A 
HETATM   21  O   UNL     1     -44.298  54.387 -59.833  1.00  0.00    -0.323 OA
HETATM   22  O   UNL     1     -45.139  56.519 -60.586  1.00  0.00    -0.323 OA
HETATM   23  C   UNL     1     -44.073  57.791 -58.803  1.00  0.00     0.042 A 
HETATM   24  C   UNL     1     -45.086  55.096 -60.813  1.00  0.00     0.352 A 
HETATM   25  C   UNL     1     -43.262  57.702 -57.663  1.00  0.00     0.032 A 
ENDBRANCH  15  17
ENDBRANCH   6  15
TORSDOF 2
ENDMDL
MODEL 7
REMARK VINA RESULT:      -7.7      2.041      2.384
REMARK  2 active torsions:
REMARK  status: ('A' for Active; 'I' for Inactive)
REMARK    1  A    between atoms: C_6  and  N_7 
REMARK    2  A    between atoms: N_7  and  C_8 
ROOT
HETATM    1  C   UNL     1     -45.345  58.527 -51.201  1.00  0.00     0.093 C 
HETATM    2  C   UNL     1     -44.417  57.615 -51.942  1.00  0.00     0.125 A 
HETATM    3  N   UNL     1     -43.992  56.524 -51.309  1.00  0.00    -0.226 NA
HETATM    4  C   UNL     1     -43.147  55.785 -52.043  1.00  0.00     0.114 A 
HETATM    5  C   UNL     1     -42.697  56.055 -53.331  1.00  0.00     0.053 A 
HETATM    6  C   UNL     1     -43.231  57.227 -53.929  1.00  0.00     0.143 A 
HETATM    7  N   UNL     1     -44.079  57.983 -53.189  1.00  0.00    -0.215 NA
HETATM    8  S   UNL     1     -42.523  54.339 -51.398  1.00  0.00    -0.073 SA
HETATM    9  C   UNL     1     -41.633  54.026 -52.805  1.00  0.00    -0.008 A 
HETATM   10  C   UNL     1     -41.764  55.022 -53.759  1.00  0.00    -0.028 A 
HETATM   11  C   UNL     1     -41.027  54.933 -55.067  1.00  0.00     0.041 C 
HETATM   12  C   UNL     1     -39.930  53.856 -55.061  1.00  0.00     0.005 C 
HETATM   13  C   UNL     1     -40.404  52.559 -54.397  1.00  0.00     0.005 C 
HETATM   14  C   UNL     1     -40.783  52.798 -52.931  1.00  0.00     0.047 C 
ENDROOT
BRANCH   6  15
HETATM   15  N   UNL     1     -42.898  57.622 -55.235  1.00  0.00    -0.340 N 
HETATM   16  H   UNL     1     -41.993  58.055 -55.309  1.00  0.00     0.167 HD
BRANCH  15  17
HETATM   17  C   UNL     1     -43.511  57.401 -56.484  1.00  0.00     0.036 A 
HETATM   18  C   UNL     1     -44.719  58.070 -56.755  1.00  0.00     0.069 A 
HETATM   19  C   UNL     1     -45.349  57.849 -57.962  1.00  0.00     0.107 A 
HETATM   20  C   UNL     1     -44.836  56.990 -58.900  1.00  0.00     0.105 A 
HETATM   21  O   UNL     1     -46.513  58.426 -58.368  1.00  0.00    -0.323 OA
HETATM   22  O   UNL     1     -45.606  56.916 -60.017  1.00  0.00    -0.323 OA
HETATM   23  C   UNL     1     -43.667  56.302 -58.677  1.00  0.00     0.042 A 
HETATM   24  C   UNL     1     -46.669  57.829 -59.673  1.00  0.00     0.352 A 
HETATM   25  C   UNL     1     -43.010  56.509 -57.456  1.00  0.00     0.032 A 
ENDBRANCH  15  17
ENDBRANCH   6  15
TORSDOF 2
ENDMDL
MODEL 8
REMARK VINA RESULT:      -7.5      3.496      5.866
REMARK  2 active torsions:
REMARK  status: ('A' for Active; 'I' for Inactive)
REMARK    1  A    between atoms: C_6  and  N_7 
REMARK    2  A    between atoms: N_7  and  C_8 
ROOT
HETATM    1  C   UNL     1     -43.532  56.737 -57.685  1.00  0.00     0.093 C 
HETATM    2  C   UNL     1     -43.112  56.190 -56.356  1.00  0.00     0.125 A 
HETATM    3  N   UNL     1     -42.112  55.310 -56.341  1.00  0.00    -0.226 NA
HETATM    4  C   UNL     1     -41.826  54.859 -55.112  1.00  0.00     0.114 A 
HETATM    5  C   UNL     1     -42.456  55.206 -53.922  1.00  0.00     0.053 A 
HETATM    6  C   UNL     1     -43.490  56.173 -54.040  1.00  0.00     0.143 A 
HETATM    7  N   UNL     1     -43.790  56.626 -55.282  1.00  0.00    -0.215 NA
HETATM    8  S   UNL     1     -40.557  53.744 -54.904  1.00  0.00    -0.073 SA
HETATM    9  C   UNL     1     -40.805  53.683 -53.229  1.00  0.00    -0.008 A 
HETATM   10  C   UNL     1     -41.867  54.469 -52.813  1.00  0.00    -0.028 A 
HETATM   11  C   UNL     1     -42.258  54.524 -51.361  1.00  0.00     0.041 C 
HETATM   12  C   UNL     1     -41.599  53.416 -50.524  1.00  0.00     0.005 C 
HETATM   13  C   UNL     1     -40.120  53.233 -50.879  1.00  0.00     0.005 C 
HETATM   14  C   UNL     1     -39.953  52.823 -52.347  1.00  0.00     0.047 C 
ENDROOT
BRANCH   6  15
HETATM   15  N   UNL     1     -44.204  56.649 -52.929  1.00  0.00    -0.340 N 
HETATM   16  H   UNL     1     -44.838  55.976 -52.535  1.00  0.00     0.167 HD
BRANCH  15  17
HETATM   17  C   UNL     1     -44.104  57.829 -52.164  1.00  0.00     0.036 A 
HETATM   18  C   UNL     1     -45.188  58.173 -51.336  1.00  0.00     0.069 A 
HETATM   19  C   UNL     1     -45.121  59.337 -50.598  1.00  0.00     0.107 A 
HETATM   20  C   UNL     1     -44.033  60.171 -50.656  1.00  0.00     0.105 A 
HETATM   21  O   UNL     1     -46.082  59.796 -49.750  1.00  0.00    -0.323 OA
HETATM   22  O   UNL     1     -44.165  61.258 -49.853  1.00  0.00    -0.323 OA
HETATM   23  C   UNL     1     -42.956  59.885 -51.461  1.00  0.00     0.042 A 
HETATM   24  C   UNL     1     -45.467  61.016 -49.282  1.00  0.00     0.352 A 
HETATM   25  C   UNL     1     -43.002  58.708 -52.222  1.00  0.00     0.032 A 
ENDBRANCH  15  17
ENDBRANCH   6  15
TORSDOF 2
ENDMDL
MODEL 9
REMARK VINA RESULT:      -7.5      3.468      6.527
REMARK  2 active torsions:
REMARK  status: ('A' for Active; 'I' for Inactive)
REMARK    1  A    between atoms: C_6  and  N_7 
REMARK    2  A    between atoms: N_7  and  C_8 
ROOT
HETATM    1  C   UNL     1     -41.390  58.308 -50.773  1.00  0.00     0.093 C 
HETATM    2  C   UNL     1     -41.717  57.855 -52.162  1.00  0.00     0.125 A 
HETATM    3  N   UNL     1     -42.558  58.605 -52.871  1.00  0.00    -0.226 NA
HETATM    4  C   UNL     1     -42.810  58.106 -54.090  1.00  0.00     0.114 A 
HETATM    5  C   UNL     1     -42.302  56.933 -54.638  1.00  0.00     0.053 A 
HETATM    6  C   UNL     1     -41.391  56.220 -53.814  1.00  0.00     0.143 A 
HETATM    7  N   UNL     1     -41.140  56.716 -52.576  1.00  0.00    -0.215 NA
HETATM    8  S   UNL     1     -43.847  58.950 -55.142  1.00  0.00    -0.073 SA
HETATM    9  C   UNL     1     -43.659  57.786 -56.358  1.00  0.00    -0.008 A 
HETATM   10  C   UNL     1     -42.846  56.732 -55.974  1.00  0.00    -0.028 A 
HETATM   11  C   UNL     1     -42.581  55.586 -56.911  1.00  0.00     0.041 C 
HETATM   12  C   UNL     1     -43.532  55.571 -58.119  1.00  0.00     0.005 C 
HETATM   13  C   UNL     1     -43.728  56.971 -58.709  1.00  0.00     0.005 C 
HETATM   14  C   UNL     1     -44.352  57.920 -57.679  1.00  0.00     0.047 C 
ENDROOT
BRANCH   6  15
HETATM   15  N   UNL     1     -40.770  55.033 -54.232  1.00  0.00    -0.340 N 
HETATM   16  H   UNL     1     -40.383  55.083 -55.159  1.00  0.00     0.167 HD
BRANCH  15  17
HETATM   17  C   UNL     1     -40.447  53.837 -53.561  1.00  0.00     0.036 A 
HETATM   18  C   UNL     1     -40.227  52.683 -54.337  1.00  0.00     0.069 A 
HETATM   19  C   UNL     1     -39.935  51.494 -53.699  1.00  0.00     0.107 A 
HETATM   20  C   UNL     1     -39.862  51.405 -52.332  1.00  0.00     0.105 A 
HETATM   21  O   UNL     1     -39.692  50.304 -54.311  1.00  0.00    -0.323 OA
HETATM   22  O   UNL     1     -39.561  50.150 -51.907  1.00  0.00    -0.323 OA
HETATM   23  C   UNL     1     -40.083  52.500 -51.531  1.00  0.00     0.042 A 
HETATM   24  C   UNL     1     -39.455  49.456 -53.166  1.00  0.00     0.352 A 
HETATM   25  C   UNL     1     -40.384  53.718 -52.157  1.00  0.00     0.032 A 
ENDBRANCH  15  17
ENDBRANCH   6  15
TORSDOF 2
ENDMDL
MODEL 10
REMARK VINA RESULT:      -7.5      1.682      4.346
REMARK  2 active torsions:
REMARK  status: ('A' for Active; 'I' for Inactive)
REMARK    1  A    between atoms: C_6  and  N_7 
REMARK    2  A    between atoms: N_7  and  C_8 
ROOT
HETATM    1  C   UNL     1     -40.261  52.108 -54.001  1.00  0.00     0.093 C 
HETATM    2  C   UNL     1     -41.032  53.387 -53.890  1.00  0.00     0.125 A 
HETATM    3  N   UNL     1     -40.860  54.114 -52.788  1.00  0.00    -0.226 NA
HETATM    4  C   UNL     1     -41.610  55.226 -52.768  1.00  0.00     0.114 A 
HETATM    5  C   UNL     1     -42.507  55.651 -53.742  1.00  0.00     0.053 A 
HETATM    6  C   UNL     1     -42.597  54.821 -54.891  1.00  0.00     0.143 A 
HETATM    7  N   UNL     1     -41.847  53.691 -54.912  1.00  0.00    -0.215 NA
HETATM    8  S   UNL     1     -41.498  56.287 -51.442  1.00  0.00    -0.073 SA
HETATM    9  C   UNL     1     -42.639  57.344 -52.115  1.00  0.00    -0.008 A 
HETATM   10  C   UNL     1     -43.144  56.892 -53.324  1.00  0.00    -0.028 A 
HETATM   11  C   UNL     1     -44.189  57.684 -54.062  1.00  0.00     0.041 C 
HETATM   12  C   UNL     1     -44.820  58.789 -53.200  1.00  0.00     0.005 C 
HETATM   13  C   UNL     1     -43.770  59.545 -52.380  1.00  0.00     0.005 C 
HETATM   14  C   UNL     1     -43.043  58.603 -51.412  1.00  0.00     0.047 C 
ENDROOT
BRANCH   6  15
HETATM   15  N   UNL     1     -43.435  55.127 -55.975  1.00  0.00    -0.340 N 
HETATM   16  H   UNL     1     -44.414  55.024 -55.772  1.00  0.00     0.167 HD
BRANCH  15  17
HETATM   17  C   UNL     1     -43.188  55.692 -57.242  1.00  0.00     0.036 A 
HETATM   18  C   UNL     1     -42.632  56.984 -57.293  1.00  0.00     0.069 A 
HETATM   19  C   UNL     1     -42.406  57.566 -58.523  1.00  0.00     0.107 A 
HETATM   20  C   UNL     1     -42.716  56.925 -59.695  1.00  0.00     0.105 A 
HETATM   21  O   UNL     1     -41.869  58.799 -58.731  1.00  0.00    -0.323 OA
HETATM   22  O   UNL     1     -42.413  57.669 -60.791  1.00  0.00    -0.323 OA
HETATM   23  C   UNL     1     -43.274  55.670 -59.698  1.00  0.00     0.042 A 
HETATM   24  C   UNL     1     -41.878  58.857 -60.174  1.00  0.00     0.352 A 
HETATM   25  C   UNL     1     -43.515  55.059 -58.459  1.00  0.00     0.032 A 
ENDBRANCH  15  17
ENDBRANCH   6  15
TORSDOF 2
ENDMDL
