MODEL 1
REMARK VINA RESULT:      -8.2      0.000      0.000
REMARK  6 active torsions:
REMARK  status: ('A' for Active; 'I' for Inactive)
REMARK    1  A    between atoms: C_3  and  C_4 
REMARK    2  A    between atoms: C_9  and  N_10 
REMARK       I    between atoms: N_10  and  C_11 
REMARK       I    between atoms: C_11  and  N_12 
REMARK    3  A    between atoms: N_12  and  C_13 
REMARK    4  A    between atoms: C_13  and  C_14 
REMARK    5  A    between atoms: C_14  and  C_15 
REMARK    6  A    between atoms: C_18  and  N_19 
ROOT
HETATM    1  N   UNL     1     -41.996  57.970 -53.713  1.00  0.00    -0.309 N 
HETATM    2  C   UNL     1     -41.012  58.567 -52.973  1.00  0.00     0.320 C 
HETATM    3  N   UNL     1     -41.022  58.285 -51.639  1.00  0.00    -0.343 N 
HETATM    4  O   UNL     1     -40.126  59.302 -53.395  1.00  0.00    -0.247 OA
HETATM    5  H   UNL     1     -42.589  57.322 -53.224  1.00  0.00     0.170 HD
HETATM    6  H   UNL     1     -40.239  58.710 -51.155  1.00  0.00     0.164 HD
ENDROOT
BRANCH   3   7
HETATM    7  C   UNL     1     -41.902  57.430 -50.858  1.00  0.00     0.129 C 
BRANCH   7   8
HETATM    8  C   UNL     1     -41.160  56.372 -50.034  1.00  0.00     0.058 C 
BRANCH   8   9
HETATM    9  C   UNL     1     -40.858  55.110 -50.805  1.00  0.00    -0.057 A 
HETATM   10  C   UNL     1     -40.183  54.049 -50.191  1.00  0.00     0.009 A 
HETATM   11  C   UNL     1     -39.920  52.873 -50.898  1.00  0.00     0.032 A 
HETATM   12  C   UNL     1     -40.322  52.742 -52.235  1.00  0.00     0.058 A 
HETATM   13  C   UNL     1     -40.985  53.807 -52.857  1.00  0.00     0.032 A 
HETATM   14  C   UNL     1     -41.252  54.980 -52.143  1.00  0.00     0.009 A 
BRANCH  12  15
HETATM   15  N   UNL     1     -40.056  51.529 -52.929  1.00  0.00    -0.246 N 
HETATM   16  N   UNL     1     -39.587  50.434 -52.271  1.00  0.00    -0.180 NA
HETATM   17  C   UNL     1     -39.471  49.494 -53.209  1.00  0.00     0.140 A 
HETATM   18  C   UNL     1     -39.848  49.953 -54.477  1.00  0.00     0.040 A 
HETATM   19  C   UNL     1     -40.218  51.261 -54.274  1.00  0.00     0.120 A 
ENDBRANCH  12  15
ENDBRANCH   8   9
ENDBRANCH   7   8
ENDBRANCH   3   7
BRANCH   1  20
HETATM   20  C   UNL     1     -42.230  58.090 -55.097  1.00  0.00     0.036 A 
HETATM   21  C   UNL     1     -42.189  59.294 -55.794  1.00  0.00     0.030 A 
HETATM   22  C   UNL     1     -42.448  59.327 -57.168  1.00  0.00     0.018 A 
HETATM   23  C   UNL     1     -42.739  58.150 -57.873  1.00  0.00     0.015 A 
HETATM   24  C   UNL     1     -42.774  56.922 -57.186  1.00  0.00    -0.046 A 
HETATM   25  C   UNL     1     -43.069  55.615 -57.873  1.00  0.00     0.049 C 
HETATM   26  C   UNL     1     -42.534  56.914 -55.798  1.00  0.00     0.037 A 
BRANCH  23  27
HETATM   27  C   UNL     1     -43.031  58.236 -59.336  1.00  0.00     0.156 C 
HETATM   28  C   UNL     1     -41.883  58.111 -60.304  1.00  0.00     0.097 C 
HETATM   29  O   UNL     1     -44.176  58.431 -59.734  1.00  0.00    -0.293 OA
ENDBRANCH  23  27
ENDBRANCH   1  20
TORSDOF 6
ENDMDL
MODEL 2
REMARK VINA RESULT:      -8.2      1.480      1.999
REMARK  6 active torsions:
REMARK  status: ('A' for Active; 'I' for Inactive)
REMARK    1  A    between atoms: C_3  and  C_4 
REMARK    2  A    between atoms: C_9  and  N_10 
REMARK       I    between atoms: N_10  and  C_11 
REMARK       I    between atoms: C_11  and  N_12 
REMARK    3  A    between atoms: N_12  and  C_13 
REMARK    4  A    between atoms: C_13  and  C_14 
REMARK    5  A    between atoms: C_14  and  C_15 
REMARK    6  A    between atoms: C_18  and  N_19 
ROOT
HETATM    1  N   UNL     1     -42.396  57.152 -53.997  1.00  0.00    -0.309 N 
HETATM    2  C   UNL     1     -43.324  57.577 -53.087  1.00  0.00     0.320 C 
HETATM    3  N   UNL     1     -42.865  57.765 -51.817  1.00  0.00    -0.343 N 
HETATM    4  O   UNL     1     -44.506  57.820 -53.309  1.00  0.00    -0.247 OA
HETATM    5  H   UNL     1     -41.447  57.089 -53.669  1.00  0.00     0.170 HD
HETATM    6  H   UNL     1     -43.584  58.132 -51.203  1.00  0.00     0.164 HD
ENDROOT
BRANCH   3   7
HETATM    7  C   UNL     1     -41.531  57.606 -51.259  1.00  0.00     0.129 C 
BRANCH   7   8
HETATM    8  C   UNL     1     -41.413  56.441 -50.270  1.00  0.00     0.058 C 
BRANCH   8   9
HETATM    9  C   UNL     1     -41.011  55.139 -50.919  1.00  0.00    -0.057 A 
HETATM   10  C   UNL     1     -40.644  54.040 -50.134  1.00  0.00     0.009 A 
HETATM   11  C   UNL     1     -40.290  52.828 -50.733  1.00  0.00     0.032 A 
HETATM   12  C   UNL     1     -40.289  52.699 -52.130  1.00  0.00     0.058 A 
HETATM   13  C   UNL     1     -40.641  53.800 -52.919  1.00  0.00     0.032 A 
HETATM   14  C   UNL     1     -41.001  55.010 -52.314  1.00  0.00     0.009 A 
BRANCH  12  15
HETATM   15  N   UNL     1     -39.940  51.450 -52.716  1.00  0.00    -0.246 N 
HETATM   16  N   UNL     1     -39.620  50.378 -51.941  1.00  0.00    -0.180 NA
HETATM   17  C   UNL     1     -39.369  49.394 -52.805  1.00  0.00     0.140 A 
HETATM   18  C   UNL     1     -39.508  49.802 -54.137  1.00  0.00     0.040 A 
HETATM   19  C   UNL     1     -39.874  51.125 -54.056  1.00  0.00     0.120 A 
ENDBRANCH  12  15
ENDBRANCH   8   9
ENDBRANCH   7   8
ENDBRANCH   3   7
BRANCH   1  20
HETATM   20  C   UNL     1     -42.590  56.870 -55.363  1.00  0.00     0.036 A 
HETATM   21  C   UNL     1     -42.734  55.586 -55.882  1.00  0.00     0.030 A 
HETATM   22  C   UNL     1     -42.910  55.392 -57.256  1.00  0.00     0.018 A 
HETATM   23  C   UNL     1     -42.960  56.484 -58.136  1.00  0.00     0.015 A 
HETATM   24  C   UNL     1     -42.827  57.789 -57.626  1.00  0.00    -0.046 A 
HETATM   25  C   UNL     1     -42.880  59.012 -58.504  1.00  0.00     0.049 C 
HETATM   26  C   UNL     1     -42.626  57.962 -56.243  1.00  0.00     0.037 A 
BRANCH  23  27
HETATM   27  C   UNL     1     -43.127  56.228 -59.598  1.00  0.00     0.156 C 
HETATM   28  C   UNL     1     -44.506  55.910 -60.117  1.00  0.00     0.097 C 
HETATM   29  O   UNL     1     -42.157  56.250 -60.351  1.00  0.00    -0.293 OA
ENDBRANCH  23  27
ENDBRANCH   1  20
TORSDOF 6
ENDMDL
MODEL 3
REMARK VINA RESULT:      -7.9      2.931      7.424
REMARK  6 active torsions:
REMARK  status: ('A' for Active; 'I' for Inactive)
REMARK    1  A    between atoms: C_3  and  C_4 
REMARK    2  A    between atoms: C_9  and  N_10 
REMARK       I    between atoms: N_10  and  C_11 
REMARK       I    between atoms: C_11  and  N_12 
REMARK    3  A    between atoms: N_12  and  C_13 
REMARK    4  A    between atoms: C_13  and  C_14 
REMARK    5  A    between atoms: C_14  and  C_15 
REMARK    6  A    between atoms: C_18  and  N_19 
ROOT
HETATM    1  N   UNL     1     -41.549  57.436 -53.789  1.00  0.00    -0.309 N 
HETATM    2  C   UNL     1     -40.840  58.549 -53.433  1.00  0.00     0.320 C 
HETATM    3  N   UNL     1     -41.485  59.740 -53.596  1.00  0.00    -0.343 N 
HETATM    4  O   UNL     1     -39.705  58.574 -52.968  1.00  0.00    -0.247 OA
HETATM    5  H   UNL     1     -42.504  57.586 -54.067  1.00  0.00     0.170 HD
HETATM    6  H   UNL     1     -40.931  60.521 -53.265  1.00  0.00     0.164 HD
ENDROOT
BRANCH   3   7
HETATM    7  C   UNL     1     -42.827  60.031 -54.076  1.00  0.00     0.129 C 
BRANCH   7   8
HETATM    8  C   UNL     1     -42.871  60.494 -55.536  1.00  0.00     0.058 C 
BRANCH   8   9
HETATM    9  C   UNL     1     -43.312  59.416 -56.497  1.00  0.00    -0.057 A 
HETATM   10  C   UNL     1     -44.671  59.215 -56.761  1.00  0.00     0.009 A 
HETATM   11  C   UNL     1     -45.079  58.230 -57.665  1.00  0.00     0.032 A 
HETATM   12  C   UNL     1     -44.133  57.424 -58.313  1.00  0.00     0.058 A 
HETATM   13  C   UNL     1     -42.772  57.612 -58.040  1.00  0.00     0.032 A 
HETATM   14  C   UNL     1     -42.368  58.604 -57.140  1.00  0.00     0.009 A 
BRANCH  12  15
HETATM   15  N   UNL     1     -44.572  56.438 -59.240  1.00  0.00    -0.246 N 
HETATM   16  N   UNL     1     -45.620  56.679 -60.074  1.00  0.00    -0.180 NA
HETATM   17  C   UNL     1     -45.742  55.568 -60.801  1.00  0.00     0.140 A 
HETATM   18  C   UNL     1     -44.796  54.595 -60.454  1.00  0.00     0.040 A 
HETATM   19  C   UNL     1     -44.058  55.174 -59.450  1.00  0.00     0.120 A 
ENDBRANCH  12  15
ENDBRANCH   8   9
ENDBRANCH   7   8
ENDBRANCH   3   7
BRANCH   1  20
HETATM   20  C   UNL     1     -41.133  56.091 -53.736  1.00  0.00     0.036 A 
HETATM   21  C   UNL     1     -40.545  55.413 -54.802  1.00  0.00     0.030 A 
HETATM   22  C   UNL     1     -40.173  54.072 -54.669  1.00  0.00     0.018 A 
HETATM   23  C   UNL     1     -40.368  53.387 -53.461  1.00  0.00     0.015 A 
HETATM   24  C   UNL     1     -40.950  54.060 -52.370  1.00  0.00    -0.046 A 
HETATM   25  C   UNL     1     -41.184  53.398 -51.039  1.00  0.00     0.049 C 
HETATM   26  C   UNL     1     -41.341  55.404 -52.532  1.00  0.00     0.037 A 
BRANCH  23  27
HETATM   27  C   UNL     1     -39.975  51.949 -53.373  1.00  0.00     0.156 C 
HETATM   28  C   UNL     1     -40.623  50.969 -54.317  1.00  0.00     0.097 C 
HETATM   29  O   UNL     1     -39.163  51.574 -52.531  1.00  0.00    -0.293 OA
ENDBRANCH  23  27
ENDBRANCH   1  20
TORSDOF 6
ENDMDL
MODEL 4
REMARK VINA RESULT:      -7.9      3.041      6.905
REMARK  6 active torsions:
REMARK  status: ('A' for Active; 'I' for Inactive)
REMARK    1  A    between atoms: C_3  and  C_4 
REMARK    2  A    between atoms: C_9  and  N_10 
REMARK       I    between atoms: N_10  and  C_11 
REMARK       I    between atoms: C_11  and  N_12 
REMARK    3  A    between atoms: N_12  and  C_13 
REMARK    4  A    between atoms: C_13  and  C_14 
REMARK    5  A    between atoms: C_14  and  C_15 
REMARK    6  A    between atoms: C_18  and  N_19 
ROOT
HETATM    1  N   UNL     1     -42.315  56.696 -51.750  1.00  0.00    -0.309 N 
HETATM    2  C   UNL     1     -41.763  57.703 -51.007  1.00  0.00     0.320 C 
HETATM    3  N   UNL     1     -42.535  58.817 -50.855  1.00  0.00    -0.343 N 
HETATM    4  O   UNL     1     -40.667  57.689 -50.458  1.00  0.00    -0.247 OA
HETATM    5  H   UNL     1     -43.264  56.835 -52.053  1.00  0.00     0.170 HD
HETATM    6  H   UNL     1     -42.096  59.504 -50.251  1.00  0.00     0.164 HD
ENDROOT
BRANCH   3   7
HETATM    7  C   UNL     1     -43.873  59.115 -51.340  1.00  0.00     0.129 C 
BRANCH   7   8
HETATM    8  C   UNL     1     -43.891  60.016 -52.580  1.00  0.00     0.058 C 
BRANCH   8   9
HETATM    9  C   UNL     1     -43.900  59.250 -53.881  1.00  0.00    -0.057 A 
HETATM   10  C   UNL     1     -42.699  58.950 -54.534  1.00  0.00     0.009 A 
HETATM   11  C   UNL     1     -42.705  58.224 -55.728  1.00  0.00     0.032 A 
HETATM   12  C   UNL     1     -43.914  57.795 -56.294  1.00  0.00     0.058 A 
HETATM   13  C   UNL     1     -45.119  58.106 -55.651  1.00  0.00     0.032 A 
HETATM   14  C   UNL     1     -45.107  58.827 -54.452  1.00  0.00     0.009 A 
BRANCH  12  15
HETATM   15  N   UNL     1     -43.893  57.044 -57.502  1.00  0.00    -0.246 N 
HETATM   16  N   UNL     1     -44.714  57.364 -58.539  1.00  0.00    -0.180 NA
HETATM   17  C   UNL     1     -44.420  56.480 -59.493  1.00  0.00     0.140 A 
HETATM   18  C   UNL     1     -43.425  55.577 -59.099  1.00  0.00     0.040 A 
HETATM   19  C   UNL     1     -43.103  55.957 -57.819  1.00  0.00     0.120 A 
ENDBRANCH  12  15
ENDBRANCH   8   9
ENDBRANCH   7   8
ENDBRANCH   3   7
BRANCH   1  20
HETATM   20  C   UNL     1     -41.746  55.449 -52.074  1.00  0.00     0.036 A 
HETATM   21  C   UNL     1     -41.684  54.367 -51.200  1.00  0.00     0.030 A 
HETATM   22  C   UNL     1     -41.089  53.167 -51.599  1.00  0.00     0.018 A 
HETATM   23  C   UNL     1     -40.555  53.022 -52.888  1.00  0.00     0.015 A 
HETATM   24  C   UNL     1     -40.619  54.102 -53.788  1.00  0.00    -0.046 A 
HETATM   25  C   UNL     1     -40.078  54.021 -55.191  1.00  0.00     0.049 C 
HETATM   26  C   UNL     1     -41.201  55.310 -53.359  1.00  0.00     0.037 A 
BRANCH  23  27
HETATM   27  C   UNL     1     -39.908  51.728 -53.262  1.00  0.00     0.156 C 
HETATM   28  C   UNL     1     -40.593  50.853 -54.280  1.00  0.00     0.097 C 
HETATM   29  O   UNL     1     -38.858  51.378 -52.731  1.00  0.00    -0.293 OA
ENDBRANCH  23  27
ENDBRANCH   1  20
TORSDOF 6
ENDMDL
MODEL 5
REMARK VINA RESULT:      -7.8      2.700      6.344
REMARK  6 active torsions:
REMARK  status: ('A' for Active; 'I' for Inactive)
REMARK    1  A    between atoms: C_3  and  C_4 
REMARK    2  A    between atoms: C_9  and  N_10 
REMARK       I    between atoms: N_10  and  C_11 
REMARK       I    between atoms: C_11  and  N_12 
REMARK    3  A    between atoms: N_12  and  C_13 
REMARK    4  A    between atoms: C_13  and  C_14 
REMARK    5  A    between atoms: C_14  and  C_15 
REMARK    6  A    between atoms: C_18  and  N_19 
ROOT
HETATM    1  N   UNL     1     -40.904  55.483 -51.039  1.00  0.00    -0.309 N 
HETATM    2  C   UNL     1     -41.201  54.463 -50.178  1.00  0.00     0.320 C 
HETATM    3  N   UNL     1     -40.594  53.270 -50.442  1.00  0.00    -0.343 N 
HETATM    4  O   UNL     1     -41.933  54.526 -49.196  1.00  0.00    -0.247 OA
HETATM    5  H   UNL     1     -40.212  55.286 -51.741  1.00  0.00     0.170 HD
HETATM    6  H   UNL     1     -40.809  52.571 -49.740  1.00  0.00     0.164 HD
ENDROOT
BRANCH   3   7
HETATM    7  C   UNL     1     -39.656  52.897 -51.489  1.00  0.00     0.129 C 
BRANCH   7   8
HETATM    8  C   UNL     1     -40.314  52.202 -52.685  1.00  0.00     0.058 C 
BRANCH   8   9
HETATM    9  C   UNL     1     -40.960  53.159 -53.658  1.00  0.00    -0.057 A 
HETATM   10  C   UNL     1     -42.306  53.515 -53.515  1.00  0.00     0.009 A 
HETATM   11  C   UNL     1     -42.899  54.416 -54.403  1.00  0.00     0.032 A 
HETATM   12  C   UNL     1     -42.156  54.970 -55.456  1.00  0.00     0.058 A 
HETATM   13  C   UNL     1     -40.813  54.605 -55.611  1.00  0.00     0.032 A 
HETATM   14  C   UNL     1     -40.222  53.708 -54.715  1.00  0.00     0.009 A 
BRANCH  12  15
HETATM   15  N   UNL     1     -42.778  55.897 -56.338  1.00  0.00    -0.246 N 
HETATM   16  N   UNL     1     -43.228  57.100 -55.886  1.00  0.00    -0.180 NA
HETATM   17  C   UNL     1     -43.728  57.704 -56.964  1.00  0.00     0.140 A 
HETATM   18  C   UNL     1     -43.624  56.917 -58.117  1.00  0.00     0.040 A 
HETATM   19  C   UNL     1     -43.013  55.761 -57.692  1.00  0.00     0.120 A 
ENDBRANCH  12  15
ENDBRANCH   8   9
ENDBRANCH   7   8
ENDBRANCH   3   7
BRANCH   1  20
HETATM   20  C   UNL     1     -41.390  56.805 -51.013  1.00  0.00     0.036 A 
HETATM   21  C   UNL     1     -40.675  57.890 -50.513  1.00  0.00     0.030 A 
HETATM   22  C   UNL     1     -41.237  59.170 -50.512  1.00  0.00     0.018 A 
HETATM   23  C   UNL     1     -42.523  59.391 -51.027  1.00  0.00     0.015 A 
HETATM   24  C   UNL     1     -43.255  58.308 -51.548  1.00  0.00    -0.046 A 
HETATM   25  C   UNL     1     -44.636  58.465 -52.127  1.00  0.00     0.049 C 
HETATM   26  C   UNL     1     -42.681  57.022 -51.516  1.00  0.00     0.037 A 
BRANCH  23  27
HETATM   27  C   UNL     1     -43.091  60.772 -50.986  1.00  0.00     0.156 C 
HETATM   28  C   UNL     1     -43.817  61.211 -49.740  1.00  0.00     0.097 C 
HETATM   29  O   UNL     1     -42.992  61.518 -51.956  1.00  0.00    -0.293 OA
ENDBRANCH  23  27
ENDBRANCH   1  20
TORSDOF 6
ENDMDL
MODEL 6
REMARK VINA RESULT:      -7.7     15.507     18.791
REMARK  6 active torsions:
REMARK  status: ('A' for Active; 'I' for Inactive)
REMARK    1  A    between atoms: C_3  and  C_4 
REMARK    2  A    between atoms: C_9  and  N_10 
REMARK       I    between atoms: N_10  and  C_11 
REMARK       I    between atoms: C_11  and  N_12 
REMARK    3  A    between atoms: N_12  and  C_13 
REMARK    4  A    between atoms: C_13  and  C_14 
REMARK    5  A    between atoms: C_14  and  C_15 
REMARK    6  A    between atoms: C_18  and  N_19 
ROOT
HETATM    1  N   UNL     1     -34.005  41.143 -53.629  1.00  0.00    -0.309 N 
HETATM    2  C   UNL     1     -33.828  40.701 -54.910  1.00  0.00     0.320 C 
HETATM    3  N   UNL     1     -34.490  41.400 -55.875  1.00  0.00    -0.343 N 
HETATM    4  O   UNL     1     -33.122  39.763 -55.268  1.00  0.00    -0.247 OA
HETATM    5  H   UNL     1     -34.545  41.985 -53.519  1.00  0.00     0.170 HD
HETATM    6  H   UNL     1     -34.276  41.061 -56.806  1.00  0.00     0.164 HD
ENDROOT
BRANCH   3   7
HETATM    7  C   UNL     1     -35.354  42.566 -55.775  1.00  0.00     0.129 C 
BRANCH   7   8
HETATM    8  C   UNL     1     -36.847  42.237 -55.881  1.00  0.00     0.058 C 
BRANCH   8   9
HETATM    9  C   UNL     1     -37.201  41.440 -57.114  1.00  0.00    -0.057 A 
HETATM   10  C   UNL     1     -36.869  41.919 -58.386  1.00  0.00     0.009 A 
HETATM   11  C   UNL     1     -37.179  41.174 -59.527  1.00  0.00     0.032 A 
HETATM   12  C   UNL     1     -37.836  39.940 -59.413  1.00  0.00     0.058 A 
HETATM   13  C   UNL     1     -38.184  39.465 -58.143  1.00  0.00     0.032 A 
HETATM   14  C   UNL     1     -37.865  40.212 -57.003  1.00  0.00     0.009 A 
BRANCH  12  15
HETATM   15  N   UNL     1     -38.128  39.193 -60.588  1.00  0.00    -0.246 N 
HETATM   16  N   UNL     1     -37.409  39.374 -61.730  1.00  0.00    -0.180 NA
HETATM   17  C   UNL     1     -37.934  38.516 -62.605  1.00  0.00     0.140 A 
HETATM   18  C   UNL     1     -38.993  37.778 -62.062  1.00  0.00     0.040 A 
HETATM   19  C   UNL     1     -39.101  38.229 -60.768  1.00  0.00     0.120 A 
ENDBRANCH  12  15
ENDBRANCH   8   9
ENDBRANCH   7   8
ENDBRANCH   3   7
BRANCH   1  20
HETATM   20  C   UNL     1     -33.456  40.611 -52.446  1.00  0.00     0.036 A 
HETATM   21  C   UNL     1     -32.097  40.620 -52.143  1.00  0.00     0.030 A 
HETATM   22  C   UNL     1     -31.633  40.057 -50.950  1.00  0.00     0.018 A 
HETATM   23  C   UNL     1     -32.525  39.486 -50.030  1.00  0.00     0.015 A 
HETATM   24  C   UNL     1     -33.903  39.479 -50.315  1.00  0.00    -0.046 A 
HETATM   25  C   UNL     1     -34.923  38.895 -49.374  1.00  0.00     0.049 C 
HETATM   26  C   UNL     1     -34.348  40.029 -51.532  1.00  0.00     0.037 A 
BRANCH  23  27
HETATM   27  C   UNL     1     -31.981  38.876 -48.779  1.00  0.00     0.156 C 
HETATM   28  C   UNL     1     -31.450  39.793 -47.707  1.00  0.00     0.097 C 
HETATM   29  O   UNL     1     -31.946  37.656 -48.642  1.00  0.00    -0.293 OA
ENDBRANCH  23  27
ENDBRANCH   1  20
TORSDOF 6
ENDMDL
MODEL 7
REMARK VINA RESULT:      -7.5      1.872      2.567
REMARK  6 active torsions:
REMARK  status: ('A' for Active; 'I' for Inactive)
REMARK    1  A    between atoms: C_3  and  C_4 
REMARK    2  A    between atoms: C_9  and  N_10 
REMARK       I    between atoms: N_10  and  C_11 
REMARK       I    between atoms: C_11  and  N_12 
REMARK    3  A    between atoms: N_12  and  C_13 
REMARK    4  A    between atoms: C_13  and  C_14 
REMARK    5  A    between atoms: C_14  and  C_15 
REMARK    6  A    between atoms: C_18  and  N_19 
ROOT
HETATM    1  N   UNL     1     -42.228  58.320 -55.495  1.00  0.00    -0.309 N 
HETATM    2  C   UNL     1     -41.975  59.500 -54.852  1.00  0.00     0.320 C 
HETATM    3  N   UNL     1     -41.167  59.415 -53.756  1.00  0.00    -0.343 N 
HETATM    4  O   UNL     1     -42.381  60.611 -55.176  1.00  0.00    -0.247 OA
HETATM    5  H   UNL     1     -41.740  57.511 -55.150  1.00  0.00     0.170 HD
HETATM    6  H   UNL     1     -40.971  60.326 -53.356  1.00  0.00     0.164 HD
ENDROOT
BRANCH   3   7
HETATM    7  C   UNL     1     -40.505  58.268 -53.155  1.00  0.00     0.129 C 
BRANCH   7   8
HETATM    8  C   UNL     1     -41.462  57.316 -52.429  1.00  0.00     0.058 C 
BRANCH   8   9
HETATM    9  C   UNL     1     -41.141  55.857 -52.646  1.00  0.00    -0.057 A 
HETATM   10  C   UNL     1     -40.865  55.377 -53.931  1.00  0.00     0.009 A 
HETATM   11  C   UNL     1     -40.550  54.030 -54.132  1.00  0.00     0.032 A 
HETATM   12  C   UNL     1     -40.512  53.140 -53.049  1.00  0.00     0.058 A 
HETATM   13  C   UNL     1     -40.802  53.614 -51.763  1.00  0.00     0.032 A 
HETATM   14  C   UNL     1     -41.111  54.965 -51.567  1.00  0.00     0.009 A 
BRANCH  12  15
HETATM   15  N   UNL     1     -40.173  51.777 -53.276  1.00  0.00    -0.246 N 
HETATM   16  N   UNL     1     -40.347  51.207 -54.499  1.00  0.00    -0.180 NA
HETATM   17  C   UNL     1     -39.918  49.953 -54.356  1.00  0.00     0.140 A 
HETATM   18  C   UNL     1     -39.472  49.684 -53.056  1.00  0.00     0.040 A 
HETATM   19  C   UNL     1     -39.646  50.868 -52.380  1.00  0.00     0.120 A 
ENDBRANCH  12  15
ENDBRANCH   8   9
ENDBRANCH   7   8
ENDBRANCH   3   7
BRANCH   1  20
HETATM   20  C   UNL     1     -43.028  58.112 -56.635  1.00  0.00     0.036 A 
HETATM   21  C   UNL     1     -42.524  57.809 -57.897  1.00  0.00     0.030 A 
HETATM   22  C   UNL     1     -43.389  57.630 -58.982  1.00  0.00     0.018 A 
HETATM   23  C   UNL     1     -44.778  57.737 -58.819  1.00  0.00     0.015 A 
HETATM   24  C   UNL     1     -45.305  58.031 -57.548  1.00  0.00    -0.046 A 
HETATM   25  C   UNL     1     -46.783  58.153 -57.291  1.00  0.00     0.049 C 
HETATM   26  C   UNL     1     -44.416  58.232 -56.474  1.00  0.00     0.037 A 
BRANCH  23  27
HETATM   27  C   UNL     1     -45.662  57.560 -60.011  1.00  0.00     0.156 C 
HETATM   28  C   UNL     1     -46.067  56.162 -60.401  1.00  0.00     0.097 C 
HETATM   29  O   UNL     1     -46.025  58.531 -60.669  1.00  0.00    -0.293 OA
ENDBRANCH  23  27
ENDBRANCH   1  20
TORSDOF 6
ENDMDL
MODEL 8
REMARK VINA RESULT:      -7.3      3.232      7.627
REMARK  6 active torsions:
REMARK  status: ('A' for Active; 'I' for Inactive)
REMARK    1  A    between atoms: C_3  and  C_4 
REMARK    2  A    between atoms: C_9  and  N_10 
REMARK       I    between atoms: N_10  and  C_11 
REMARK       I    between atoms: C_11  and  N_12 
REMARK    3  A    between atoms: N_12  and  C_13 
REMARK    4  A    between atoms: C_13  and  C_14 
REMARK    5  A    between atoms: C_14  and  C_15 
REMARK    6  A    between atoms: C_18  and  N_19 
ROOT
HETATM    1  N   UNL     1     -42.889  57.058 -51.680  1.00  0.00    -0.309 N 
HETATM    2  C   UNL     1     -44.117  57.378 -51.172  1.00  0.00     0.320 C 
HETATM    3  N   UNL     1     -44.510  58.672 -51.345  1.00  0.00    -0.343 N 
HETATM    4  O   UNL     1     -44.894  56.617 -50.605  1.00  0.00    -0.247 OA
HETATM    5  H   UNL     1     -42.419  57.780 -52.198  1.00  0.00     0.170 HD
HETATM    6  H   UNL     1     -45.449  58.835 -50.999  1.00  0.00     0.164 HD
ENDROOT
BRANCH   3   7
HETATM    7  C   UNL     1     -43.842  59.784 -52.004  1.00  0.00     0.129 C 
BRANCH   7   8
HETATM    8  C   UNL     1     -44.552  60.261 -53.276  1.00  0.00     0.058 C 
BRANCH   8   9
HETATM    9  C   UNL     1     -44.107  59.535 -54.523  1.00  0.00    -0.057 A 
HETATM   10  C   UNL     1     -44.962  58.625 -55.155  1.00  0.00     0.009 A 
HETATM   11  C   UNL     1     -44.559  57.966 -56.319  1.00  0.00     0.032 A 
HETATM   12  C   UNL     1     -43.289  58.201 -56.866  1.00  0.00     0.058 A 
HETATM   13  C   UNL     1     -42.425  59.100 -56.228  1.00  0.00     0.032 A 
HETATM   14  C   UNL     1     -42.836  59.762 -55.066  1.00  0.00     0.009 A 
BRANCH  12  15
HETATM   15  N   UNL     1     -42.908  57.530 -58.061  1.00  0.00    -0.246 N 
HETATM   16  N   UNL     1     -43.415  56.305 -58.369  1.00  0.00    -0.180 NA
HETATM   17  C   UNL     1     -42.864  55.991 -59.541  1.00  0.00     0.140 A 
HETATM   18  C   UNL     1     -41.995  56.985 -60.009  1.00  0.00     0.040 A 
HETATM   19  C   UNL     1     -42.037  57.962 -59.043  1.00  0.00     0.120 A 
ENDBRANCH  12  15
ENDBRANCH   8   9
ENDBRANCH   7   8
ENDBRANCH   3   7
BRANCH   1  20
HETATM   20  C   UNL     1     -42.233  55.811 -51.636  1.00  0.00     0.036 A 
HETATM   21  C   UNL     1     -42.481  54.768 -52.524  1.00  0.00     0.030 A 
HETATM   22  C   UNL     1     -41.795  53.555 -52.402  1.00  0.00     0.018 A 
HETATM   23  C   UNL     1     -40.834  53.371 -51.397  1.00  0.00     0.015 A 
HETATM   24  C   UNL     1     -40.563  54.420 -50.499  1.00  0.00    -0.046 A 
HETATM   25  C   UNL     1     -39.540  54.303 -49.400  1.00  0.00     0.049 C 
HETATM   26  C   UNL     1     -41.283  55.624 -50.623  1.00  0.00     0.037 A 
BRANCH  23  27
HETATM   27  C   UNL     1     -40.141  52.051 -51.292  1.00  0.00     0.156 C 
HETATM   28  C   UNL     1     -39.296  51.591 -52.452  1.00  0.00     0.097 C 
HETATM   29  O   UNL     1     -40.282  51.350 -50.293  1.00  0.00    -0.293 OA
ENDBRANCH  23  27
ENDBRANCH   1  20
TORSDOF 6
ENDMDL
MODEL 9
REMARK VINA RESULT:      -7.2      2.403      3.031
REMARK  6 active torsions:
REMARK  status: ('A' for Active; 'I' for Inactive)
REMARK    1  A    between atoms: C_3  and  C_4 
REMARK    2  A    between atoms: C_9  and  N_10 
REMARK       I    between atoms: N_10  and  C_11 
REMARK       I    between atoms: C_11  and  N_12 
REMARK    3  A    between atoms: N_12  and  C_13 
REMARK    4  A    between atoms: C_13  and  C_14 
REMARK    5  A    between atoms: C_14  and  C_15 
REMARK    6  A    between atoms: C_18  and  N_19 
ROOT
HETATM    1  N   UNL     1     -43.965  57.884 -55.806  1.00  0.00    -0.309 N 
HETATM    2  C   UNL     1     -42.837  58.633 -55.618  1.00  0.00     0.320 C 
HETATM    3  N   UNL     1     -42.249  58.519 -54.393  1.00  0.00    -0.343 N 
HETATM    4  O   UNL     1     -42.302  59.367 -56.442  1.00  0.00    -0.247 OA
HETATM    5  H   UNL     1     -44.218  57.263 -55.057  1.00  0.00     0.170 HD
HETATM    6  H   UNL     1     -41.389  59.053 -54.333  1.00  0.00     0.164 HD
ENDROOT
BRANCH   3   7
HETATM    7  C   UNL     1     -42.613  57.711 -53.239  1.00  0.00     0.129 C 
BRANCH   7   8
HETATM    8  C   UNL     1     -41.410  57.242 -52.413  1.00  0.00     0.058 C 
BRANCH   8   9
HETATM    9  C   UNL     1     -41.075  55.783 -52.612  1.00  0.00    -0.057 A 
HETATM   10  C   UNL     1     -40.947  55.255 -53.901  1.00  0.00     0.009 A 
HETATM   11  C   UNL     1     -40.618  53.910 -54.086  1.00  0.00     0.032 A 
HETATM   12  C   UNL     1     -40.419  53.068 -52.982  1.00  0.00     0.058 A 
HETATM   13  C   UNL     1     -40.561  53.589 -51.690  1.00  0.00     0.032 A 
HETATM   14  C   UNL     1     -40.884  54.939 -51.511  1.00  0.00     0.009 A 
BRANCH  12  15
HETATM   15  N   UNL     1     -40.070  51.705 -53.196  1.00  0.00    -0.246 N 
HETATM   16  N   UNL     1     -39.751  50.892 -52.152  1.00  0.00    -0.180 NA
HETATM   17  C   UNL     1     -39.498  49.707 -52.707  1.00  0.00     0.140 A 
HETATM   18  C   UNL     1     -39.637  49.726 -54.101  1.00  0.00     0.040 A 
HETATM   19  C   UNL     1     -40.003  51.018 -54.392  1.00  0.00     0.120 A 
ENDBRANCH  12  15
ENDBRANCH   8   9
ENDBRANCH   7   8
ENDBRANCH   3   7
BRANCH   1  20
HETATM   20  C   UNL     1     -44.775  57.814 -56.957  1.00  0.00     0.036 A 
HETATM   21  C   UNL     1     -46.063  58.336 -57.038  1.00  0.00     0.030 A 
HETATM   22  C   UNL     1     -46.806  58.211 -58.217  1.00  0.00     0.018 A 
HETATM   23  C   UNL     1     -46.265  57.573 -59.343  1.00  0.00     0.015 A 
HETATM   24  C   UNL     1     -44.960  57.050 -59.282  1.00  0.00    -0.046 A 
HETATM   25  C   UNL     1     -44.307  56.360 -60.450  1.00  0.00     0.049 C 
HETATM   26  C   UNL     1     -44.238  57.164 -58.078  1.00  0.00     0.037 A 
BRANCH  23  27
HETATM   27  C   UNL     1     -47.103  57.444 -60.573  1.00  0.00     0.156 C 
HETATM   28  C   UNL     1     -47.525  58.702 -61.288  1.00  0.00     0.097 C 
HETATM   29  O   UNL     1     -47.460  56.339 -60.972  1.00  0.00    -0.293 OA
ENDBRANCH  23  27
ENDBRANCH   1  20
TORSDOF 6
ENDMDL
MODEL 10
REMARK VINA RESULT:      -7.1     15.437     17.843
REMARK  6 active torsions:
REMARK  status: ('A' for Active; 'I' for Inactive)
REMARK    1  A    between atoms: C_3  and  C_4 
REMARK    2  A    between atoms: C_9  and  N_10 
REMARK       I    between atoms: N_10  and  C_11 
REMARK       I    between atoms: C_11  and  N_12 
REMARK    3  A    between atoms: N_12  and  C_13 
REMARK    4  A    between atoms: C_13  and  C_14 
REMARK    5  A    between atoms: C_14  and  C_15 
REMARK    6  A    between atoms: C_18  and  N_19 
ROOT
HETATM    1  N   UNL     1     -34.679  41.163 -53.654  1.00  0.00    -0.309 N 
HETATM    2  C   UNL     1     -35.097  41.855 -52.551  1.00  0.00     0.320 C 
HETATM    3  N   UNL     1     -34.450  41.560 -51.388  1.00  0.00    -0.343 N 
HETATM    4  O   UNL     1     -35.970  42.716 -52.517  1.00  0.00    -0.247 OA
HETATM    5  H   UNL     1     -33.887  40.557 -53.526  1.00  0.00     0.170 HD
HETATM    6  H   UNL     1     -34.764  42.142 -50.620  1.00  0.00     0.164 HD
ENDROOT
BRANCH   3   7
HETATM    7  C   UNL     1     -33.361  40.633 -51.118  1.00  0.00     0.129 C 
BRANCH   7   8
HETATM    8  C   UNL     1     -33.796  39.381 -50.350  1.00  0.00     0.058 C 
BRANCH   8   9
HETATM    9  C   UNL     1     -33.018  39.156 -49.075  1.00  0.00    -0.057 A 
HETATM   10  C   UNL     1     -31.858  39.893 -48.814  1.00  0.00     0.009 A 
HETATM   11  C   UNL     1     -31.148  39.699 -47.627  1.00  0.00     0.032 A 
HETATM   12  C   UNL     1     -31.583  38.757 -46.684  1.00  0.00     0.058 A 
HETATM   13  C   UNL     1     -32.735  38.006 -46.948  1.00  0.00     0.032 A 
HETATM   14  C   UNL     1     -33.447  38.209 -48.136  1.00  0.00     0.009 A 
BRANCH  12  15
HETATM   15  N   UNL     1     -30.852  38.588 -45.475  1.00  0.00    -0.246 N 
HETATM   16  N   UNL     1     -29.755  39.349 -45.209  1.00  0.00    -0.180 NA
HETATM   17  C   UNL     1     -29.339  38.941 -44.009  1.00  0.00     0.140 A 
HETATM   18  C   UNL     1     -30.139  37.919 -43.483  1.00  0.00     0.040 A 
HETATM   19  C   UNL     1     -31.102  37.708 -44.441  1.00  0.00     0.120 A 
ENDBRANCH  12  15
ENDBRANCH   8   9
ENDBRANCH   7   8
ENDBRANCH   3   7
BRANCH   1  20
HETATM   20  C   UNL     1     -35.171  41.256 -54.971  1.00  0.00     0.036 A 
HETATM   21  C   UNL     1     -34.384  41.557 -56.079  1.00  0.00     0.030 A 
HETATM   22  C   UNL     1     -34.955  41.643 -57.353  1.00  0.00     0.018 A 
HETATM   23  C   UNL     1     -36.326  41.414 -57.543  1.00  0.00     0.015 A 
HETATM   24  C   UNL     1     -37.134  41.096 -56.435  1.00  0.00    -0.046 A 
HETATM   25  C   UNL     1     -38.610  40.827 -56.559  1.00  0.00     0.049 C 
HETATM   26  C   UNL     1     -36.544  41.039 -55.158  1.00  0.00     0.037 A 
BRANCH  23  27
HETATM   27  C   UNL     1     -36.896  41.538 -58.918  1.00  0.00     0.156 C 
HETATM   28  C   UNL     1     -37.052  40.288 -59.745  1.00  0.00     0.097 C 
HETATM   29  O   UNL     1     -37.205  42.638 -59.369  1.00  0.00    -0.293 OA
ENDBRANCH  23  27
ENDBRANCH   1  20
TORSDOF 6
ENDMDL
