MODEL 1
REMARK VINA RESULT:      -7.3      0.000      0.000
REMARK  8 active torsions:
REMARK  status: ('A' for Active; 'I' for Inactive)
REMARK    1  A    between atoms: C_2  and  C_3 
REMARK    2  A    between atoms: C_3  and  O_4 
REMARK    3  A    between atoms: O_4  and  C_5 
REMARK    4  A    between atoms: C_8  and  C_9 
REMARK    5  A    between atoms: C_13  and  C_14 
REMARK       I    between atoms: C_14  and  N_15 
REMARK    6  A    between atoms: N_15  and  N_16 
REMARK    7  A    between atoms: C_17  and  C_18 
REMARK    8  A    between atoms: C_21  and  O_22 
ROOT
HETATM    1  C   UNL     1     -41.886  55.590 -55.275  1.00  0.00     0.089 A 
HETATM    2  N   UNL     1     -42.013  56.891 -54.974  1.00  0.00    -0.174 NA
HETATM    3  N   UNL     1     -42.592  57.435 -56.055  1.00  0.00    -0.272 N 
HETATM    4  H   UNL     1     -42.790  58.432 -56.061  1.00  0.00     0.189 HD
HETATM    5  C   UNL     1     -42.879  56.541 -57.048  1.00  0.00     0.121 A 
HETATM    6  C   UNL     1     -42.412  55.331 -56.573  1.00  0.00     0.071 A 
ENDROOT
BRANCH   5   7
HETATM    7  C   UNL     1     -43.547  56.957 -58.256  1.00  0.00     0.289 C 
HETATM    8  N   UNL     1     -44.850  57.396 -58.073  1.00  0.00    -0.242 N 
HETATM    9  H   UNL     1     -45.261  57.408 -57.151  1.00  0.00     0.192 HD
HETATM   10  O   UNL     1     -42.972  56.921 -59.341  1.00  0.00    -0.264 OA
BRANCH   8  11
HETATM   11  N   UNL     1     -45.572  57.870 -59.129  1.00  0.00    -0.184 NA
HETATM   12  C   UNL     1     -46.471  57.065 -59.598  1.00  0.00     0.150 C 
BRANCH  12  13
HETATM   13  C   UNL     1     -47.338  57.444 -60.732  1.00  0.00    -0.017 A 
HETATM   14  C   UNL     1     -47.833  56.479 -61.610  1.00  0.00     0.016 A 
HETATM   15  C   UNL     1     -48.653  56.867 -62.672  1.00  0.00     0.037 A 
HETATM   16  C   UNL     1     -48.988  58.211 -62.860  1.00  0.00     0.068 A 
HETATM   17  C   UNL     1     -48.484  59.173 -61.981  1.00  0.00     0.037 A 
HETATM   18  C   UNL     1     -47.659  58.791 -60.918  1.00  0.00     0.016 A 
BRANCH  16  19
HETATM   19  O   UNL     1     -49.802  58.451 -63.933  1.00  0.00    -0.356 OA
HETATM   20  C   UNL     1     -50.682  59.564 -63.837  1.00  0.00     0.210 C 
ENDBRANCH  16  19
ENDBRANCH  12  13
ENDBRANCH   8  11
ENDBRANCH   5   7
BRANCH   1  21
HETATM   21  C   UNL     1     -41.309  54.631 -54.329  1.00  0.00    -0.005 A 
HETATM   22  C   UNL     1     -40.617  53.504 -54.795  1.00  0.00     0.016 A 
HETATM   23  C   UNL     1     -40.021  52.603 -53.903  1.00  0.00     0.037 A 
HETATM   24  C   UNL     1     -40.114  52.815 -52.529  1.00  0.00     0.068 A 
HETATM   25  C   UNL     1     -40.825  53.919 -52.057  1.00  0.00     0.037 A 
HETATM   26  C   UNL     1     -41.416  54.824 -52.946  1.00  0.00     0.016 A 
BRANCH  24  27
HETATM   27  O   UNL     1     -39.569  52.026 -51.554  1.00  0.00    -0.351 OA
BRANCH  27  28
HETATM   28  C   UNL     1     -40.334  51.856 -50.360  1.00  0.00     0.175 C 
BRANCH  28  29
HETATM   29  C   UNL     1     -40.239  50.389 -49.950  1.00  0.00     0.022 C 
HETATM   30  C   UNL     1     -39.730  49.517 -51.084  1.00  0.00     0.007 C 
ENDBRANCH  28  29
ENDBRANCH  27  28
ENDBRANCH  24  27
ENDBRANCH   1  21
TORSDOF 8
ENDMDL
MODEL 2
REMARK VINA RESULT:      -7.2      7.630     11.611
REMARK  8 active torsions:
REMARK  status: ('A' for Active; 'I' for Inactive)
REMARK    1  A    between atoms: C_2  and  C_3 
REMARK    2  A    between atoms: C_3  and  O_4 
REMARK    3  A    between atoms: O_4  and  C_5 
REMARK    4  A    between atoms: C_8  and  C_9 
REMARK    5  A    between atoms: C_13  and  C_14 
REMARK       I    between atoms: C_14  and  N_15 
REMARK    6  A    between atoms: N_15  and  N_16 
REMARK    7  A    between atoms: C_17  and  C_18 
REMARK    8  A    between atoms: C_21  and  O_22 
ROOT
HETATM    1  C   UNL     1     -43.247  61.822 -50.743  1.00  0.00     0.089 A 
HETATM    2  N   UNL     1     -43.406  62.264 -51.999  1.00  0.00    -0.174 NA
HETATM    3  N   UNL     1     -42.767  61.364 -52.760  1.00  0.00    -0.272 N 
HETATM    4  H   UNL     1     -42.749  61.492 -53.768  1.00  0.00     0.189 HD
HETATM    5  C   UNL     1     -42.216  60.327 -52.061  1.00  0.00     0.121 A 
HETATM    6  C   UNL     1     -42.498  60.611 -50.739  1.00  0.00     0.071 A 
ENDROOT
BRANCH   5   7
HETATM    7  C   UNL     1     -41.536  59.249 -52.736  1.00  0.00     0.289 C 
HETATM    8  N   UNL     1     -41.819  57.987 -52.235  1.00  0.00    -0.242 N 
HETATM    9  H   UNL     1     -42.455  57.874 -51.460  1.00  0.00     0.192 HD
HETATM   10  O   UNL     1     -40.783  59.469 -53.680  1.00  0.00    -0.264 OA
BRANCH   8  11
HETATM   11  N   UNL     1     -41.283  56.877 -52.823  1.00  0.00    -0.184 NA
HETATM   12  C   UNL     1     -41.437  55.770 -52.170  1.00  0.00     0.150 C 
BRANCH  12  13
HETATM   13  C   UNL     1     -40.922  54.486 -52.685  1.00  0.00    -0.017 A 
HETATM   14  C   UNL     1     -40.791  54.264 -54.056  1.00  0.00     0.016 A 
HETATM   15  C   UNL     1     -40.300  53.040 -54.514  1.00  0.00     0.037 A 
HETATM   16  C   UNL     1     -39.932  52.036 -53.613  1.00  0.00     0.068 A 
HETATM   17  C   UNL     1     -40.072  52.262 -52.241  1.00  0.00     0.037 A 
HETATM   18  C   UNL     1     -40.567  53.486 -51.776  1.00  0.00     0.016 A 
BRANCH  16  19
HETATM   19  O   UNL     1     -39.461  50.892 -54.194  1.00  0.00    -0.356 OA
HETATM   20  C   UNL     1     -39.628  49.683 -53.464  1.00  0.00     0.210 C 
ENDBRANCH  16  19
ENDBRANCH  12  13
ENDBRANCH   8  11
ENDBRANCH   5   7
BRANCH   1  21
HETATM   21  C   UNL     1     -43.827  62.526 -49.597  1.00  0.00    -0.005 A 
HETATM   22  C   UNL     1     -44.606  61.835 -48.659  1.00  0.00     0.016 A 
HETATM   23  C   UNL     1     -45.130  62.486 -47.534  1.00  0.00     0.037 A 
HETATM   24  C   UNL     1     -44.883  63.842 -47.334  1.00  0.00     0.068 A 
HETATM   25  C   UNL     1     -44.132  64.544 -48.277  1.00  0.00     0.037 A 
HETATM   26  C   UNL     1     -43.603  63.895 -49.399  1.00  0.00     0.016 A 
BRANCH  24  27
HETATM   27  O   UNL     1     -45.319  64.592 -46.277  1.00  0.00    -0.351 OA
BRANCH  27  28
HETATM   28  C   UNL     1     -45.872  63.882 -45.168  1.00  0.00     0.175 C 
BRANCH  28  29
HETATM   29  C   UNL     1     -45.155  64.355 -43.907  1.00  0.00     0.022 C 
HETATM   30  C   UNL     1     -44.061  63.392 -43.483  1.00  0.00     0.007 C 
ENDBRANCH  28  29
ENDBRANCH  27  28
ENDBRANCH  24  27
ENDBRANCH   1  21
TORSDOF 8
ENDMDL
MODEL 3
REMARK VINA RESULT:      -7.1      4.442     11.849
REMARK  8 active torsions:
REMARK  status: ('A' for Active; 'I' for Inactive)
REMARK    1  A    between atoms: C_2  and  C_3 
REMARK    2  A    between atoms: C_3  and  O_4 
REMARK    3  A    between atoms: O_4  and  C_5 
REMARK    4  A    between atoms: C_8  and  C_9 
REMARK    5  A    between atoms: C_13  and  C_14 
REMARK       I    between atoms: C_14  and  N_15 
REMARK    6  A    between atoms: N_15  and  N_16 
REMARK    7  A    between atoms: C_17  and  C_18 
REMARK    8  A    between atoms: C_21  and  O_22 
ROOT
HETATM    1  C   UNL     1     -42.569  58.991 -59.299  1.00  0.00     0.089 A 
HETATM    2  N   UNL     1     -43.552  58.183 -59.724  1.00  0.00    -0.174 NA
HETATM    3  N   UNL     1     -43.687  57.271 -58.750  1.00  0.00    -0.272 N 
HETATM    4  H   UNL     1     -44.384  56.538 -58.851  1.00  0.00     0.189 HD
HETATM    5  C   UNL     1     -42.853  57.459 -57.684  1.00  0.00     0.121 A 
HETATM    6  C   UNL     1     -42.098  58.565 -58.024  1.00  0.00     0.071 A 
ENDROOT
BRANCH   5   7
HETATM    7  C   UNL     1     -42.906  56.594 -56.532  1.00  0.00     0.289 C 
HETATM    8  N   UNL     1     -42.012  55.535 -56.565  1.00  0.00    -0.242 N 
HETATM    9  H   UNL     1     -41.389  55.414 -57.351  1.00  0.00     0.192 HD
HETATM   10  O   UNL     1     -43.687  56.815 -55.610  1.00  0.00    -0.264 OA
BRANCH   8  11
HETATM   11  N   UNL     1     -41.923  54.675 -55.509  1.00  0.00    -0.184 NA
HETATM   12  C   UNL     1     -40.725  54.439 -55.079  1.00  0.00     0.150 C 
BRANCH  12  13
HETATM   13  C   UNL     1     -40.471  53.540 -53.936  1.00  0.00    -0.017 A 
HETATM   14  C   UNL     1     -40.707  53.961 -52.626  1.00  0.00     0.016 A 
HETATM   15  C   UNL     1     -40.459  53.087 -51.566  1.00  0.00     0.037 A 
HETATM   16  C   UNL     1     -39.985  51.793 -51.802  1.00  0.00     0.068 A 
HETATM   17  C   UNL     1     -39.746  51.380 -53.115  1.00  0.00     0.037 A 
HETATM   18  C   UNL     1     -39.987  52.253 -54.182  1.00  0.00     0.016 A 
BRANCH  16  19
HETATM   19  O   UNL     1     -39.792  51.041 -50.676  1.00  0.00    -0.356 OA
HETATM   20  C   UNL     1     -39.486  49.665 -50.865  1.00  0.00     0.210 C 
ENDBRANCH  16  19
ENDBRANCH  12  13
ENDBRANCH   8  11
ENDBRANCH   5   7
BRANCH   1  21
HETATM   21  C   UNL     1     -42.129  60.148 -60.082  1.00  0.00    -0.005 A 
HETATM   22  C   UNL     1     -42.430  60.237 -61.448  1.00  0.00     0.016 A 
HETATM   23  C   UNL     1     -42.054  61.358 -62.200  1.00  0.00     0.037 A 
HETATM   24  C   UNL     1     -41.366  62.407 -61.593  1.00  0.00     0.068 A 
HETATM   25  C   UNL     1     -41.038  62.314 -60.240  1.00  0.00     0.037 A 
HETATM   26  C   UNL     1     -41.417  61.197 -59.486  1.00  0.00     0.016 A 
BRANCH  24  27
HETATM   27  O   UNL     1     -40.955  63.559 -62.204  1.00  0.00    -0.351 OA
BRANCH  27  28
HETATM   28  C   UNL     1     -40.367  63.428 -63.499  1.00  0.00     0.175 C 
BRANCH  28  29
HETATM   29  C   UNL     1     -38.854  63.345 -63.317  1.00  0.00     0.022 C 
HETATM   30  C   UNL     1     -38.383  64.155 -62.123  1.00  0.00     0.007 C 
ENDBRANCH  28  29
ENDBRANCH  27  28
ENDBRANCH  24  27
ENDBRANCH   1  21
TORSDOF 8
ENDMDL
MODEL 4
REMARK VINA RESULT:      -7.1      7.001     12.060
REMARK  8 active torsions:
REMARK  status: ('A' for Active; 'I' for Inactive)
REMARK    1  A    between atoms: C_2  and  C_3 
REMARK    2  A    between atoms: C_3  and  O_4 
REMARK    3  A    between atoms: O_4  and  C_5 
REMARK    4  A    between atoms: C_8  and  C_9 
REMARK    5  A    between atoms: C_13  and  C_14 
REMARK       I    between atoms: C_14  and  N_15 
REMARK    6  A    between atoms: N_15  and  N_16 
REMARK    7  A    between atoms: C_17  and  C_18 
REMARK    8  A    between atoms: C_21  and  O_22 
ROOT
HETATM    1  C   UNL     1     -44.941  60.986 -50.839  1.00  0.00     0.089 A 
HETATM    2  N   UNL     1     -44.174  61.182 -49.756  1.00  0.00    -0.174 NA
HETATM    3  N   UNL     1     -43.189  60.279 -49.869  1.00  0.00    -0.272 N 
HETATM    4  H   UNL     1     -42.474  60.234 -49.148  1.00  0.00     0.189 HD
HETATM    5  C   UNL     1     -43.257  59.512 -50.998  1.00  0.00     0.121 A 
HETATM    6  C   UNL     1     -44.402  59.939 -51.641  1.00  0.00     0.071 A 
ENDROOT
BRANCH   5   7
HETATM    7  C   UNL     1     -42.246  58.526 -51.293  1.00  0.00     0.289 C 
HETATM    8  N   UNL     1     -42.606  57.222 -50.989  1.00  0.00    -0.242 N 
HETATM    9  H   UNL     1     -43.513  57.020 -50.594  1.00  0.00     0.192 HD
HETATM   10  O   UNL     1     -41.168  58.853 -51.783  1.00  0.00    -0.264 OA
BRANCH   8  11
HETATM   11  N   UNL     1     -41.760  56.190 -51.273  1.00  0.00    -0.184 NA
HETATM   12  C   UNL     1     -42.228  55.287 -52.075  1.00  0.00     0.150 C 
BRANCH  12  13
HETATM   13  C   UNL     1     -41.425  54.118 -52.483  1.00  0.00    -0.017 A 
HETATM   14  C   UNL     1     -41.396  53.697 -53.813  1.00  0.00     0.016 A 
HETATM   15  C   UNL     1     -40.626  52.588 -54.169  1.00  0.00     0.037 A 
HETATM   16  C   UNL     1     -39.878  51.899 -53.209  1.00  0.00     0.068 A 
HETATM   17  C   UNL     1     -39.916  52.323 -51.878  1.00  0.00     0.037 A 
HETATM   18  C   UNL     1     -40.690  53.430 -51.514  1.00  0.00     0.016 A 
BRANCH  16  19
HETATM   19  O   UNL     1     -39.165  50.838 -53.694  1.00  0.00    -0.356 OA
HETATM   20  C   UNL     1     -39.880  49.877 -54.460  1.00  0.00     0.210 C 
ENDBRANCH  16  19
ENDBRANCH  12  13
ENDBRANCH   8  11
ENDBRANCH   5   7
BRANCH   1  21
HETATM   21  C   UNL     1     -46.128  61.802 -51.103  1.00  0.00    -0.005 A 
HETATM   22  C   UNL     1     -46.875  61.610 -52.274  1.00  0.00     0.016 A 
HETATM   23  C   UNL     1     -48.038  62.353 -52.518  1.00  0.00     0.037 A 
HETATM   24  C   UNL     1     -48.468  63.302 -51.594  1.00  0.00     0.068 A 
HETATM   25  C   UNL     1     -47.715  63.519 -50.440  1.00  0.00     0.037 A 
HETATM   26  C   UNL     1     -46.555  62.775 -50.191  1.00  0.00     0.016 A 
BRANCH  24  27
HETATM   27  O   UNL     1     -49.587  64.081 -51.702  1.00  0.00    -0.351 OA
BRANCH  27  28
HETATM   28  C   UNL     1     -50.598  63.634 -52.606  1.00  0.00     0.175 C 
BRANCH  28  29
HETATM   29  C   UNL     1     -51.695  62.963 -51.784  1.00  0.00     0.022 C 
HETATM   30  C   UNL     1     -53.081  63.344 -52.273  1.00  0.00     0.007 C 
ENDBRANCH  28  29
ENDBRANCH  27  28
ENDBRANCH  24  27
ENDBRANCH   1  21
TORSDOF 8
ENDMDL
MODEL 5
REMARK VINA RESULT:      -7.0      1.203     11.961
REMARK  8 active torsions:
REMARK  status: ('A' for Active; 'I' for Inactive)
REMARK    1  A    between atoms: C_2  and  C_3 
REMARK    2  A    between atoms: C_3  and  O_4 
REMARK    3  A    between atoms: O_4  and  C_5 
REMARK    4  A    between atoms: C_8  and  C_9 
REMARK    5  A    between atoms: C_13  and  C_14 
REMARK       I    between atoms: C_14  and  N_15 
REMARK    6  A    between atoms: N_15  and  N_16 
REMARK    7  A    between atoms: C_17  and  C_18 
REMARK    8  A    between atoms: C_21  and  O_22 
ROOT
HETATM    1  C   UNL     1     -45.941  57.904 -59.633  1.00  0.00     0.089 A 
HETATM    2  N   UNL     1     -45.607  59.034 -58.992  1.00  0.00    -0.174 NA
HETATM    3  N   UNL     1     -44.635  58.669 -58.144  1.00  0.00    -0.272 N 
HETATM    4  H   UNL     1     -44.218  59.371 -57.538  1.00  0.00     0.189 HD
HETATM    5  C   UNL     1     -44.292  57.348 -58.217  1.00  0.00     0.121 A 
HETATM    6  C   UNL     1     -45.142  56.820 -59.169  1.00  0.00     0.071 A 
ENDROOT
BRANCH   5   7
HETATM    7  C   UNL     1     -43.230  56.807 -57.405  1.00  0.00     0.289 C 
HETATM    8  N   UNL     1     -43.458  55.520 -56.942  1.00  0.00    -0.242 N 
HETATM    9  H   UNL     1     -44.311  55.035 -57.177  1.00  0.00     0.192 HD
HETATM   10  O   UNL     1     -42.216  57.460 -57.173  1.00  0.00    -0.264 OA
BRANCH   8  11
HETATM   11  N   UNL     1     -42.505  54.872 -56.210  1.00  0.00    -0.184 NA
HETATM   12  C   UNL     1     -42.845  54.561 -55.001  1.00  0.00     0.150 C 
BRANCH  12  13
HETATM   13  C   UNL     1     -41.925  53.847 -54.093  1.00  0.00    -0.017 A 
HETATM   14  C   UNL     1     -40.967  52.965 -54.593  1.00  0.00     0.016 A 
HETATM   15  C   UNL     1     -40.109  52.305 -53.710  1.00  0.00     0.037 A 
HETATM   16  C   UNL     1     -40.195  52.525 -52.332  1.00  0.00     0.068 A 
HETATM   17  C   UNL     1     -41.161  53.406 -51.838  1.00  0.00     0.037 A 
HETATM   18  C   UNL     1     -42.027  54.067 -52.717  1.00  0.00     0.016 A 
BRANCH  16  19
HETATM   19  O   UNL     1     -39.293  51.822 -51.583  1.00  0.00    -0.356 OA
HETATM   20  C   UNL     1     -39.486  50.416 -51.494  1.00  0.00     0.210 C 
ENDBRANCH  16  19
ENDBRANCH  12  13
ENDBRANCH   8  11
ENDBRANCH   5   7
BRANCH   1  21
HETATM   21  C   UNL     1     -46.969  57.882 -60.677  1.00  0.00    -0.005 A 
HETATM   22  C   UNL     1     -47.477  56.663 -61.147  1.00  0.00     0.016 A 
HETATM   23  C   UNL     1     -48.492  56.628 -62.112  1.00  0.00     0.037 A 
HETATM   24  C   UNL     1     -49.011  57.815 -62.624  1.00  0.00     0.068 A 
HETATM   25  C   UNL     1     -48.491  59.032 -62.182  1.00  0.00     0.037 A 
HETATM   26  C   UNL     1     -47.480  59.070 -61.214  1.00  0.00     0.016 A 
BRANCH  24  27
HETATM   27  O   UNL     1     -50.007  57.923 -63.554  1.00  0.00    -0.351 OA
BRANCH  27  28
HETATM   28  C   UNL     1     -50.485  59.238 -63.838  1.00  0.00     0.175 C 
BRANCH  28  29
HETATM   29  C   UNL     1     -51.975  59.274 -63.510  1.00  0.00     0.022 C 
HETATM   30  C   UNL     1     -52.224  59.313 -62.013  1.00  0.00     0.007 C 
ENDBRANCH  28  29
ENDBRANCH  27  28
ENDBRANCH  24  27
ENDBRANCH   1  21
TORSDOF 8
ENDMDL
MODEL 6
REMARK VINA RESULT:      -7.0     16.519     21.599
REMARK  8 active torsions:
REMARK  status: ('A' for Active; 'I' for Inactive)
REMARK    1  A    between atoms: C_2  and  C_3 
REMARK    2  A    between atoms: C_3  and  O_4 
REMARK    3  A    between atoms: O_4  and  C_5 
REMARK    4  A    between atoms: C_8  and  C_9 
REMARK    5  A    between atoms: C_13  and  C_14 
REMARK       I    between atoms: C_14  and  N_15 
REMARK    6  A    between atoms: N_15  and  N_16 
REMARK    7  A    between atoms: C_17  and  C_18 
REMARK    8  A    between atoms: C_21  and  O_22 
ROOT
HETATM    1  C   UNL     1     -35.810  41.463 -56.273  1.00  0.00     0.089 A 
HETATM    2  N   UNL     1     -35.144  42.613 -56.084  1.00  0.00    -0.174 NA
HETATM    3  N   UNL     1     -34.812  42.602 -54.784  1.00  0.00    -0.272 N 
HETATM    4  H   UNL     1     -34.294  43.387 -54.400  1.00  0.00     0.189 HD
HETATM    5  C   UNL     1     -35.206  41.479 -54.112  1.00  0.00     0.121 A 
HETATM    6  C   UNL     1     -35.877  40.726 -55.056  1.00  0.00     0.071 A 
ENDROOT
BRANCH   5   7
HETATM    7  C   UNL     1     -34.884  41.291 -52.719  1.00  0.00     0.289 C 
HETATM    8  N   UNL     1     -33.570  40.919 -52.477  1.00  0.00    -0.242 N 
HETATM    9  H   UNL     1     -32.922  40.800 -53.242  1.00  0.00     0.192 HD
HETATM   10  O   UNL     1     -35.729  41.465 -51.845  1.00  0.00    -0.264 OA
BRANCH   8  11
HETATM   11  N   UNL     1     -33.123  40.764 -51.197  1.00  0.00    -0.184 NA
HETATM   12  C   UNL     1     -33.186  39.561 -50.724  1.00  0.00     0.150 C 
BRANCH  12  13
HETATM   13  C   UNL     1     -32.727  39.237 -49.359  1.00  0.00    -0.017 A 
HETATM   14  C   UNL     1     -31.605  39.862 -48.812  1.00  0.00     0.016 A 
HETATM   15  C   UNL     1     -31.196  39.536 -47.517  1.00  0.00     0.037 A 
HETATM   16  C   UNL     1     -31.901  38.595 -46.761  1.00  0.00     0.068 A 
HETATM   17  C   UNL     1     -33.019  37.968 -47.317  1.00  0.00     0.037 A 
HETATM   18  C   UNL     1     -33.433  38.287 -48.616  1.00  0.00     0.016 A 
BRANCH  16  19
HETATM   19  O   UNL     1     -31.398  38.375 -45.509  1.00  0.00    -0.356 OA
HETATM   20  C   UNL     1     -32.272  38.608 -44.413  1.00  0.00     0.210 C 
ENDBRANCH  16  19
ENDBRANCH  12  13
ENDBRANCH   8  11
ENDBRANCH   5   7
BRANCH   1  21
HETATM   21  C   UNL     1     -36.330  41.081 -57.588  1.00  0.00    -0.005 A 
HETATM   22  C   UNL     1     -36.838  42.054 -58.461  1.00  0.00     0.016 A 
HETATM   23  C   UNL     1     -37.297  41.708 -59.739  1.00  0.00     0.037 A 
HETATM   24  C   UNL     1     -37.259  40.381 -60.160  1.00  0.00     0.068 A 
HETATM   25  C   UNL     1     -36.782  39.403 -59.287  1.00  0.00     0.037 A 
HETATM   26  C   UNL     1     -36.318  39.746 -58.011  1.00  0.00     0.016 A 
BRANCH  24  27
HETATM   27  O   UNL     1     -37.660  39.912 -61.380  1.00  0.00    -0.351 OA
BRANCH  27  28
HETATM   28  C   UNL     1     -38.257  38.615 -61.408  1.00  0.00     0.175 C 
BRANCH  28  29
HETATM   29  C   UNL     1     -38.287  38.147 -62.860  1.00  0.00     0.022 C 
HETATM   30  C   UNL     1     -36.944  38.338 -63.543  1.00  0.00     0.007 C 
ENDBRANCH  28  29
ENDBRANCH  27  28
ENDBRANCH  24  27
ENDBRANCH   1  21
TORSDOF 8
ENDMDL
MODEL 7
REMARK VINA RESULT:      -6.9     16.697     22.960
REMARK  8 active torsions:
REMARK  status: ('A' for Active; 'I' for Inactive)
REMARK    1  A    between atoms: C_2  and  C_3 
REMARK    2  A    between atoms: C_3  and  O_4 
REMARK    3  A    between atoms: O_4  and  C_5 
REMARK    4  A    between atoms: C_8  and  C_9 
REMARK    5  A    between atoms: C_13  and  C_14 
REMARK       I    between atoms: C_14  and  N_15 
REMARK    6  A    between atoms: N_15  and  N_16 
REMARK    7  A    between atoms: C_17  and  C_18 
REMARK    8  A    between atoms: C_21  and  O_22 
ROOT
HETATM    1  C   UNL     1     -33.780  40.343 -54.096  1.00  0.00     0.089 A 
HETATM    2  N   UNL     1     -32.502  40.543 -54.450  1.00  0.00    -0.174 NA
HETATM    3  N   UNL     1     -31.787  40.114 -53.399  1.00  0.00    -0.272 N 
HETATM    4  H   UNL     1     -30.773  40.170 -53.435  1.00  0.00     0.189 HD
HETATM    5  C   UNL     1     -32.540  39.612 -52.375  1.00  0.00     0.121 A 
HETATM    6  C   UNL     1     -33.846  39.766 -52.795  1.00  0.00     0.071 A 
ENDROOT
BRANCH   5   7
HETATM    7  C   UNL     1     -31.921  39.065 -51.192  1.00  0.00     0.289 C 
HETATM    8  N   UNL     1     -31.414  40.013 -50.317  1.00  0.00    -0.242 N 
HETATM    9  H   UNL     1     -31.491  40.998 -50.527  1.00  0.00     0.192 HD
HETATM   10  O   UNL     1     -31.876  37.852 -51.005  1.00  0.00    -0.264 OA
BRANCH   8  11
HETATM   11  N   UNL     1     -30.854  39.628 -49.133  1.00  0.00    -0.184 NA
HETATM   12  C   UNL     1     -31.538  39.914 -48.072  1.00  0.00     0.150 C 
BRANCH  12  13
HETATM   13  C   UNL     1     -31.066  39.550 -46.721  1.00  0.00    -0.017 A 
HETATM   14  C   UNL     1     -30.035  40.261 -46.106  1.00  0.00     0.016 A 
HETATM   15  C   UNL     1     -29.611  39.894 -44.826  1.00  0.00     0.037 A 
HETATM   16  C   UNL     1     -30.213  38.826 -44.154  1.00  0.00     0.068 A 
HETATM   17  C   UNL     1     -31.240  38.114 -44.778  1.00  0.00     0.037 A 
HETATM   18  C   UNL     1     -31.667  38.474 -46.062  1.00  0.00     0.016 A 
BRANCH  16  19
HETATM   19  O   UNL     1     -29.707  38.578 -42.908  1.00  0.00    -0.356 OA
HETATM   20  C   UNL     1     -28.710  39.472 -42.428  1.00  0.00     0.210 C 
ENDBRANCH  16  19
ENDBRANCH  12  13
ENDBRANCH   8  11
ENDBRANCH   5   7
BRANCH   1  21
HETATM   21  C   UNL     1     -34.890  40.667 -54.995  1.00  0.00    -0.005 A 
HETATM   22  C   UNL     1     -34.880  41.858 -55.734  1.00  0.00     0.016 A 
HETATM   23  C   UNL     1     -35.913  42.160 -56.631  1.00  0.00     0.037 A 
HETATM   24  C   UNL     1     -36.974  41.273 -56.800  1.00  0.00     0.068 A 
HETATM   25  C   UNL     1     -37.005  40.099 -56.047  1.00  0.00     0.037 A 
HETATM   26  C   UNL     1     -35.972  39.792 -55.154  1.00  0.00     0.016 A 
BRANCH  24  27
HETATM   27  O   UNL     1     -38.033  41.438 -57.649  1.00  0.00    -0.351 OA
BRANCH  27  28
HETATM   28  C   UNL     1     -38.143  40.510 -58.729  1.00  0.00     0.175 C 
BRANCH  28  29
HETATM   29  C   UNL     1     -37.213  40.981 -59.844  1.00  0.00     0.022 C 
HETATM   30  C   UNL     1     -37.361  42.468 -60.114  1.00  0.00     0.007 C 
ENDBRANCH  28  29
ENDBRANCH  27  28
ENDBRANCH  24  27
ENDBRANCH   1  21
TORSDOF 8
ENDMDL
MODEL 8
REMARK VINA RESULT:      -6.9      1.772     11.956
REMARK  8 active torsions:
REMARK  status: ('A' for Active; 'I' for Inactive)
REMARK    1  A    between atoms: C_2  and  C_3 
REMARK    2  A    between atoms: C_3  and  O_4 
REMARK    3  A    between atoms: O_4  and  C_5 
REMARK    4  A    between atoms: C_8  and  C_9 
REMARK    5  A    between atoms: C_13  and  C_14 
REMARK       I    between atoms: C_14  and  N_15 
REMARK    6  A    between atoms: N_15  and  N_16 
REMARK    7  A    between atoms: C_17  and  C_18 
REMARK    8  A    between atoms: C_21  and  O_22 
ROOT
HETATM    1  C   UNL     1     -45.578  56.834 -60.109  1.00  0.00     0.089 A 
HETATM    2  N   UNL     1     -44.714  55.982 -60.681  1.00  0.00    -0.174 NA
HETATM    3  N   UNL     1     -43.797  55.740 -59.733  1.00  0.00    -0.272 N 
HETATM    4  H   UNL     1     -43.025  55.112 -59.940  1.00  0.00     0.189 HD
HETATM    5  C   UNL     1     -44.035  56.375 -58.546  1.00  0.00     0.121 A 
HETATM    6  C   UNL     1     -45.182  57.111 -58.769  1.00  0.00     0.071 A 
ENDROOT
BRANCH   5   7
HETATM    7  C   UNL     1     -43.169  56.181 -57.409  1.00  0.00     0.289 C 
HETATM    8  N   UNL     1     -43.291  54.943 -56.797  1.00  0.00    -0.242 N 
HETATM    9  H   UNL     1     -43.945  54.259 -57.149  1.00  0.00     0.192 HD
HETATM   10  O   UNL     1     -42.392  57.061 -57.048  1.00  0.00    -0.264 OA
BRANCH   8  11
HETATM   11  N   UNL     1     -42.487  54.613 -55.744  1.00  0.00    -0.184 NA
HETATM   12  C   UNL     1     -43.089  54.455 -54.609  1.00  0.00     0.150 C 
BRANCH  12  13
HETATM   13  C   UNL     1     -42.353  54.085 -53.383  1.00  0.00    -0.017 A 
HETATM   14  C   UNL     1     -42.913  54.288 -52.122  1.00  0.00     0.016 A 
HETATM   15  C   UNL     1     -42.194  53.927 -50.981  1.00  0.00     0.037 A 
HETATM   16  C   UNL     1     -40.921  53.358 -51.089  1.00  0.00     0.068 A 
HETATM   17  C   UNL     1     -40.363  53.164 -52.355  1.00  0.00     0.037 A 
HETATM   18  C   UNL     1     -41.077  53.528 -53.503  1.00  0.00     0.016 A 
BRANCH  16  19
HETATM   19  O   UNL     1     -40.332  53.046 -49.896  1.00  0.00    -0.356 OA
HETATM   20  C   UNL     1     -40.484  53.983 -48.837  1.00  0.00     0.210 C 
ENDBRANCH  16  19
ENDBRANCH  12  13
ENDBRANCH   8  11
ENDBRANCH   5   7
BRANCH   1  21
HETATM   21  C   UNL     1     -46.758  57.331 -60.820  1.00  0.00    -0.005 A 
HETATM   22  C   UNL     1     -47.062  58.700 -60.820  1.00  0.00     0.016 A 
HETATM   23  C   UNL     1     -48.161  59.196 -61.533  1.00  0.00     0.037 A 
HETATM   24  C   UNL     1     -48.976  58.326 -62.255  1.00  0.00     0.068 A 
HETATM   25  C   UNL     1     -48.697  56.959 -62.237  1.00  0.00     0.037 A 
HETATM   26  C   UNL     1     -47.596  56.462 -61.530  1.00  0.00     0.016 A 
BRANCH  24  27
HETATM   27  O   UNL     1     -50.065  58.678 -63.002  1.00  0.00    -0.351 OA
BRANCH  27  28
HETATM   28  C   UNL     1     -50.981  59.602 -62.411  1.00  0.00     0.175 C 
BRANCH  28  29
HETATM   29  C   UNL     1     -52.171  58.805 -61.884  1.00  0.00     0.022 C 
HETATM   30  C   UNL     1     -52.923  59.560 -60.803  1.00  0.00     0.007 C 
ENDBRANCH  28  29
ENDBRANCH  27  28
ENDBRANCH  24  27
ENDBRANCH   1  21
TORSDOF 8
ENDMDL
MODEL 9
REMARK VINA RESULT:      -6.5      6.459     11.658
REMARK  8 active torsions:
REMARK  status: ('A' for Active; 'I' for Inactive)
REMARK    1  A    between atoms: C_2  and  C_3 
REMARK    2  A    between atoms: C_3  and  O_4 
REMARK    3  A    between atoms: O_4  and  C_5 
REMARK    4  A    between atoms: C_8  and  C_9 
REMARK    5  A    between atoms: C_13  and  C_14 
REMARK       I    between atoms: C_14  and  N_15 
REMARK    6  A    between atoms: N_15  and  N_16 
REMARK    7  A    between atoms: C_17  and  C_18 
REMARK    8  A    between atoms: C_21  and  O_22 
ROOT
HETATM    1  C   UNL     1     -44.471  61.569 -52.853  1.00  0.00     0.089 A 
HETATM    2  N   UNL     1     -43.487  62.302 -53.396  1.00  0.00    -0.174 NA
HETATM    3  N   UNL     1     -42.486  61.432 -53.596  1.00  0.00    -0.272 N 
HETATM    4  H   UNL     1     -41.617  61.764 -54.004  1.00  0.00     0.189 HD
HETATM    5  C   UNL     1     -42.778  60.147 -53.234  1.00  0.00     0.121 A 
HETATM    6  C   UNL     1     -44.061  60.211 -52.728  1.00  0.00     0.071 A 
ENDROOT
BRANCH   5   7
HETATM    7  C   UNL     1     -41.826  59.082 -53.429  1.00  0.00     0.289 C 
HETATM    8  N   UNL     1     -42.364  57.806 -53.355  1.00  0.00    -0.242 N 
HETATM    9  H   UNL     1     -43.350  57.676 -53.176  1.00  0.00     0.192 HD
HETATM   10  O   UNL     1     -40.643  59.324 -53.653  1.00  0.00    -0.264 OA
BRANCH   8  11
HETATM   11  N   UNL     1     -41.579  56.712 -53.579  1.00  0.00    -0.184 NA
HETATM   12  C   UNL     1     -41.959  55.622 -52.993  1.00  0.00     0.150 C 
BRANCH  12  13
HETATM   13  C   UNL     1     -41.217  54.356 -53.150  1.00  0.00    -0.017 A 
HETATM   14  C   UNL     1     -40.759  53.650 -52.038  1.00  0.00     0.016 A 
HETATM   15  C   UNL     1     -40.061  52.453 -52.219  1.00  0.00     0.037 A 
HETATM   16  C   UNL     1     -39.824  51.952 -53.502  1.00  0.00     0.068 A 
HETATM   17  C   UNL     1     -40.280  52.667 -54.612  1.00  0.00     0.037 A 
HETATM   18  C   UNL     1     -40.976  53.869 -54.438  1.00  0.00     0.016 A 
BRANCH  16  19
HETATM   19  O   UNL     1     -39.136  50.771 -53.535  1.00  0.00    -0.356 OA
HETATM   20  C   UNL     1     -39.722  49.666 -52.859  1.00  0.00     0.210 C 
ENDBRANCH  16  19
ENDBRANCH  12  13
ENDBRANCH   8  11
ENDBRANCH   5   7
BRANCH   1  21
HETATM   21  C   UNL     1     -45.767  62.155 -52.502  1.00  0.00    -0.005 A 
HETATM   22  C   UNL     1     -45.962  62.742 -51.243  1.00  0.00     0.016 A 
HETATM   23  C   UNL     1     -47.182  63.346 -50.910  1.00  0.00     0.037 A 
HETATM   24  C   UNL     1     -48.226  63.368 -51.831  1.00  0.00     0.068 A 
HETATM   25  C   UNL     1     -48.049  62.761 -53.075  1.00  0.00     0.037 A 
HETATM   26  C   UNL     1     -46.830  62.161 -53.413  1.00  0.00     0.016 A 
BRANCH  24  27
HETATM   27  O   UNL     1     -49.456  63.934 -51.640  1.00  0.00    -0.351 OA
BRANCH  27  28
HETATM   28  C   UNL     1     -50.398  63.802 -52.705  1.00  0.00     0.175 C 
BRANCH  28  29
HETATM   29  C   UNL     1     -51.586  63.002 -52.180  1.00  0.00     0.022 C 
HETATM   30  C   UNL     1     -51.776  61.704 -52.945  1.00  0.00     0.007 C 
ENDBRANCH  28  29
ENDBRANCH  27  28
ENDBRANCH  24  27
ENDBRANCH   1  21
TORSDOF 8
ENDMDL
MODEL 10
REMARK VINA RESULT:      -6.4     16.632     20.257
REMARK  8 active torsions:
REMARK  status: ('A' for Active; 'I' for Inactive)
REMARK    1  A    between atoms: C_2  and  C_3 
REMARK    2  A    between atoms: C_3  and  O_4 
REMARK    3  A    between atoms: O_4  and  C_5 
REMARK    4  A    between atoms: C_8  and  C_9 
REMARK    5  A    between atoms: C_13  and  C_14 
REMARK       I    between atoms: C_14  and  N_15 
REMARK    6  A    between atoms: N_15  and  N_16 
REMARK    7  A    between atoms: C_17  and  C_18 
REMARK    8  A    between atoms: C_21  and  O_22 
ROOT
HETATM    1  C   UNL     1     -31.869  39.401 -48.693  1.00  0.00     0.089 A 
HETATM    2  N   UNL     1     -31.075  39.871 -49.667  1.00  0.00    -0.174 NA
HETATM    3  N   UNL     1     -31.814  39.777 -50.782  1.00  0.00    -0.272 N 
HETATM    4  H   UNL     1     -31.415  40.077 -51.667  1.00  0.00     0.189 HD
HETATM    5  C   UNL     1     -33.076  39.290 -50.582  1.00  0.00     0.121 A 
HETATM    6  C   UNL     1     -33.132  39.019 -49.229  1.00  0.00     0.071 A 
ENDROOT
BRANCH   5   7
HETATM    7  C   UNL     1     -34.013  39.172 -51.672  1.00  0.00     0.289 C 
HETATM    8  N   UNL     1     -34.007  40.242 -52.554  1.00  0.00    -0.242 N 
HETATM    9  H   UNL     1     -33.382  41.022 -52.410  1.00  0.00     0.192 HD
HETATM   10  O   UNL     1     -34.734  38.185 -51.782  1.00  0.00    -0.264 OA
BRANCH   8  11
HETATM   11  N   UNL     1     -34.807  40.228 -53.660  1.00  0.00    -0.184 NA
HETATM   12  C   UNL     1     -34.670  41.233 -54.463  1.00  0.00     0.150 C 
BRANCH  12  13
HETATM   13  C   UNL     1     -35.458  41.350 -55.706  1.00  0.00    -0.017 A 
HETATM   14  C   UNL     1     -35.080  40.665 -56.861  1.00  0.00     0.016 A 
HETATM   15  C   UNL     1     -35.847  40.794 -58.021  1.00  0.00     0.037 A 
HETATM   16  C   UNL     1     -36.992  41.595 -58.035  1.00  0.00     0.068 A 
HETATM   17  C   UNL     1     -37.362  42.282 -56.877  1.00  0.00     0.037 A 
HETATM   18  C   UNL     1     -36.595  42.162 -55.712  1.00  0.00     0.016 A 
BRANCH  16  19
HETATM   19  O   UNL     1     -37.652  41.626 -59.232  1.00  0.00    -0.356 OA
HETATM   20  C   UNL     1     -37.324  40.615 -60.176  1.00  0.00     0.210 C 
ENDBRANCH  16  19
ENDBRANCH  12  13
ENDBRANCH   8  11
ENDBRANCH   5   7
BRANCH   1  21
HETATM   21  C   UNL     1     -31.433  39.356 -47.295  1.00  0.00    -0.005 A 
HETATM   22  C   UNL     1     -31.949  38.389 -46.422  1.00  0.00     0.016 A 
HETATM   23  C   UNL     1     -31.508  38.305 -45.094  1.00  0.00     0.037 A 
HETATM   24  C   UNL     1     -30.545  39.193 -44.621  1.00  0.00     0.068 A 
HETATM   25  C   UNL     1     -30.047  40.177 -45.476  1.00  0.00     0.037 A 
HETATM   26  C   UNL     1     -30.482  40.259 -46.804  1.00  0.00     0.016 A 
BRANCH  24  27
HETATM   27  O   UNL     1     -30.019  39.212 -43.359  1.00  0.00    -0.351 OA
BRANCH  27  28
HETATM   28  C   UNL     1     -28.808  38.483 -43.155  1.00  0.00     0.175 C 
BRANCH  28  29
HETATM   29  C   UNL     1     -28.068  39.126 -41.985  1.00  0.00     0.022 C 
HETATM   30  C   UNL     1     -27.644  40.550 -42.299  1.00  0.00     0.007 C 
ENDBRANCH  28  29
ENDBRANCH  27  28
ENDBRANCH  24  27
ENDBRANCH   1  21
TORSDOF 8
ENDMDL
