MODEL 1
REMARK VINA RESULT:      -7.9      0.000      0.000
REMARK  8 active torsions:
REMARK  status: ('A' for Active; 'I' for Inactive)
REMARK    1  A    between atoms: O_2  and  C_3 
REMARK    2  A    between atoms: C_4  and  O_5 
REMARK    3  A    between atoms: C_8  and  C_9 
REMARK    4  A    between atoms: C_9  and  C_10 
REMARK    5  A    between atoms: C_10  and  N_11 
REMARK       I    between atoms: N_11  and  C_12 
REMARK    6  A    between atoms: C_12  and  C_13 
REMARK    7  A    between atoms: C_13  and  S_14 
REMARK    8  A    between atoms: S_14  and  C_15 
ROOT
HETATM    1  N   UNL     1     -43.377  55.519 -55.433  1.00  0.00    -0.360 N 
HETATM    2  C   UNL     1     -43.268  56.642 -56.220  1.00  0.00     0.227 C 
HETATM    3  O   UNL     1     -42.344  56.816 -57.012  1.00  0.00    -0.273 OA
HETATM    4  H   UNL     1     -44.073  55.516 -54.685  1.00  0.00     0.162 HD
ENDROOT
BRANCH   2   5
HETATM    5  C   UNL     1     -44.415  57.629 -56.086  1.00  0.00     0.185 C 
BRANCH   5   6
HETATM    6  S   UNL     1     -44.663  58.152 -54.367  1.00  0.00    -0.080 SA
BRANCH   6   7
HETATM    7  C   UNL     1     -43.070  58.671 -53.927  1.00  0.00     0.197 A 
HETATM    8  N   UNL     1     -42.312  58.243 -52.850  1.00  0.00    -0.271 N 
HETATM    9  C   UNL     1     -41.207  59.095 -52.877  1.00  0.00     0.159 A 
HETATM   10  C   UNL     1     -42.458  57.215 -51.874  1.00  0.00     0.053 A 
HETATM   11  C   UNL     1     -40.220  59.003 -51.868  1.00  0.00     0.054 A 
HETATM   12  N   UNL     1     -41.274  59.895 -53.919  1.00  0.00    -0.129 NA
HETATM   13  C   UNL     1     -40.322  58.082 -50.902  1.00  0.00     0.017 A 
HETATM   14  C   UNL     1     -41.448  57.141 -50.888  1.00  0.00    -0.009 A 
HETATM   15  C   UNL     1     -41.511  56.157 -49.894  1.00  0.00     0.014 A 
HETATM   16  C   UNL     1     -42.562  55.242 -49.882  1.00  0.00     0.001 A 
HETATM   17  C   UNL     1     -43.549  55.305 -50.863  1.00  0.00     0.002 A 
HETATM   18  C   UNL     1     -43.501  56.287 -51.858  1.00  0.00     0.031 A 
HETATM   19  N   UNL     1     -42.435  59.622 -54.579  1.00  0.00    -0.122 NA
ENDBRANCH   6   7
ENDBRANCH   5   6
ENDBRANCH   2   5
BRANCH   1  20
HETATM   20  C   UNL     1     -42.447  54.415 -55.506  1.00  0.00     0.127 C 
BRANCH  20  21
HETATM   21  C   UNL     1     -41.065  54.740 -54.934  1.00  0.00     0.058 C 
BRANCH  21  22
HETATM   22  C   UNL     1     -40.657  53.697 -53.919  1.00  0.00    -0.054 A 
HETATM   23  C   UNL     1     -40.294  52.405 -54.335  1.00  0.00     0.046 A 
HETATM   24  C   UNL     1     -39.836  51.457 -53.413  1.00  0.00     0.102 A 
HETATM   25  C   UNL     1     -39.719  51.824 -52.063  1.00  0.00     0.101 A 
HETATM   26  C   UNL     1     -40.114  53.095 -51.635  1.00  0.00     0.040 A 
HETATM   27  C   UNL     1     -40.575  54.030 -52.561  1.00  0.00     0.010 A 
BRANCH  24  28
HETATM   28  O   UNL     1     -39.443  50.183 -53.732  1.00  0.00    -0.353 OA
HETATM   29  C   UNL     1     -39.842  49.677 -54.997  1.00  0.00     0.210 C 
ENDBRANCH  24  28
BRANCH  25  30
HETATM   30  O   UNL     1     -39.268  50.884 -51.167  1.00  0.00    -0.353 OA
HETATM   31  C   UNL     1     -40.238  50.583 -50.166  1.00  0.00     0.210 C 
ENDBRANCH  25  30
ENDBRANCH  21  22
ENDBRANCH  20  21
ENDBRANCH   1  20
TORSDOF 8
ENDMDL
MODEL 2
REMARK VINA RESULT:      -7.9      2.894      6.845
REMARK  8 active torsions:
REMARK  status: ('A' for Active; 'I' for Inactive)
REMARK    1  A    between atoms: O_2  and  C_3 
REMARK    2  A    between atoms: C_4  and  O_5 
REMARK    3  A    between atoms: C_8  and  C_9 
REMARK    4  A    between atoms: C_9  and  C_10 
REMARK    5  A    between atoms: C_10  and  N_11 
REMARK       I    between atoms: N_11  and  C_12 
REMARK    6  A    between atoms: C_12  and  C_13 
REMARK    7  A    between atoms: C_13  and  S_14 
REMARK    8  A    between atoms: S_14  and  C_15 
ROOT
HETATM    1  N   UNL     1     -41.637  58.567 -53.383  1.00  0.00    -0.360 N 
HETATM    2  C   UNL     1     -40.504  58.673 -52.609  1.00  0.00     0.227 C 
HETATM    3  O   UNL     1     -39.462  59.185 -53.014  1.00  0.00    -0.273 OA
HETATM    4  H   UNL     1     -42.405  57.987 -53.042  1.00  0.00     0.162 HD
ENDROOT
BRANCH   2   5
HETATM    5  C   UNL     1     -40.655  58.166 -51.185  1.00  0.00     0.185 C 
BRANCH   5   6
HETATM    6  S   UNL     1     -42.124  57.122 -50.988  1.00  0.00    -0.080 SA
BRANCH   6   7
HETATM    7  C   UNL     1     -41.447  55.701 -50.264  1.00  0.00     0.197 A 
HETATM    8  N   UNL     1     -40.987  54.564 -50.909  1.00  0.00    -0.271 N 
HETATM    9  C   UNL     1     -40.715  53.688 -49.857  1.00  0.00     0.159 A 
HETATM   10  C   UNL     1     -40.770  54.210 -52.272  1.00  0.00     0.053 A 
HETATM   11  C   UNL     1     -40.278  52.371 -50.132  1.00  0.00     0.054 A 
HETATM   12  N   UNL     1     -40.923  54.282 -48.703  1.00  0.00    -0.129 NA
HETATM   13  C   UNL     1     -40.091  51.968 -51.395  1.00  0.00     0.017 A 
HETATM   14  C   UNL     1     -40.319  52.893 -52.511  1.00  0.00    -0.009 A 
HETATM   15  C   UNL     1     -40.075  52.464 -53.822  1.00  0.00     0.014 A 
HETATM   16  C   UNL     1     -40.264  53.338 -54.890  1.00  0.00     0.001 A 
HETATM   17  C   UNL     1     -40.693  54.642 -54.652  1.00  0.00     0.002 A 
HETATM   18  C   UNL     1     -40.946  55.081 -53.349  1.00  0.00     0.031 A 
HETATM   19  N   UNL     1     -41.371  55.544 -48.959  1.00  0.00    -0.122 NA
ENDBRANCH   6   7
ENDBRANCH   5   6
ENDBRANCH   2   5
BRANCH   1  20
HETATM   20  C   UNL     1     -41.723  59.100 -54.724  1.00  0.00     0.127 C 
BRANCH  20  21
HETATM   21  C   UNL     1     -43.132  59.032 -55.320  1.00  0.00     0.058 C 
BRANCH  21  22
HETATM   22  C   UNL     1     -43.148  58.129 -56.532  1.00  0.00    -0.054 A 
HETATM   23  C   UNL     1     -43.174  58.678 -57.826  1.00  0.00     0.046 A 
HETATM   24  C   UNL     1     -43.106  57.855 -58.955  1.00  0.00     0.102 A 
HETATM   25  C   UNL     1     -42.986  56.467 -58.778  1.00  0.00     0.101 A 
HETATM   26  C   UNL     1     -42.999  55.910 -57.496  1.00  0.00     0.040 A 
HETATM   27  C   UNL     1     -43.072  56.739 -56.377  1.00  0.00     0.010 A 
BRANCH  24  28
HETATM   28  O   UNL     1     -43.104  58.304 -60.251  1.00  0.00    -0.353 OA
HETATM   29  C   UNL     1     -42.027  59.140 -60.647  1.00  0.00     0.210 C 
ENDBRANCH  24  28
BRANCH  25  30
HETATM   30  O   UNL     1     -42.921  55.670 -59.895  1.00  0.00    -0.353 OA
HETATM   31  C   UNL     1     -44.107  54.899 -60.080  1.00  0.00     0.210 C 
ENDBRANCH  25  30
ENDBRANCH  21  22
ENDBRANCH  20  21
ENDBRANCH   1  20
TORSDOF 8
ENDMDL
MODEL 3
REMARK VINA RESULT:      -7.5      2.597      5.614
REMARK  8 active torsions:
REMARK  status: ('A' for Active; 'I' for Inactive)
REMARK    1  A    between atoms: O_2  and  C_3 
REMARK    2  A    between atoms: C_4  and  O_5 
REMARK    3  A    between atoms: C_8  and  C_9 
REMARK    4  A    between atoms: C_9  and  C_10 
REMARK    5  A    between atoms: C_10  and  N_11 
REMARK       I    between atoms: N_11  and  C_12 
REMARK    6  A    between atoms: C_12  and  C_13 
REMARK    7  A    between atoms: C_13  and  S_14 
REMARK    8  A    between atoms: S_14  and  C_15 
ROOT
HETATM    1  N   UNL     1     -43.747  55.474 -52.572  1.00  0.00    -0.360 N 
HETATM    2  C   UNL     1     -43.914  56.829 -52.399  1.00  0.00     0.227 C 
HETATM    3  O   UNL     1     -43.724  57.394 -51.323  1.00  0.00    -0.273 OA
HETATM    4  H   UNL     1     -44.079  55.052 -53.440  1.00  0.00     0.162 HD
ENDROOT
BRANCH   2   5
HETATM    5  C   UNL     1     -44.290  57.592 -53.657  1.00  0.00     0.185 C 
BRANCH   5   6
HETATM    6  S   UNL     1     -42.829  58.120 -54.593  1.00  0.00    -0.080 SA
BRANCH   6   7
HETATM    7  C   UNL     1     -42.819  56.978 -55.897  1.00  0.00     0.197 A 
HETATM    8  N   UNL     1     -42.674  57.244 -57.248  1.00  0.00    -0.271 N 
HETATM    9  C   UNL     1     -42.907  56.004 -57.845  1.00  0.00     0.159 A 
HETATM   10  C   UNL     1     -42.358  58.408 -58.007  1.00  0.00     0.053 A 
HETATM   11  C   UNL     1     -42.909  55.889 -59.255  1.00  0.00     0.054 A 
HETATM   12  N   UNL     1     -43.096  55.084 -56.925  1.00  0.00    -0.129 NA
HETATM   13  C   UNL     1     -42.656  56.956 -60.022  1.00  0.00     0.017 A 
HETATM   14  C   UNL     1     -42.354  58.257 -59.412  1.00  0.00    -0.009 A 
HETATM   15  C   UNL     1     -42.048  59.349 -60.232  1.00  0.00     0.014 A 
HETATM   16  C   UNL     1     -41.735  60.583 -59.666  1.00  0.00     0.001 A 
HETATM   17  C   UNL     1     -41.724  60.728 -58.281  1.00  0.00     0.002 A 
HETATM   18  C   UNL     1     -42.033  59.647 -57.450  1.00  0.00     0.031 A 
HETATM   19  N   UNL     1     -43.030  55.693 -55.708  1.00  0.00    -0.122 NA
ENDBRANCH   6   7
ENDBRANCH   5   6
ENDBRANCH   2   5
BRANCH   1  20
HETATM   20  C   UNL     1     -43.278  54.600 -51.520  1.00  0.00     0.127 C 
BRANCH  20  21
HETATM   21  C   UNL     1     -41.783  54.746 -51.223  1.00  0.00     0.058 C 
BRANCH  21  22
HETATM   22  C   UNL     1     -40.992  53.700 -51.975  1.00  0.00    -0.054 A 
HETATM   23  C   UNL     1     -40.382  52.639 -51.283  1.00  0.00     0.046 A 
HETATM   24  C   UNL     1     -39.718  51.621 -51.976  1.00  0.00     0.102 A 
HETATM   25  C   UNL     1     -39.689  51.660 -53.379  1.00  0.00     0.101 A 
HETATM   26  C   UNL     1     -40.259  52.731 -54.072  1.00  0.00     0.040 A 
HETATM   27  C   UNL     1     -40.915  53.744 -53.372  1.00  0.00     0.010 A 
BRANCH  24  28
HETATM   28  O   UNL     1     -39.113  50.540 -51.386  1.00  0.00    -0.353 OA
HETATM   29  C   UNL     1     -39.886  49.789 -50.462  1.00  0.00     0.210 C 
ENDBRANCH  24  28
BRANCH  25  30
HETATM   30  O   UNL     1     -39.033  50.654 -54.047  1.00  0.00    -0.353 OA
HETATM   31  C   UNL     1     -39.932  49.779 -54.725  1.00  0.00     0.210 C 
ENDBRANCH  25  30
ENDBRANCH  21  22
ENDBRANCH  20  21
ENDBRANCH   1  20
TORSDOF 8
ENDMDL
MODEL 4
REMARK VINA RESULT:      -7.5      3.289      6.970
REMARK  8 active torsions:
REMARK  status: ('A' for Active; 'I' for Inactive)
REMARK    1  A    between atoms: O_2  and  C_3 
REMARK    2  A    between atoms: C_4  and  O_5 
REMARK    3  A    between atoms: C_8  and  C_9 
REMARK    4  A    between atoms: C_9  and  C_10 
REMARK    5  A    between atoms: C_10  and  N_11 
REMARK       I    between atoms: N_11  and  C_12 
REMARK    6  A    between atoms: C_12  and  C_13 
REMARK    7  A    between atoms: C_13  and  S_14 
REMARK    8  A    between atoms: S_14  and  C_15 
ROOT
HETATM    1  N   UNL     1     -43.563  56.127 -53.607  1.00  0.00    -0.360 N 
HETATM    2  C   UNL     1     -43.741  57.085 -52.636  1.00  0.00     0.227 C 
HETATM    3  O   UNL     1     -44.178  58.209 -52.878  1.00  0.00    -0.273 OA
HETATM    4  H   UNL     1     -43.045  55.281 -53.365  1.00  0.00     0.162 HD
ENDROOT
BRANCH   2   5
HETATM    5  C   UNL     1     -43.419  56.629 -51.224  1.00  0.00     0.185 C 
BRANCH   5   6
HETATM    6  S   UNL     1     -41.694  56.965 -50.779  1.00  0.00    -0.080 SA
BRANCH   6   7
HETATM    7  C   UNL     1     -41.223  55.464 -50.053  1.00  0.00     0.197 A 
HETATM    8  N   UNL     1     -40.864  54.291 -50.697  1.00  0.00    -0.271 N 
HETATM    9  C   UNL     1     -40.750  53.373 -49.653  1.00  0.00     0.159 A 
HETATM   10  C   UNL     1     -40.618  53.936 -52.055  1.00  0.00     0.053 A 
HETATM   11  C   UNL     1     -40.453  52.019 -49.933  1.00  0.00     0.054 A 
HETATM   12  N   UNL     1     -40.948  53.970 -48.498  1.00  0.00    -0.129 NA
HETATM   13  C   UNL     1     -40.248  51.617 -51.193  1.00  0.00     0.017 A 
HETATM   14  C   UNL     1     -40.310  52.579 -52.300  1.00  0.00    -0.009 A 
HETATM   15  C   UNL     1     -40.049  52.145 -53.606  1.00  0.00     0.014 A 
HETATM   16  C   UNL     1     -40.080  53.051 -54.663  1.00  0.00     0.001 A 
HETATM   17  C   UNL     1     -40.369  54.392 -54.419  1.00  0.00     0.002 A 
HETATM   18  C   UNL     1     -40.637  54.838 -53.121  1.00  0.00     0.031 A 
HETATM   19  N   UNL     1     -41.234  55.279 -48.749  1.00  0.00    -0.122 NA
ENDBRANCH   6   7
ENDBRANCH   5   6
ENDBRANCH   2   5
BRANCH   1  20
HETATM   20  C   UNL     1     -43.926  56.335 -54.992  1.00  0.00     0.127 C 
BRANCH  20  21
HETATM   21  C   UNL     1     -43.122  55.475 -55.971  1.00  0.00     0.058 C 
BRANCH  21  22
HETATM   22  C   UNL     1     -42.971  56.187 -57.296  1.00  0.00    -0.054 A 
HETATM   23  C   UNL     1     -43.450  55.596 -58.477  1.00  0.00     0.046 A 
HETATM   24  C   UNL     1     -43.390  56.280 -59.696  1.00  0.00     0.102 A 
HETATM   25  C   UNL     1     -42.866  57.582 -59.719  1.00  0.00     0.101 A 
HETATM   26  C   UNL     1     -42.353  58.163 -58.556  1.00  0.00     0.040 A 
HETATM   27  C   UNL     1     -42.412  57.470 -57.347  1.00  0.00     0.010 A 
BRANCH  24  28
HETATM   28  O   UNL     1     -43.850  55.791 -60.891  1.00  0.00    -0.353 OA
HETATM   29  C   UNL     1     -44.902  54.838 -60.841  1.00  0.00     0.210 C 
ENDBRANCH  24  28
BRANCH  25  30
HETATM   30  O   UNL     1     -42.813  58.244 -60.922  1.00  0.00    -0.353 OA
HETATM   31  C   UNL     1     -43.707  59.354 -60.969  1.00  0.00     0.210 C 
ENDBRANCH  25  30
ENDBRANCH  21  22
ENDBRANCH  20  21
ENDBRANCH   1  20
TORSDOF 8
ENDMDL
MODEL 5
REMARK VINA RESULT:      -7.4      3.415      7.347
REMARK  8 active torsions:
REMARK  status: ('A' for Active; 'I' for Inactive)
REMARK    1  A    between atoms: O_2  and  C_3 
REMARK    2  A    between atoms: C_4  and  O_5 
REMARK    3  A    between atoms: C_8  and  C_9 
REMARK    4  A    between atoms: C_9  and  C_10 
REMARK    5  A    between atoms: C_10  and  N_11 
REMARK       I    between atoms: N_11  and  C_12 
REMARK    6  A    between atoms: C_12  and  C_13 
REMARK    7  A    between atoms: C_13  and  S_14 
REMARK    8  A    between atoms: S_14  and  C_15 
ROOT
HETATM    1  N   UNL     1     -44.362  56.736 -53.094  1.00  0.00    -0.360 N 
HETATM    2  C   UNL     1     -44.331  57.163 -51.787  1.00  0.00     0.227 C 
HETATM    3  O   UNL     1     -44.885  58.193 -51.407  1.00  0.00    -0.273 OA
HETATM    4  H   UNL     1     -43.747  55.968 -53.368  1.00  0.00     0.162 HD
ENDROOT
BRANCH   2   5
HETATM    5  C   UNL     1     -43.612  56.231 -50.827  1.00  0.00     0.185 C 
BRANCH   5   6
HETATM    6  S   UNL     1     -41.876  56.700 -50.597  1.00  0.00    -0.080 SA
BRANCH   6   7
HETATM    7  C   UNL     1     -41.147  55.170 -50.237  1.00  0.00     0.197 A 
HETATM    8  N   UNL     1     -40.748  54.194 -51.135  1.00  0.00    -0.271 N 
HETATM    9  C   UNL     1     -40.393  53.126 -50.310  1.00  0.00     0.159 A 
HETATM   10  C   UNL     1     -40.649  54.127 -52.555  1.00  0.00     0.053 A 
HETATM   11  C   UNL     1     -39.986  51.898 -50.882  1.00  0.00     0.054 A 
HETATM   12  N   UNL     1     -40.500  53.471 -49.046  1.00  0.00    -0.129 NA
HETATM   13  C   UNL     1     -39.908  51.762 -52.212  1.00  0.00     0.017 A 
HETATM   14  C   UNL     1     -40.226  52.891 -53.094  1.00  0.00    -0.009 A 
HETATM   15  C   UNL     1     -40.095  52.741 -54.480  1.00  0.00     0.014 A 
HETATM   16  C   UNL     1     -40.369  53.811 -55.329  1.00  0.00     0.001 A 
HETATM   17  C   UNL     1     -40.770  55.034 -54.796  1.00  0.00     0.002 A 
HETATM   18  C   UNL     1     -40.911  55.196 -53.414  1.00  0.00     0.031 A 
HETATM   19  N   UNL     1     -40.962  54.752 -49.002  1.00  0.00    -0.122 NA
ENDBRANCH   6   7
ENDBRANCH   5   6
ENDBRANCH   2   5
BRANCH   1  20
HETATM   20  C   UNL     1     -45.097  57.428 -54.130  1.00  0.00     0.127 C 
BRANCH  20  21
HETATM   21  C   UNL     1     -44.201  58.170 -55.125  1.00  0.00     0.058 C 
BRANCH  21  22
HETATM   22  C   UNL     1     -44.751  58.040 -56.527  1.00  0.00    -0.054 A 
HETATM   23  C   UNL     1     -43.936  57.562 -57.567  1.00  0.00     0.046 A 
HETATM   24  C   UNL     1     -44.456  57.360 -58.850  1.00  0.00     0.102 A 
HETATM   25  C   UNL     1     -45.816  57.620 -59.080  1.00  0.00     0.101 A 
HETATM   26  C   UNL     1     -46.625  58.132 -58.061  1.00  0.00     0.040 A 
HETATM   27  C   UNL     1     -46.095  58.335 -56.787  1.00  0.00     0.010 A 
BRANCH  24  28
HETATM   28  O   UNL     1     -43.742  56.879 -59.917  1.00  0.00    -0.353 OA
HETATM   29  C   UNL     1     -42.772  55.877 -59.649  1.00  0.00     0.210 C 
ENDBRANCH  24  28
BRANCH  25  30
HETATM   30  O   UNL     1     -46.316  57.418 -60.344  1.00  0.00    -0.353 OA
HETATM   31  C   UNL     1     -46.994  56.169 -60.464  1.00  0.00     0.210 C 
ENDBRANCH  25  30
ENDBRANCH  21  22
ENDBRANCH  20  21
ENDBRANCH   1  20
TORSDOF 8
ENDMDL
MODEL 6
REMARK VINA RESULT:      -7.3      3.151      6.846
REMARK  8 active torsions:
REMARK  status: ('A' for Active; 'I' for Inactive)
REMARK    1  A    between atoms: O_2  and  C_3 
REMARK    2  A    between atoms: C_4  and  O_5 
REMARK    3  A    between atoms: C_8  and  C_9 
REMARK    4  A    between atoms: C_9  and  C_10 
REMARK    5  A    between atoms: C_10  and  N_11 
REMARK       I    between atoms: N_11  and  C_12 
REMARK    6  A    between atoms: C_12  and  C_13 
REMARK    7  A    between atoms: C_13  and  S_14 
REMARK    8  A    between atoms: S_14  and  C_15 
ROOT
HETATM    1  N   UNL     1     -43.684  58.540 -52.146  1.00  0.00    -0.360 N 
HETATM    2  C   UNL     1     -44.339  57.692 -51.282  1.00  0.00     0.227 C 
HETATM    3  O   UNL     1     -45.471  57.915 -50.857  1.00  0.00    -0.273 OA
HETATM    4  H   UNL     1     -42.692  58.378 -52.325  1.00  0.00     0.162 HD
ENDROOT
BRANCH   2   5
HETATM    5  C   UNL     1     -43.582  56.420 -50.941  1.00  0.00     0.185 C 
BRANCH   5   6
HETATM    6  S   UNL     1     -41.790  56.624 -51.127  1.00  0.00    -0.080 SA
BRANCH   6   7
HETATM    7  C   UNL     1     -41.531  55.987 -52.718  1.00  0.00     0.197 A 
HETATM    8  N   UNL     1     -40.992  54.757 -53.055  1.00  0.00    -0.271 N 
HETATM    9  C   UNL     1     -40.860  54.834 -54.442  1.00  0.00     0.159 A 
HETATM   10  C   UNL     1     -40.620  53.596 -52.317  1.00  0.00     0.053 A 
HETATM   11  C   UNL     1     -40.270  53.765 -55.155  1.00  0.00     0.054 A 
HETATM   12  N   UNL     1     -41.347  55.973 -54.883  1.00  0.00    -0.129 NA
HETATM   13  C   UNL     1     -39.867  52.662 -54.513  1.00  0.00     0.017 A 
HETATM   14  C   UNL     1     -40.048  52.539 -53.061  1.00  0.00    -0.009 A 
HETATM   15  C   UNL     1     -39.659  51.359 -52.416  1.00  0.00     0.014 A 
HETATM   16  C   UNL     1     -39.847  51.219 -51.042  1.00  0.00     0.001 A 
HETATM   17  C   UNL     1     -40.426  52.254 -50.312  1.00  0.00     0.002 A 
HETATM   18  C   UNL     1     -40.813  53.440 -50.943  1.00  0.00     0.031 A 
HETATM   19  N   UNL     1     -41.775  56.688 -53.805  1.00  0.00    -0.122 NA
ENDBRANCH   6   7
ENDBRANCH   5   6
ENDBRANCH   2   5
BRANCH   1  20
HETATM   20  C   UNL     1     -44.289  59.741 -52.677  1.00  0.00     0.127 C 
BRANCH  20  21
HETATM   21  C   UNL     1     -45.201  59.487 -53.879  1.00  0.00     0.058 C 
BRANCH  21  22
HETATM   22  C   UNL     1     -44.383  59.098 -55.089  1.00  0.00    -0.054 A 
HETATM   23  C   UNL     1     -43.299  59.895 -55.498  1.00  0.00     0.046 A 
HETATM   24  C   UNL     1     -42.485  59.503 -56.566  1.00  0.00     0.102 A 
HETATM   25  C   UNL     1     -42.749  58.284 -57.211  1.00  0.00     0.101 A 
HETATM   26  C   UNL     1     -43.847  57.505 -56.835  1.00  0.00     0.040 A 
HETATM   27  C   UNL     1     -44.657  57.908 -55.773  1.00  0.00     0.010 A 
BRANCH  24  28
HETATM   28  O   UNL     1     -41.398  60.205 -57.019  1.00  0.00    -0.353 OA
HETATM   29  C   UNL     1     -41.651  61.422 -57.705  1.00  0.00     0.210 C 
ENDBRANCH  24  28
BRANCH  25  30
HETATM   30  O   UNL     1     -41.942  57.910 -58.258  1.00  0.00    -0.353 OA
HETATM   31  C   UNL     1     -42.630  57.935 -59.507  1.00  0.00     0.210 C 
ENDBRANCH  25  30
ENDBRANCH  21  22
ENDBRANCH  20  21
ENDBRANCH   1  20
TORSDOF 8
ENDMDL
MODEL 7
REMARK VINA RESULT:      -7.2      1.710      2.819
REMARK  8 active torsions:
REMARK  status: ('A' for Active; 'I' for Inactive)
REMARK    1  A    between atoms: O_2  and  C_3 
REMARK    2  A    between atoms: C_4  and  O_5 
REMARK    3  A    between atoms: C_8  and  C_9 
REMARK    4  A    between atoms: C_9  and  C_10 
REMARK    5  A    between atoms: C_10  and  N_11 
REMARK       I    between atoms: N_11  and  C_12 
REMARK    6  A    between atoms: C_12  and  C_13 
REMARK    7  A    between atoms: C_13  and  S_14 
REMARK    8  A    between atoms: S_14  and  C_15 
ROOT
HETATM    1  N   UNL     1     -42.089  55.982 -56.220  1.00  0.00    -0.360 N 
HETATM    2  C   UNL     1     -42.797  56.186 -57.382  1.00  0.00     0.227 C 
HETATM    3  O   UNL     1     -43.412  55.290 -57.956  1.00  0.00    -0.273 OA
HETATM    4  H   UNL     1     -41.472  56.725 -55.891  1.00  0.00     0.162 HD
ENDROOT
BRANCH   2   5
HETATM    5  C   UNL     1     -42.817  57.623 -57.873  1.00  0.00     0.185 C 
BRANCH   5   6
HETATM    6  S   UNL     1     -42.227  58.781 -56.608  1.00  0.00    -0.080 SA
BRANCH   6   7
HETATM    7  C   UNL     1     -43.480  58.664 -55.417  1.00  0.00     0.197 A 
HETATM    8  N   UNL     1     -43.331  58.510 -54.048  1.00  0.00    -0.271 N 
HETATM    9  C   UNL     1     -44.637  58.306 -53.604  1.00  0.00     0.159 A 
HETATM   10  C   UNL     1     -42.218  58.538 -53.158  1.00  0.00     0.053 A 
HETATM   11  C   UNL     1     -44.885  58.041 -52.237  1.00  0.00     0.054 A 
HETATM   12  N   UNL     1     -45.481  58.406 -54.608  1.00  0.00    -0.129 NA
HETATM   13  C   UNL     1     -43.875  58.017 -51.358  1.00  0.00     0.017 A 
HETATM   14  C   UNL     1     -42.500  58.284 -51.797  1.00  0.00    -0.009 A 
HETATM   15  C   UNL     1     -41.466  58.298 -50.853  1.00  0.00     0.014 A 
HETATM   16  C   UNL     1     -40.160  58.574 -51.252  1.00  0.00     0.001 A 
HETATM   17  C   UNL     1     -39.884  58.840 -52.591  1.00  0.00     0.002 A 
HETATM   18  C   UNL     1     -40.907  58.824 -53.545  1.00  0.00     0.031 A 
HETATM   19  N   UNL     1     -44.756  58.640 -55.738  1.00  0.00    -0.122 NA
ENDBRANCH   6   7
ENDBRANCH   5   6
ENDBRANCH   2   5
BRANCH   1  20
HETATM   20  C   UNL     1     -42.051  54.708 -55.537  1.00  0.00     0.127 C 
BRANCH  20  21
HETATM   21  C   UNL     1     -40.648  54.298 -55.083  1.00  0.00     0.058 C 
BRANCH  21  22
HETATM   22  C   UNL     1     -40.646  53.973 -53.607  1.00  0.00    -0.054 A 
HETATM   23  C   UNL     1     -40.214  52.713 -53.159  1.00  0.00     0.046 A 
HETATM   24  C   UNL     1     -40.130  52.430 -51.791  1.00  0.00     0.102 A 
HETATM   25  C   UNL     1     -40.460  53.433 -50.867  1.00  0.00     0.101 A 
HETATM   26  C   UNL     1     -40.927  54.677 -51.305  1.00  0.00     0.040 A 
HETATM   27  C   UNL     1     -41.013  54.947 -52.670  1.00  0.00     0.010 A 
BRANCH  24  28
HETATM   28  O   UNL     1     -39.702  51.238 -51.264  1.00  0.00    -0.353 OA
HETATM   29  C   UNL     1     -39.541  50.151 -52.164  1.00  0.00     0.210 C 
ENDBRANCH  24  28
BRANCH  25  30
HETATM   30  O   UNL     1     -40.373  53.143 -49.527  1.00  0.00    -0.353 OA
HETATM   31  C   UNL     1     -40.779  54.239 -48.709  1.00  0.00     0.210 C 
ENDBRANCH  25  30
ENDBRANCH  21  22
ENDBRANCH  20  21
ENDBRANCH   1  20
TORSDOF 8
ENDMDL
MODEL 8
REMARK VINA RESULT:      -7.2      3.389      6.945
REMARK  8 active torsions:
REMARK  status: ('A' for Active; 'I' for Inactive)
REMARK    1  A    between atoms: O_2  and  C_3 
REMARK    2  A    between atoms: C_4  and  O_5 
REMARK    3  A    between atoms: C_8  and  C_9 
REMARK    4  A    between atoms: C_9  and  C_10 
REMARK    5  A    between atoms: C_10  and  N_11 
REMARK       I    between atoms: N_11  and  C_12 
REMARK    6  A    between atoms: C_12  and  C_13 
REMARK    7  A    between atoms: C_13  and  S_14 
REMARK    8  A    between atoms: S_14  and  C_15 
ROOT
HETATM    1  N   UNL     1     -42.012  59.328 -55.857  1.00  0.00    -0.360 N 
HETATM    2  C   UNL     1     -41.900  59.499 -54.497  1.00  0.00     0.227 C 
HETATM    3  O   UNL     1     -42.092  60.579 -53.941  1.00  0.00    -0.273 OA
HETATM    4  H   UNL     1     -41.680  58.452 -56.265  1.00  0.00     0.162 HD
ENDROOT
BRANCH   2   5
HETATM    5  C   UNL     1     -41.585  58.234 -53.718  1.00  0.00     0.185 C 
BRANCH   5   6
HETATM    6  S   UNL     1     -43.087  57.326 -53.260  1.00  0.00    -0.080 SA
BRANCH   6   7
HETATM    7  C   UNL     1     -42.767  55.762 -53.934  1.00  0.00     0.197 A 
HETATM    8  N   UNL     1     -41.942  54.776 -53.419  1.00  0.00    -0.271 N 
HETATM    9  C   UNL     1     -41.923  53.815 -54.431  1.00  0.00     0.159 A 
HETATM   10  C   UNL     1     -41.229  54.610 -52.197  1.00  0.00     0.053 A 
HETATM   11  C   UNL     1     -41.116  52.661 -54.293  1.00  0.00     0.054 A 
HETATM   12  N   UNL     1     -42.722  54.170 -55.413  1.00  0.00    -0.129 NA
HETATM   13  C   UNL     1     -40.394  52.468 -53.183  1.00  0.00     0.017 A 
HETATM   14  C   UNL     1     -40.444  53.441 -52.085  1.00  0.00    -0.009 A 
HETATM   15  C   UNL     1     -39.716  53.196 -50.914  1.00  0.00     0.014 A 
HETATM   16  C   UNL     1     -39.773  54.098 -49.854  1.00  0.00     0.001 A 
HETATM   17  C   UNL     1     -40.560  55.243 -49.959  1.00  0.00     0.002 A 
HETATM   18  C   UNL     1     -41.288  55.502 -51.124  1.00  0.00     0.031 A 
HETATM   19  N   UNL     1     -43.257  55.383 -55.095  1.00  0.00    -0.122 NA
ENDBRANCH   6   7
ENDBRANCH   5   6
ENDBRANCH   2   5
BRANCH   1  20
HETATM   20  C   UNL     1     -42.420  60.388 -56.752  1.00  0.00     0.127 C 
BRANCH  20  21
HETATM   21  C   UNL     1     -41.891  60.223 -58.178  1.00  0.00     0.058 C 
BRANCH  21  22
HETATM   22  C   UNL     1     -42.529  59.025 -58.842  1.00  0.00    -0.054 A 
HETATM   23  C   UNL     1     -43.914  59.000 -59.081  1.00  0.00     0.046 A 
HETATM   24  C   UNL     1     -44.503  57.932 -59.767  1.00  0.00     0.102 A 
HETATM   25  C   UNL     1     -43.686  56.893 -60.239  1.00  0.00     0.101 A 
HETATM   26  C   UNL     1     -42.314  56.891 -59.972  1.00  0.00     0.040 A 
HETATM   27  C   UNL     1     -41.737  57.957 -59.282  1.00  0.00     0.010 A 
BRANCH  24  28
HETATM   28  O   UNL     1     -45.839  57.835 -60.062  1.00  0.00    -0.353 OA
HETATM   29  C   UNL     1     -46.735  57.682 -58.971  1.00  0.00     0.210 C 
ENDBRANCH  24  28
BRANCH  25  30
HETATM   30  O   UNL     1     -44.277  55.851 -60.912  1.00  0.00    -0.353 OA
HETATM   31  C   UNL     1     -44.425  54.693 -60.092  1.00  0.00     0.210 C 
ENDBRANCH  25  30
ENDBRANCH  21  22
ENDBRANCH  20  21
ENDBRANCH   1  20
TORSDOF 8
ENDMDL
MODEL 9
REMARK VINA RESULT:      -7.2      5.496      8.873
REMARK  8 active torsions:
REMARK  status: ('A' for Active; 'I' for Inactive)
REMARK    1  A    between atoms: O_2  and  C_3 
REMARK    2  A    between atoms: C_4  and  O_5 
REMARK    3  A    between atoms: C_8  and  C_9 
REMARK    4  A    between atoms: C_9  and  C_10 
REMARK    5  A    between atoms: C_10  and  N_11 
REMARK       I    between atoms: N_11  and  C_12 
REMARK    6  A    between atoms: C_12  and  C_13 
REMARK    7  A    between atoms: C_13  and  S_14 
REMARK    8  A    between atoms: S_14  and  C_15 
ROOT
HETATM    1  N   UNL     1     -41.964  59.812 -51.037  1.00  0.00    -0.360 N 
HETATM    2  C   UNL     1     -41.779  59.820 -52.401  1.00  0.00     0.227 C 
HETATM    3  O   UNL     1     -42.187  60.725 -53.125  1.00  0.00    -0.273 OA
HETATM    4  H   UNL     1     -41.747  58.957 -50.523  1.00  0.00     0.162 HD
ENDROOT
BRANCH   2   5
HETATM    5  C   UNL     1     -40.971  58.653 -52.941  1.00  0.00     0.185 C 
BRANCH   5   6
HETATM    6  S   UNL     1     -41.960  57.137 -53.056  1.00  0.00    -0.080 SA
BRANCH   6   7
HETATM    7  C   UNL     1     -41.476  56.296 -51.621  1.00  0.00     0.197 A 
HETATM    8  N   UNL     1     -41.012  54.995 -51.522  1.00  0.00    -0.271 N 
HETATM    9  C   UNL     1     -40.936  54.785 -50.145  1.00  0.00     0.159 A 
HETATM   10  C   UNL     1     -40.645  53.993 -52.468  1.00  0.00     0.053 A 
HETATM   11  C   UNL     1     -40.554  53.519 -49.644  1.00  0.00     0.054 A 
HETATM   12  N   UNL     1     -41.252  55.885 -49.498  1.00  0.00    -0.129 NA
HETATM   13  C   UNL     1     -40.233  52.527 -50.483  1.00  0.00     0.017 A 
HETATM   14  C   UNL     1     -40.254  52.744 -51.935  1.00  0.00    -0.009 A 
HETATM   15  C   UNL     1     -39.871  51.706 -52.793  1.00  0.00     0.014 A 
HETATM   16  C   UNL     1     -39.863  51.906 -54.172  1.00  0.00     0.001 A 
HETATM   17  C   UNL     1     -40.233  53.143 -54.696  1.00  0.00     0.002 A 
HETATM   18  C   UNL     1     -40.623  54.186 -53.851  1.00  0.00     0.031 A 
HETATM   19  N   UNL     1     -41.580  56.832 -50.423  1.00  0.00    -0.122 NA
ENDBRANCH   6   7
ENDBRANCH   5   6
ENDBRANCH   2   5
BRANCH   1  20
HETATM   20  C   UNL     1     -42.605  60.895 -50.325  1.00  0.00     0.127 C 
BRANCH  20  21
HETATM   21  C   UNL     1     -44.134  60.822 -50.347  1.00  0.00     0.058 C 
BRANCH  21  22
HETATM   22  C   UNL     1     -44.711  61.497 -49.124  1.00  0.00    -0.054 A 
HETATM   23  C   UNL     1     -45.477  60.762 -48.203  1.00  0.00     0.046 A 
HETATM   24  C   UNL     1     -45.947  61.357 -47.027  1.00  0.00     0.102 A 
HETATM   25  C   UNL     1     -45.621  62.696 -46.765  1.00  0.00     0.101 A 
HETATM   26  C   UNL     1     -44.891  63.445 -47.693  1.00  0.00     0.040 A 
HETATM   27  C   UNL     1     -44.432  62.845 -48.866  1.00  0.00     0.010 A 
BRANCH  24  28
HETATM   28  O   UNL     1     -46.683  60.713 -46.065  1.00  0.00    -0.353 OA
HETATM   29  C   UNL     1     -46.620  59.294 -46.042  1.00  0.00     0.210 C 
ENDBRANCH  24  28
BRANCH  25  30
HETATM   30  O   UNL     1     -46.088  63.269 -45.606  1.00  0.00    -0.353 OA
HETATM   31  C   UNL     1     -47.298  63.995 -45.812  1.00  0.00     0.210 C 
ENDBRANCH  25  30
ENDBRANCH  21  22
ENDBRANCH  20  21
ENDBRANCH   1  20
TORSDOF 8
ENDMDL
MODEL 10
REMARK VINA RESULT:      -7.2      2.902      6.281
REMARK  8 active torsions:
REMARK  status: ('A' for Active; 'I' for Inactive)
REMARK    1  A    between atoms: O_2  and  C_3 
REMARK    2  A    between atoms: C_4  and  O_5 
REMARK    3  A    between atoms: C_8  and  C_9 
REMARK    4  A    between atoms: C_9  and  C_10 
REMARK    5  A    between atoms: C_10  and  N_11 
REMARK       I    between atoms: N_11  and  C_12 
REMARK    6  A    between atoms: C_12  and  C_13 
REMARK    7  A    between atoms: C_13  and  S_14 
REMARK    8  A    between atoms: S_14  and  C_15 
ROOT
HETATM    1  N   UNL     1     -43.772  57.377 -55.686  1.00  0.00    -0.360 N 
HETATM    2  C   UNL     1     -43.054  56.689 -56.637  1.00  0.00     0.227 C 
HETATM    3  O   UNL     1     -42.898  57.101 -57.785  1.00  0.00    -0.273 OA
HETATM    4  H   UNL     1     -43.998  56.902 -54.811  1.00  0.00     0.162 HD
ENDROOT
BRANCH   2   5
HETATM    5  C   UNL     1     -42.408  55.406 -56.144  1.00  0.00     0.185 C 
BRANCH   5   6
HETATM    6  S   UNL     1     -43.436  54.556 -54.916  1.00  0.00    -0.080 SA
BRANCH   6   7
HETATM    7  C   UNL     1     -42.659  55.011 -53.436  1.00  0.00     0.197 A 
HETATM    8  N   UNL     1     -41.711  54.293 -52.726  1.00  0.00    -0.271 N 
HETATM    9  C   UNL     1     -41.561  55.033 -51.552  1.00  0.00     0.159 A 
HETATM   10  C   UNL     1     -40.969  53.103 -52.977  1.00  0.00     0.053 A 
HETATM   11  C   UNL     1     -40.704  54.566 -50.529  1.00  0.00     0.054 A 
HETATM   12  N   UNL     1     -42.296  56.122 -51.604  1.00  0.00    -0.129 NA
HETATM   13  C   UNL     1     -40.008  53.434 -50.691  1.00  0.00     0.017 A 
HETATM   14  C   UNL     1     -40.110  52.671 -51.941  1.00  0.00    -0.009 A 
HETATM   15  C   UNL     1     -39.339  51.514 -52.107  1.00  0.00     0.014 A 
HETATM   16  C   UNL     1     -39.408  50.793 -53.297  1.00  0.00     0.001 A 
HETATM   17  C   UNL     1     -40.243  51.227 -54.324  1.00  0.00     0.002 A 
HETATM   18  C   UNL     1     -41.022  52.378 -54.170  1.00  0.00     0.031 A 
HETATM   19  N   UNL     1     -42.974  56.112 -52.786  1.00  0.00    -0.122 NA
ENDBRANCH   6   7
ENDBRANCH   5   6
ENDBRANCH   2   5
BRANCH   1  20
HETATM   20  C   UNL     1     -44.361  58.674 -55.933  1.00  0.00     0.127 C 
BRANCH  20  21
HETATM   21  C   UNL     1     -43.399  59.840 -55.690  1.00  0.00     0.058 C 
BRANCH  21  22
HETATM   22  C   UNL     1     -42.828  59.769 -54.292  1.00  0.00    -0.054 A 
HETATM   23  C   UNL     1     -43.658  59.973 -53.176  1.00  0.00     0.046 A 
HETATM   24  C   UNL     1     -43.158  59.829 -51.877  1.00  0.00     0.102 A 
HETATM   25  C   UNL     1     -41.817  59.452 -51.702  1.00  0.00     0.101 A 
HETATM   26  C   UNL     1     -40.976  59.286 -52.806  1.00  0.00     0.040 A 
HETATM   27  C   UNL     1     -41.482  59.437 -54.097  1.00  0.00     0.010 A 
BRANCH  24  28
HETATM   28  O   UNL     1     -43.898  59.988 -50.733  1.00  0.00    -0.353 OA
HETATM   29  C   UNL     1     -44.343  61.301 -50.425  1.00  0.00     0.210 C 
ENDBRANCH  24  28
BRANCH  25  30
HETATM   30  O   UNL     1     -41.339  59.314 -50.421  1.00  0.00    -0.353 OA
HETATM   31  C   UNL     1     -39.967  59.689 -50.313  1.00  0.00     0.210 C 
ENDBRANCH  25  30
ENDBRANCH  21  22
ENDBRANCH  20  21
ENDBRANCH   1  20
TORSDOF 8
ENDMDL
