MODEL 1
REMARK VINA RESULT:      -8.2      0.000      0.000
REMARK  6 active torsions:
REMARK  status: ('A' for Active; 'I' for Inactive)
REMARK    1  A    between atoms: C_2  and  N_3 
REMARK    2  A    between atoms: C_2  and  C_16 
REMARK    3  A    between atoms: N_3  and  C_6 
REMARK    4  A    between atoms: C_16  and  C_17 
REMARK       I    between atoms: C_17  and  N_18 
REMARK    5  A    between atoms: N_18  and  C_19 
REMARK    6  A    between atoms: C_22  and  O_23 
ROOT
HETATM    1  C   UNL     1     -41.452  57.864 -54.026  1.00  0.00     0.040 C 
HETATM    2  C   UNL     1     -41.991  56.442 -54.145  1.00  0.00     0.191 C 
ENDROOT
BRANCH   2   3
HETATM    3  N   UNL     1     -41.539  55.626 -52.955  1.00  0.00    -0.063 N 
HETATM    4  H   UNL     1     -40.520  55.459 -53.118  1.00  0.00     0.278 HD
HETATM    5  H   UNL     1     -41.587  56.191 -52.101  1.00  0.00     0.278 HD
BRANCH   3   6
HETATM    6  C   UNL     1     -42.156  54.271 -52.719  1.00  0.00     0.221 C 
HETATM    7  C   UNL     1     -41.177  53.141 -52.888  1.00  0.00    -0.011 A 
HETATM    8  C   UNL     1     -40.348  52.728 -51.835  1.00  0.00     0.009 A 
HETATM    9  C   UNL     1     -41.081  52.489 -54.134  1.00  0.00     0.011 A 
HETATM   10  C   UNL     1     -39.432  51.689 -52.049  1.00  0.00     0.019 A 
HETATM   11  S   UNL     1     -40.373  53.434 -50.198  1.00  0.00    -0.129 SA
HETATM   12  C   UNL     1     -39.340  51.056 -53.289  1.00  0.00     0.001 A 
HETATM   13  C   UNL     1     -40.167  51.455 -54.331  1.00  0.00     0.001 A 
HETATM   14  C   UNL     1     -41.850  54.487 -50.190  1.00  0.00     0.082 C 
HETATM   15  C   UNL     1     -42.814  54.243 -51.337  1.00  0.00     0.048 C 
ENDBRANCH   3   6
ENDBRANCH   2   3
BRANCH   2  16
HETATM   16  C   UNL     1     -41.486  55.801 -55.451  1.00  0.00     0.135 C 
BRANCH  16  17
HETATM   17  C   UNL     1     -42.638  55.362 -56.333  1.00  0.00     0.224 C 
HETATM   18  N   UNL     1     -42.664  56.005 -57.548  1.00  0.00    -0.327 N 
HETATM   19  H   UNL     1     -41.917  56.658 -57.759  1.00  0.00     0.169 HD
HETATM   20  O   UNL     1     -43.374  54.460 -55.940  1.00  0.00    -0.273 OA
BRANCH  18  21
HETATM   21  C   UNL     1     -43.628  55.866 -58.571  1.00  0.00     0.034 A 
HETATM   22  C   UNL     1     -43.814  54.704 -59.322  1.00  0.00     0.032 A 
HETATM   23  C   UNL     1     -44.822  54.640 -60.294  1.00  0.00     0.039 A 
HETATM   24  C   UNL     1     -45.654  55.735 -60.518  1.00  0.00     0.068 A 
HETATM   25  C   UNL     1     -45.450  56.907 -59.796  1.00  0.00     0.039 A 
HETATM   26  C   UNL     1     -44.451  56.971 -58.820  1.00  0.00     0.032 A 
BRANCH  24  27
HETATM   27  O   UNL     1     -46.659  55.778 -61.442  1.00  0.00    -0.356 OA
HETATM   28  C   UNL     1     -47.613  56.817 -61.238  1.00  0.00     0.210 C 
ENDBRANCH  24  27
ENDBRANCH  18  21
ENDBRANCH  16  17
ENDBRANCH   2  16
TORSDOF 6
ENDMDL
MODEL 2
REMARK VINA RESULT:      -7.8      1.512      2.042
REMARK  6 active torsions:
REMARK  status: ('A' for Active; 'I' for Inactive)
REMARK    1  A    between atoms: C_2  and  N_3 
REMARK    2  A    between atoms: C_2  and  C_16 
REMARK    3  A    between atoms: N_3  and  C_6 
REMARK    4  A    between atoms: C_16  and  C_17 
REMARK       I    between atoms: C_17  and  N_18 
REMARK    5  A    between atoms: N_18  and  C_19 
REMARK    6  A    between atoms: C_22  and  O_23 
ROOT
HETATM    1  C   UNL     1     -41.382  57.968 -50.952  1.00  0.00     0.040 C 
HETATM    2  C   UNL     1     -42.075  57.240 -52.099  1.00  0.00     0.191 C 
ENDROOT
BRANCH   2   3
HETATM    3  N   UNL     1     -41.321  55.971 -52.426  1.00  0.00    -0.063 N 
HETATM    4  H   UNL     1     -40.987  56.105 -53.407  1.00  0.00     0.278 HD
HETATM    5  H   UNL     1     -40.470  55.910 -51.856  1.00  0.00     0.278 HD
BRANCH   3   6
HETATM    6  C   UNL     1     -42.056  54.655 -52.406  1.00  0.00     0.221 C 
HETATM    7  C   UNL     1     -41.168  53.481 -52.715  1.00  0.00    -0.011 A 
HETATM    8  C   UNL     1     -40.415  52.849 -51.715  1.00  0.00     0.009 A 
HETATM    9  C   UNL     1     -41.081  53.009 -54.041  1.00  0.00     0.011 A 
HETATM   10  C   UNL     1     -39.581  51.776 -52.058  1.00  0.00     0.019 A 
HETATM   11  S   UNL     1     -40.441  53.311 -49.993  1.00  0.00    -0.129 SA
HETATM   12  C   UNL     1     -39.496  51.324 -53.375  1.00  0.00     0.001 A 
HETATM   13  C   UNL     1     -40.249  51.939 -54.366  1.00  0.00     0.001 A 
HETATM   14  C   UNL     1     -41.826  54.476 -49.867  1.00  0.00     0.082 C 
HETATM   15  C   UNL     1     -42.764  54.485 -51.059  1.00  0.00     0.048 C 
ENDBRANCH   3   6
ENDBRANCH   2   3
BRANCH   2  16
HETATM   16  C   UNL     1     -42.136  58.155 -53.336  1.00  0.00     0.135 C 
BRANCH  16  17
HETATM   17  C   UNL     1     -42.850  57.479 -54.489  1.00  0.00     0.224 C 
HETATM   18  N   UNL     1     -42.127  57.500 -55.660  1.00  0.00    -0.327 N 
HETATM   19  H   UNL     1     -41.200  57.910 -55.640  1.00  0.00     0.169 HD
HETATM   20  O   UNL     1     -43.928  56.929 -54.278  1.00  0.00    -0.273 OA
BRANCH  18  21
HETATM   21  C   UNL     1     -42.524  57.007 -56.922  1.00  0.00     0.034 A 
HETATM   22  C   UNL     1     -42.922  55.691 -57.161  1.00  0.00     0.032 A 
HETATM   23  C   UNL     1     -43.339  55.295 -58.440  1.00  0.00     0.039 A 
HETATM   24  C   UNL     1     -43.365  56.214 -59.486  1.00  0.00     0.068 A 
HETATM   25  C   UNL     1     -42.936  57.519 -59.261  1.00  0.00     0.039 A 
HETATM   26  C   UNL     1     -42.528  57.918 -57.985  1.00  0.00     0.032 A 
BRANCH  24  27
HETATM   27  O   UNL     1     -43.746  55.931 -60.767  1.00  0.00    -0.356 OA
HETATM   28  C   UNL     1     -45.038  55.344 -60.889  1.00  0.00     0.210 C 
ENDBRANCH  24  27
ENDBRANCH  18  21
ENDBRANCH  16  17
ENDBRANCH   2  16
TORSDOF 6
ENDMDL
MODEL 3
REMARK VINA RESULT:      -7.6      3.461      6.786
REMARK  6 active torsions:
REMARK  status: ('A' for Active; 'I' for Inactive)
REMARK    1  A    between atoms: C_2  and  N_3 
REMARK    2  A    between atoms: C_2  and  C_16 
REMARK    3  A    between atoms: N_3  and  C_6 
REMARK    4  A    between atoms: C_16  and  C_17 
REMARK       I    between atoms: C_17  and  N_18 
REMARK    5  A    between atoms: N_18  and  C_19 
REMARK    6  A    between atoms: C_22  and  O_23 
ROOT
HETATM    1  C   UNL     1     -44.568  58.286 -55.455  1.00  0.00     0.040 C 
HETATM    2  C   UNL     1     -43.951  57.216 -54.560  1.00  0.00     0.191 C 
ENDROOT
BRANCH   2   3
HETATM    3  N   UNL     1     -43.036  57.866 -53.547  1.00  0.00    -0.063 N 
HETATM    4  H   UNL     1     -42.182  57.264 -53.534  1.00  0.00     0.278 HD
HETATM    5  H   UNL     1     -42.719  58.779 -53.892  1.00  0.00     0.278 HD
BRANCH   3   6
HETATM    6  C   UNL     1     -43.492  57.982 -52.115  1.00  0.00     0.221 C 
HETATM    7  C   UNL     1     -42.929  56.903 -51.229  1.00  0.00    -0.011 A 
HETATM    8  C   UNL     1     -41.668  57.033 -50.630  1.00  0.00     0.009 A 
HETATM    9  C   UNL     1     -43.679  55.731 -51.003  1.00  0.00     0.011 A 
HETATM   10  C   UNL     1     -41.174  55.988 -49.836  1.00  0.00     0.019 A 
HETATM   11  S   UNL     1     -40.616  58.463 -50.798  1.00  0.00    -0.129 SA
HETATM   12  C   UNL     1     -41.921  54.829 -49.627  1.00  0.00     0.001 A 
HETATM   13  C   UNL     1     -43.176  54.702 -50.209  1.00  0.00     0.001 A 
HETATM   14  C   UNL     1     -41.675  59.702 -51.593  1.00  0.00     0.082 C 
HETATM   15  C   UNL     1     -43.158  59.378 -51.582  1.00  0.00     0.048 C 
ENDBRANCH   3   6
ENDBRANCH   2   3
BRANCH   2  16
HETATM   16  C   UNL     1     -43.163  56.209 -55.418  1.00  0.00     0.135 C 
BRANCH  16  17
HETATM   17  C   UNL     1     -42.867  54.938 -54.648  1.00  0.00     0.224 C 
HETATM   18  N   UNL     1     -41.521  54.701 -54.492  1.00  0.00    -0.327 N 
HETATM   19  H   UNL     1     -40.871  55.390 -54.853  1.00  0.00     0.169 HD
HETATM   20  O   UNL     1     -43.806  54.295 -54.183  1.00  0.00    -0.273 OA
BRANCH  18  21
HETATM   21  C   UNL     1     -40.913  53.586 -53.874  1.00  0.00     0.034 A 
HETATM   22  C   UNL     1     -40.675  52.368 -54.512  1.00  0.00     0.032 A 
HETATM   23  C   UNL     1     -40.029  51.325 -53.832  1.00  0.00     0.039 A 
HETATM   24  C   UNL     1     -39.615  51.495 -52.513  1.00  0.00     0.068 A 
HETATM   25  C   UNL     1     -39.881  52.696 -51.862  1.00  0.00     0.039 A 
HETATM   26  C   UNL     1     -40.517  53.740 -52.540  1.00  0.00     0.032 A 
BRANCH  24  27
HETATM   27  O   UNL     1     -38.986  50.544 -51.762  1.00  0.00    -0.356 OA
HETATM   28  C   UNL     1     -39.819  49.890 -50.808  1.00  0.00     0.210 C 
ENDBRANCH  24  27
ENDBRANCH  18  21
ENDBRANCH  16  17
ENDBRANCH   2  16
TORSDOF 6
ENDMDL
MODEL 4
REMARK VINA RESULT:      -7.5      4.535      7.046
REMARK  6 active torsions:
REMARK  status: ('A' for Active; 'I' for Inactive)
REMARK    1  A    between atoms: C_2  and  N_3 
REMARK    2  A    between atoms: C_2  and  C_16 
REMARK    3  A    between atoms: N_3  and  C_6 
REMARK    4  A    between atoms: C_16  and  C_17 
REMARK       I    between atoms: C_17  and  N_18 
REMARK    5  A    between atoms: N_18  and  C_19 
REMARK    6  A    between atoms: C_22  and  O_23 
ROOT
HETATM    1  C   UNL     1     -42.403  56.732 -54.450  1.00  0.00     0.040 C 
HETATM    2  C   UNL     1     -41.108  56.850 -53.652  1.00  0.00     0.191 C 
ENDROOT
BRANCH   2   3
HETATM    3  N   UNL     1     -41.224  56.050 -52.375  1.00  0.00    -0.063 N 
HETATM    4  H   UNL     1     -40.240  55.795 -52.129  1.00  0.00     0.278 HD
HETATM    5  H   UNL     1     -41.547  56.652 -51.610  1.00  0.00     0.278 HD
BRANCH   3   6
HETATM    6  C   UNL     1     -42.003  54.759 -52.386  1.00  0.00     0.221 C 
HETATM    7  C   UNL     1     -41.146  53.558 -52.682  1.00  0.00    -0.011 A 
HETATM    8  C   UNL     1     -40.442  52.894 -51.668  1.00  0.00     0.009 A 
HETATM    9  C   UNL     1     -41.040  53.094 -54.009  1.00  0.00     0.011 A 
HETATM   10  C   UNL     1     -39.634  51.796 -51.998  1.00  0.00     0.019 A 
HETATM   11  S   UNL     1     -40.498  53.342 -49.944  1.00  0.00    -0.129 SA
HETATM   12  C   UNL     1     -39.530  51.351 -53.316  1.00  0.00     0.001 A 
HETATM   13  C   UNL     1     -40.235  51.999 -54.322  1.00  0.00     0.001 A 
HETATM   14  C   UNL     1     -41.846  54.552 -49.843  1.00  0.00     0.082 C 
HETATM   15  C   UNL     1     -42.752  54.602 -51.059  1.00  0.00     0.048 C 
ENDBRANCH   3   6
ENDBRANCH   2   3
BRANCH   2  16
HETATM   16  C   UNL     1     -40.828  58.329 -53.329  1.00  0.00     0.135 C 
BRANCH  16  17
HETATM   17  C   UNL     1     -41.464  58.738 -52.016  1.00  0.00     0.224 C 
HETATM   18  N   UNL     1     -42.693  59.336 -52.173  1.00  0.00    -0.327 N 
HETATM   19  H   UNL     1     -43.071  59.408 -53.111  1.00  0.00     0.169 HD
HETATM   20  O   UNL     1     -40.893  58.450 -50.966  1.00  0.00    -0.273 OA
BRANCH  18  21
HETATM   21  C   UNL     1     -43.519  59.875 -51.163  1.00  0.00     0.034 A 
HETATM   22  C   UNL     1     -43.215  61.023 -50.429  1.00  0.00     0.032 A 
HETATM   23  C   UNL     1     -44.112  61.512 -49.470  1.00  0.00     0.039 A 
HETATM   24  C   UNL     1     -45.321  60.859 -49.241  1.00  0.00     0.068 A 
HETATM   25  C   UNL     1     -45.614  59.694 -49.945  1.00  0.00     0.039 A 
HETATM   26  C   UNL     1     -44.724  59.210 -50.908  1.00  0.00     0.032 A 
BRANCH  24  27
HETATM   27  O   UNL     1     -46.259  61.247 -48.327  1.00  0.00    -0.356 OA
HETATM   28  C   UNL     1     -45.977  60.867 -46.984  1.00  0.00     0.210 C 
ENDBRANCH  24  27
ENDBRANCH  18  21
ENDBRANCH  16  17
ENDBRANCH   2  16
TORSDOF 6
ENDMDL
MODEL 5
REMARK VINA RESULT:      -7.3      3.432      5.904
REMARK  6 active torsions:
REMARK  status: ('A' for Active; 'I' for Inactive)
REMARK    1  A    between atoms: C_2  and  N_3 
REMARK    2  A    between atoms: C_2  and  C_16 
REMARK    3  A    between atoms: N_3  and  C_6 
REMARK    4  A    between atoms: C_16  and  C_17 
REMARK       I    between atoms: C_17  and  N_18 
REMARK    5  A    between atoms: N_18  and  C_19 
REMARK    6  A    between atoms: C_22  and  O_23 
ROOT
HETATM    1  C   UNL     1     -42.865  54.684 -56.177  1.00  0.00     0.040 C 
HETATM    2  C   UNL     1     -41.795  55.606 -55.604  1.00  0.00     0.191 C 
ENDROOT
BRANCH   2   3
HETATM    3  N   UNL     1     -41.617  55.323 -54.129  1.00  0.00    -0.063 N 
HETATM    4  H   UNL     1     -40.583  55.244 -53.995  1.00  0.00     0.278 HD
HETATM    5  H   UNL     1     -41.899  56.139 -53.576  1.00  0.00     0.278 HD
BRANCH   3   6
HETATM    6  C   UNL     1     -42.214  54.067 -53.546  1.00  0.00     0.221 C 
HETATM    7  C   UNL     1     -41.194  52.989 -53.301  1.00  0.00    -0.011 A 
HETATM    8  C   UNL     1     -40.445  52.946 -52.115  1.00  0.00     0.009 A 
HETATM    9  C   UNL     1     -40.975  52.005 -54.287  1.00  0.00     0.011 A 
HETATM   10  C   UNL     1     -39.486  51.938 -51.945  1.00  0.00     0.019 A 
HETATM   11  S   UNL     1     -40.628  54.100 -50.768  1.00  0.00    -0.129 SA
HETATM   12  C   UNL     1     -39.273  50.975 -52.931  1.00  0.00     0.001 A 
HETATM   13  C   UNL     1     -40.019  51.007 -54.101  1.00  0.00     0.001 A 
HETATM   14  C   UNL     1     -42.129  55.031 -51.181  1.00  0.00     0.082 C 
HETATM   15  C   UNL     1     -42.985  54.413 -52.270  1.00  0.00     0.048 C 
ENDBRANCH   3   6
ENDBRANCH   2   3
BRANCH   2  16
HETATM   16  C   UNL     1     -42.203  57.076 -55.816  1.00  0.00     0.135 C 
BRANCH  16  17
HETATM   17  C   UNL     1     -42.408  57.790 -54.495  1.00  0.00     0.224 C 
HETATM   18  N   UNL     1     -43.731  57.887 -54.132  1.00  0.00    -0.327 N 
HETATM   19  H   UNL     1     -44.423  57.453 -54.733  1.00  0.00     0.169 HD
HETATM   20  O   UNL     1     -41.421  58.139 -53.852  1.00  0.00    -0.273 OA
BRANCH  18  21
HETATM   21  C   UNL     1     -44.263  58.533 -52.995  1.00  0.00     0.034 A 
HETATM   22  C   UNL     1     -44.337  59.919 -52.842  1.00  0.00     0.032 A 
HETATM   23  C   UNL     1     -44.917  60.477 -51.694  1.00  0.00     0.039 A 
HETATM   24  C   UNL     1     -45.430  59.653 -50.694  1.00  0.00     0.068 A 
HETATM   25  C   UNL     1     -45.327  58.272 -50.826  1.00  0.00     0.039 A 
HETATM   26  C   UNL     1     -44.757  57.713 -51.974  1.00  0.00     0.032 A 
BRANCH  24  27
HETATM   27  O   UNL     1     -46.007  60.094 -49.537  1.00  0.00    -0.356 OA
HETATM   28  C   UNL     1     -45.276  61.109 -48.855  1.00  0.00     0.210 C 
ENDBRANCH  24  27
ENDBRANCH  18  21
ENDBRANCH  16  17
ENDBRANCH   2  16
TORSDOF 6
ENDMDL
MODEL 6
REMARK VINA RESULT:      -7.2      2.054      3.163
REMARK  6 active torsions:
REMARK  status: ('A' for Active; 'I' for Inactive)
REMARK    1  A    between atoms: C_2  and  N_3 
REMARK    2  A    between atoms: C_2  and  C_16 
REMARK    3  A    between atoms: N_3  and  C_6 
REMARK    4  A    between atoms: C_16  and  C_17 
REMARK       I    between atoms: C_17  and  N_18 
REMARK    5  A    between atoms: N_18  and  C_19 
REMARK    6  A    between atoms: C_22  and  O_23 
ROOT
HETATM    1  C   UNL     1     -42.414  57.441 -57.177  1.00  0.00     0.040 C 
HETATM    2  C   UNL     1     -42.933  56.016 -57.019  1.00  0.00     0.191 C 
ENDROOT
BRANCH   2   3
HETATM    3  N   UNL     1     -42.071  55.268 -56.027  1.00  0.00    -0.063 N 
HETATM    4  H   UNL     1     -41.380  54.747 -56.613  1.00  0.00     0.278 HD
HETATM    5  H   UNL     1     -41.514  55.930 -55.475  1.00  0.00     0.278 HD
BRANCH   3   6
HETATM    6  C   UNL     1     -42.712  54.246 -55.123  1.00  0.00     0.221 C 
HETATM    7  C   UNL     1     -41.730  53.579 -54.199  1.00  0.00    -0.011 A 
HETATM    8  C   UNL     1     -41.375  54.153 -52.970  1.00  0.00     0.009 A 
HETATM    9  C   UNL     1     -41.143  52.355 -54.580  1.00  0.00     0.011 A 
HETATM   10  C   UNL     1     -40.434  53.507 -52.156  1.00  0.00     0.019 A 
HETATM   11  S   UNL     1     -42.052  55.677 -52.339  1.00  0.00    -0.129 SA
HETATM   12  C   UNL     1     -39.853  52.301 -52.547  1.00  0.00     0.001 A 
HETATM   13  C   UNL     1     -40.210  51.723 -53.759  1.00  0.00     0.001 A 
HETATM   14  C   UNL     1     -43.428  56.051 -53.460  1.00  0.00     0.082 C 
HETATM   15  C   UNL     1     -43.860  54.898 -54.347  1.00  0.00     0.048 C 
ENDBRANCH   3   6
ENDBRANCH   2   3
BRANCH   2  16
HETATM   16  C   UNL     1     -42.915  55.300 -58.383  1.00  0.00     0.135 C 
BRANCH  16  17
HETATM   17  C   UNL     1     -43.700  56.073 -59.423  1.00  0.00     0.224 C 
HETATM   18  N   UNL     1     -45.016  56.269 -59.072  1.00  0.00    -0.327 N 
HETATM   19  H   UNL     1     -45.323  55.931 -58.167  1.00  0.00     0.169 HD
HETATM   20  O   UNL     1     -43.110  56.505 -60.410  1.00  0.00    -0.273 OA
BRANCH  18  21
HETATM   21  C   UNL     1     -46.022  56.900 -59.836  1.00  0.00     0.034 A 
HETATM   22  C   UNL     1     -46.287  58.270 -59.806  1.00  0.00     0.032 A 
HETATM   23  C   UNL     1     -47.281  58.819 -60.628  1.00  0.00     0.039 A 
HETATM   24  C   UNL     1     -48.013  58.003 -61.488  1.00  0.00     0.068 A 
HETATM   25  C   UNL     1     -47.776  56.632 -61.497  1.00  0.00     0.039 A 
HETATM   26  C   UNL     1     -46.779  56.083 -60.684  1.00  0.00     0.032 A 
BRANCH  24  27
HETATM   27  O   UNL     1     -49.004  58.436 -62.322  1.00  0.00    -0.356 OA
HETATM   28  C   UNL     1     -49.114  59.852 -62.435  1.00  0.00     0.210 C 
ENDBRANCH  24  27
ENDBRANCH  18  21
ENDBRANCH  16  17
ENDBRANCH   2  16
TORSDOF 6
ENDMDL
MODEL 7
REMARK VINA RESULT:      -7.1      3.109      7.973
REMARK  6 active torsions:
REMARK  status: ('A' for Active; 'I' for Inactive)
REMARK    1  A    between atoms: C_2  and  N_3 
REMARK    2  A    between atoms: C_2  and  C_16 
REMARK    3  A    between atoms: N_3  and  C_6 
REMARK    4  A    between atoms: C_16  and  C_17 
REMARK       I    between atoms: C_17  and  N_18 
REMARK    5  A    between atoms: N_18  and  C_19 
REMARK    6  A    between atoms: C_22  and  O_23 
ROOT
HETATM    1  C   UNL     1     -43.805  59.273 -54.875  1.00  0.00     0.040 C 
HETATM    2  C   UNL     1     -43.408  57.814 -55.079  1.00  0.00     0.191 C 
ENDROOT
BRANCH   2   3
HETATM    3  N   UNL     1     -43.984  57.308 -56.382  1.00  0.00    -0.063 N 
HETATM    4  H   UNL     1     -44.533  56.458 -56.119  1.00  0.00     0.278 HD
HETATM    5  H   UNL     1     -44.674  57.975 -56.746  1.00  0.00     0.278 HD
BRANCH   3   6
HETATM    6  C   UNL     1     -43.045  56.880 -57.481  1.00  0.00     0.221 C 
HETATM    7  C   UNL     1     -43.753  56.243 -58.645  1.00  0.00    -0.011 A 
HETATM    8  C   UNL     1     -44.298  57.015 -59.682  1.00  0.00     0.009 A 
HETATM    9  C   UNL     1     -43.884  54.840 -58.693  1.00  0.00     0.011 A 
HETATM   10  C   UNL     1     -44.974  56.377 -60.731  1.00  0.00     0.019 A 
HETATM   11  S   UNL     1     -44.189  58.792 -59.777  1.00  0.00    -0.129 SA
HETATM   12  C   UNL     1     -45.104  54.988 -60.763  1.00  0.00     0.001 A 
HETATM   13  C   UNL     1     -44.557  54.220 -59.745  1.00  0.00     0.001 A 
HETATM   14  C   UNL     1     -43.008  59.235 -58.474  1.00  0.00     0.082 C 
HETATM   15  C   UNL     1     -42.198  58.076 -57.925  1.00  0.00     0.048 C 
ENDBRANCH   3   6
ENDBRANCH   2   3
BRANCH   2  16
HETATM   16  C   UNL     1     -43.926  56.964 -53.904  1.00  0.00     0.135 C 
BRANCH  16  17
HETATM   17  C   UNL     1     -43.384  55.550 -53.964  1.00  0.00     0.224 C 
HETATM   18  N   UNL     1     -42.241  55.377 -53.219  1.00  0.00    -0.327 N 
HETATM   19  H   UNL     1     -41.898  56.166 -52.682  1.00  0.00     0.169 HD
HETATM   20  O   UNL     1     -44.019  54.698 -54.581  1.00  0.00    -0.273 OA
BRANCH  18  21
HETATM   21  C   UNL     1     -41.461  54.205 -53.104  1.00  0.00     0.034 A 
HETATM   22  C   UNL     1     -40.780  53.826 -51.946  1.00  0.00     0.032 A 
HETATM   23  C   UNL     1     -40.060  52.623 -51.907  1.00  0.00     0.039 A 
HETATM   24  C   UNL     1     -40.021  51.791 -53.023  1.00  0.00     0.068 A 
HETATM   25  C   UNL     1     -40.669  52.182 -54.191  1.00  0.00     0.039 A 
HETATM   26  C   UNL     1     -41.395  53.376 -54.230  1.00  0.00     0.032 A 
BRANCH  24  27
HETATM   27  O   UNL     1     -39.345  50.606 -53.092  1.00  0.00    -0.356 OA
HETATM   28  C   UNL     1     -39.464  49.923 -54.337  1.00  0.00     0.210 C 
ENDBRANCH  24  27
ENDBRANCH  18  21
ENDBRANCH  16  17
ENDBRANCH   2  16
TORSDOF 6
ENDMDL
MODEL 8
REMARK VINA RESULT:      -7.0      2.125      2.578
REMARK  6 active torsions:
REMARK  status: ('A' for Active; 'I' for Inactive)
REMARK    1  A    between atoms: C_2  and  N_3 
REMARK    2  A    between atoms: C_2  and  C_16 
REMARK    3  A    between atoms: N_3  and  C_6 
REMARK    4  A    between atoms: C_16  and  C_17 
REMARK       I    between atoms: C_17  and  N_18 
REMARK    5  A    between atoms: N_18  and  C_19 
REMARK    6  A    between atoms: C_22  and  O_23 
ROOT
HETATM    1  C   UNL     1     -40.954  58.047 -53.601  1.00  0.00     0.040 C 
HETATM    2  C   UNL     1     -41.858  56.818 -53.587  1.00  0.00     0.191 C 
ENDROOT
BRANCH   2   3
HETATM    3  N   UNL     1     -41.352  55.826 -52.565  1.00  0.00    -0.063 N 
HETATM    4  H   UNL     1     -40.373  55.614 -52.861  1.00  0.00     0.278 HD
HETATM    5  H   UNL     1     -41.265  56.278 -51.648  1.00  0.00     0.278 HD
BRANCH   3   6
HETATM    6  C   UNL     1     -42.048  54.497 -52.426  1.00  0.00     0.221 C 
HETATM    7  C   UNL     1     -41.133  53.326 -52.659  1.00  0.00    -0.011 A 
HETATM    8  C   UNL     1     -40.345  52.797 -51.626  1.00  0.00     0.009 A 
HETATM    9  C   UNL     1     -41.055  52.752 -53.944  1.00  0.00     0.011 A 
HETATM   10  C   UNL     1     -39.486  51.723 -51.899  1.00  0.00     0.019 A 
HETATM   11  S   UNL     1     -40.354  53.394 -49.946  1.00  0.00    -0.129 SA
HETATM   12  C   UNL     1     -39.411  51.169 -53.177  1.00  0.00     0.001 A 
HETATM   13  C   UNL     1     -40.198  51.682 -54.199  1.00  0.00     0.001 A 
HETATM   14  C   UNL     1     -41.769  54.527 -49.885  1.00  0.00     0.082 C 
HETATM   15  C   UNL     1     -42.728  54.415 -51.056  1.00  0.00     0.048 C 
ENDBRANCH   3   6
ENDBRANCH   2   3
BRANCH   2  16
HETATM   16  C   UNL     1     -41.883  56.173 -54.986  1.00  0.00     0.135 C 
BRANCH  16  17
HETATM   17  C   UNL     1     -42.669  57.017 -55.970  1.00  0.00     0.224 C 
HETATM   18  N   UNL     1     -41.982  57.270 -57.134  1.00  0.00    -0.327 N 
HETATM   19  H   UNL     1     -41.065  56.852 -57.247  1.00  0.00     0.169 HD
HETATM   20  O   UNL     1     -43.825  57.327 -55.693  1.00  0.00    -0.273 OA
BRANCH  18  21
HETATM   21  C   UNL     1     -42.405  58.061 -58.225  1.00  0.00     0.034 A 
HETATM   22  C   UNL     1     -42.089  59.411 -58.384  1.00  0.00     0.032 A 
HETATM   23  C   UNL     1     -42.519  60.112 -59.520  1.00  0.00     0.039 A 
HETATM   24  C   UNL     1     -43.265  59.467 -60.504  1.00  0.00     0.068 A 
HETATM   25  C   UNL     1     -43.612  58.130 -60.332  1.00  0.00     0.039 A 
HETATM   26  C   UNL     1     -43.176  57.427 -59.205  1.00  0.00     0.032 A 
BRANCH  24  27
HETATM   27  O   UNL     1     -43.737  60.058 -61.641  1.00  0.00    -0.356 OA
HETATM   28  C   UNL     1     -44.595  61.173 -61.421  1.00  0.00     0.210 C 
ENDBRANCH  24  27
ENDBRANCH  18  21
ENDBRANCH  16  17
ENDBRANCH   2  16
TORSDOF 6
ENDMDL
MODEL 9
REMARK VINA RESULT:      -7.0     14.722     16.374
REMARK  6 active torsions:
REMARK  status: ('A' for Active; 'I' for Inactive)
REMARK    1  A    between atoms: C_2  and  N_3 
REMARK    2  A    between atoms: C_2  and  C_16 
REMARK    3  A    between atoms: N_3  and  C_6 
REMARK    4  A    between atoms: C_16  and  C_17 
REMARK       I    between atoms: C_17  and  N_18 
REMARK    5  A    between atoms: N_18  and  C_19 
REMARK    6  A    between atoms: C_22  and  O_23 
ROOT
HETATM    1  C   UNL     1     -36.498  40.045 -50.102  1.00  0.00     0.040 C 
HETATM    2  C   UNL     1     -36.433  40.158 -51.622  1.00  0.00     0.191 C 
ENDROOT
BRANCH   2   3
HETATM    3  N   UNL     1     -34.991  40.108 -52.075  1.00  0.00    -0.063 N 
HETATM    4  H   UNL     1     -34.923  40.829 -52.828  1.00  0.00     0.278 HD
HETATM    5  H   UNL     1     -34.375  40.440 -51.325  1.00  0.00     0.278 HD
BRANCH   3   6
HETATM    6  C   UNL     1     -34.452  38.830 -52.664  1.00  0.00     0.221 C 
HETATM    7  C   UNL     1     -34.666  38.731 -54.150  1.00  0.00    -0.011 A 
HETATM    8  C   UNL     1     -33.761  39.300 -55.059  1.00  0.00     0.009 A 
HETATM    9  C   UNL     1     -35.805  38.063 -54.643  1.00  0.00     0.011 A 
HETATM   10  C   UNL     1     -34.019  39.206 -56.434  1.00  0.00     0.019 A 
HETATM   11  S   UNL     1     -32.265  40.148 -54.591  1.00  0.00    -0.129 SA
HETATM   12  C   UNL     1     -35.154  38.550 -56.910  1.00  0.00     0.001 A 
HETATM   13  C   UNL     1     -36.047  37.976 -56.014  1.00  0.00     0.001 A 
HETATM   14  C   UNL     1     -32.094  39.804 -52.818  1.00  0.00     0.082 C 
HETATM   15  C   UNL     1     -32.973  38.681 -52.298  1.00  0.00     0.048 C 
ENDBRANCH   3   6
ENDBRANCH   2   3
BRANCH   2  16
HETATM   16  C   UNL     1     -37.087  41.477 -52.075  1.00  0.00     0.135 C 
BRANCH  16  17
HETATM   17  C   UNL     1     -36.684  41.835 -53.491  1.00  0.00     0.224 C 
HETATM   18  N   UNL     1     -37.509  41.282 -54.443  1.00  0.00    -0.327 N 
HETATM   19  H   UNL     1     -38.306  40.742 -54.128  1.00  0.00     0.169 HD
HETATM   20  O   UNL     1     -35.748  42.612 -53.663  1.00  0.00    -0.273 OA
BRANCH  18  21
HETATM   21  C   UNL     1     -37.381  41.377 -55.847  1.00  0.00     0.034 A 
HETATM   22  C   UNL     1     -36.366  42.080 -56.498  1.00  0.00     0.032 A 
HETATM   23  C   UNL     1     -36.293  42.089 -57.898  1.00  0.00     0.039 A 
HETATM   24  C   UNL     1     -37.232  41.391 -58.655  1.00  0.00     0.068 A 
HETATM   25  C   UNL     1     -38.266  40.718 -58.012  1.00  0.00     0.039 A 
HETATM   26  C   UNL     1     -38.336  40.700 -56.616  1.00  0.00     0.032 A 
BRANCH  24  27
HETATM   27  O   UNL     1     -37.255  41.342 -60.020  1.00  0.00    -0.356 OA
HETATM   28  C   UNL     1     -37.261  40.027 -60.569  1.00  0.00     0.210 C 
ENDBRANCH  24  27
ENDBRANCH  18  21
ENDBRANCH  16  17
ENDBRANCH   2  16
TORSDOF 6
ENDMDL
MODEL 10
REMARK VINA RESULT:      -6.8      4.750      6.508
REMARK  6 active torsions:
REMARK  status: ('A' for Active; 'I' for Inactive)
REMARK    1  A    between atoms: C_2  and  N_3 
REMARK    2  A    between atoms: C_2  and  C_16 
REMARK    3  A    between atoms: N_3  and  C_6 
REMARK    4  A    between atoms: C_16  and  C_17 
REMARK       I    between atoms: C_17  and  N_18 
REMARK    5  A    between atoms: N_18  and  C_19 
REMARK    6  A    between atoms: C_22  and  O_23 
ROOT
HETATM    1  C   UNL     1     -40.837  53.833 -49.107  1.00  0.00     0.040 C 
HETATM    2  C   UNL     1     -41.740  54.777 -49.895  1.00  0.00     0.191 C 
ENDROOT
BRANCH   2   3
HETATM    3  N   UNL     1     -41.874  54.282 -51.317  1.00  0.00    -0.063 N 
HETATM    4  H   UNL     1     -42.222  53.301 -51.227  1.00  0.00     0.278 HD
HETATM    5  H   UNL     1     -42.623  54.792 -51.799  1.00  0.00     0.278 HD
BRANCH   3   6
HETATM    6  C   UNL     1     -40.646  54.215 -52.189  1.00  0.00     0.221 C 
HETATM    7  C   UNL     1     -40.427  52.854 -52.792  1.00  0.00    -0.011 A 
HETATM    8  C   UNL     1     -41.054  52.474 -53.988  1.00  0.00     0.009 A 
HETATM    9  C   UNL     1     -39.581  51.935 -52.139  1.00  0.00     0.011 A 
HETATM   10  C   UNL     1     -40.841  51.185 -54.496  1.00  0.00     0.019 A 
HETATM   11  S   UNL     1     -42.125  53.532 -54.942  1.00  0.00    -0.129 SA
HETATM   12  C   UNL     1     -40.009  50.281 -53.835  1.00  0.00     0.001 A 
HETATM   13  C   UNL     1     -39.376  50.657 -52.657  1.00  0.00     0.001 A 
HETATM   14  C   UNL     1     -41.919  55.170 -54.190  1.00  0.00     0.082 C 
HETATM   15  C   UNL     1     -40.723  55.301 -53.266  1.00  0.00     0.048 C 
ENDBRANCH   3   6
ENDBRANCH   2   3
BRANCH   2  16
HETATM   16  C   UNL     1     -41.147  56.199 -49.881  1.00  0.00     0.135 C 
BRANCH  16  17
HETATM   17  C   UNL     1     -42.023  57.170 -50.645  1.00  0.00     0.224 C 
HETATM   18  N   UNL     1     -41.383  58.348 -50.953  1.00  0.00    -0.327 N 
HETATM   19  H   UNL     1     -40.408  58.444 -50.691  1.00  0.00     0.169 HD
HETATM   20  O   UNL     1     -43.152  56.816 -50.977  1.00  0.00    -0.273 OA
BRANCH  18  21
HETATM   21  C   UNL     1     -41.928  59.475 -51.608  1.00  0.00     0.034 A 
HETATM   22  C   UNL     1     -41.886  59.677 -52.988  1.00  0.00     0.032 A 
HETATM   23  C   UNL     1     -42.488  60.807 -53.559  1.00  0.00     0.039 A 
HETATM   24  C   UNL     1     -43.139  61.739 -52.754  1.00  0.00     0.068 A 
HETATM   25  C   UNL     1     -43.153  61.560 -51.374  1.00  0.00     0.039 A 
HETATM   26  C   UNL     1     -42.562  60.429 -50.803  1.00  0.00     0.032 A 
BRANCH  24  27
HETATM   27  O   UNL     1     -43.749  62.874 -53.208  1.00  0.00    -0.356 OA
HETATM   28  C   UNL     1     -42.884  63.995 -53.364  1.00  0.00     0.210 C 
ENDBRANCH  24  27
ENDBRANCH  18  21
ENDBRANCH  16  17
ENDBRANCH   2  16
TORSDOF 6
ENDMDL
