MODEL 1
REMARK VINA RESULT:      -8.1      0.000      0.000
REMARK  7 active torsions:
REMARK  status: ('A' for Active; 'I' for Inactive)
REMARK    1  A    between atoms: C_2  and  O_3 
REMARK    2  A    between atoms: O_3  and  C_4 
REMARK    3  A    between atoms: C_5  and  O_6 
REMARK    4  A    between atoms: C_9  and  C_10 
REMARK    5  A    between atoms: C_14  and  C_15 
REMARK       I    between atoms: C_15  and  N_16 
REMARK    6  A    between atoms: N_16  and  N_17 
REMARK    7  A    between atoms: C_18  and  C_19 
ROOT
HETATM    1  C   UNL     1     -42.712  58.452 -58.350  1.00  0.00     0.089 A 
HETATM    2  N   UNL     1     -43.848  57.799 -58.637  1.00  0.00    -0.174 NA
HETATM    3  N   UNL     1     -43.913  56.807 -57.738  1.00  0.00    -0.272 N 
HETATM    4  H   UNL     1     -44.702  56.167 -57.763  1.00  0.00     0.189 HD
HETATM    5  C   UNL     1     -42.864  56.774 -56.863  1.00  0.00     0.121 A 
HETATM    6  C   UNL     1     -42.066  57.838 -57.237  1.00  0.00     0.071 A 
ENDROOT
BRANCH   5   7
HETATM    7  C   UNL     1     -42.780  55.764 -55.837  1.00  0.00     0.289 C 
HETATM    8  N   UNL     1     -41.551  55.124 -55.759  1.00  0.00    -0.242 N 
HETATM    9  H   UNL     1     -40.802  55.378 -56.388  1.00  0.00     0.192 HD
HETATM   10  O   UNL     1     -43.738  55.518 -55.109  1.00  0.00    -0.264 OA
BRANCH   8  11
HETATM   11  N   UNL     1     -41.344  54.134 -54.838  1.00  0.00    -0.183 NA
HETATM   12  C   UNL     1     -40.632  54.465 -53.811  1.00  0.00     0.152 C 
BRANCH  12  13
HETATM   13  C   UNL     1     -40.351  53.487 -52.782  1.00  0.00     0.011 A 
HETATM   14  C   UNL     1     -40.070  52.093 -52.963  1.00  0.00     0.004 A 
HETATM   15  C   UNL     1     -39.866  51.543 -51.695  1.00  0.00     0.043 A 
HETATM   16  C   UNL     1     -39.969  51.244 -54.085  1.00  0.00     0.014 A 
HETATM   17  C   UNL     1     -39.568  50.190 -51.494  1.00  0.00     0.030 A 
HETATM   18  N   UNL     1     -40.017  52.560 -50.781  1.00  0.00    -0.364 N 
HETATM   19  C   UNL     1     -39.474  49.371 -52.624  1.00  0.00     0.002 A 
HETATM   20  C   UNL     1     -39.671  49.888 -53.901  1.00  0.00     0.001 A 
HETATM   21  H   UNL     1     -39.924  52.453 -49.780  1.00  0.00     0.165 HD
HETATM   22  C   UNL     1     -40.308  53.731 -51.423  1.00  0.00     0.102 A 
ENDBRANCH  12  13
ENDBRANCH   8  11
ENDBRANCH   5   7
BRANCH   1  23
HETATM   23  C   UNL     1     -42.277  59.620 -59.132  1.00  0.00    -0.003 A 
HETATM   24  C   UNL     1     -42.526  59.712 -60.514  1.00  0.00     0.053 A 
HETATM   25  C   UNL     1     -42.117  60.829 -61.260  1.00  0.00     0.102 A 
HETATM   26  C   UNL     1     -41.469  61.886 -60.600  1.00  0.00     0.102 A 
HETATM   27  C   UNL     1     -41.190  61.791 -59.236  1.00  0.00     0.040 A 
HETATM   28  C   UNL     1     -41.595  60.673 -58.507  1.00  0.00     0.017 A 
BRANCH  25  29
HETATM   29  O   UNL     1     -42.296  60.951 -62.613  1.00  0.00    -0.353 OA
HETATM   30  C   UNL     1     -43.618  61.116 -63.103  1.00  0.00     0.210 C 
ENDBRANCH  25  29
BRANCH  26  31
HETATM   31  O   UNL     1     -41.005  63.034 -61.190  1.00  0.00    -0.349 OA
BRANCH  31  32
HETATM   32  C   UNL     1     -39.581  63.146 -61.251  1.00  0.00     0.171 C 
HETATM   33  C   UNL     1     -39.173  63.107 -62.713  1.00  0.00     0.034 C 
ENDBRANCH  31  32
ENDBRANCH  26  31
ENDBRANCH   1  23
TORSDOF 7
ENDMDL
MODEL 2
REMARK VINA RESULT:      -8.1      0.818      1.724
REMARK  7 active torsions:
REMARK  status: ('A' for Active; 'I' for Inactive)
REMARK    1  A    between atoms: C_2  and  O_3 
REMARK    2  A    between atoms: O_3  and  C_4 
REMARK    3  A    between atoms: C_5  and  O_6 
REMARK    4  A    between atoms: C_9  and  C_10 
REMARK    5  A    between atoms: C_14  and  C_15 
REMARK       I    between atoms: C_15  and  N_16 
REMARK    6  A    between atoms: N_16  and  N_17 
REMARK    7  A    between atoms: C_18  and  C_19 
ROOT
HETATM    1  C   UNL     1     -42.479  58.636 -58.740  1.00  0.00     0.089 A 
HETATM    2  N   UNL     1     -43.302  57.711 -59.258  1.00  0.00    -0.174 NA
HETATM    3  N   UNL     1     -43.428  56.784 -58.300  1.00  0.00    -0.272 N 
HETATM    4  H   UNL     1     -44.014  55.970 -58.471  1.00  0.00     0.189 HD
HETATM    5  C   UNL     1     -42.721  57.053 -57.162  1.00  0.00     0.121 A 
HETATM    6  C   UNL     1     -42.094  58.257 -57.419  1.00  0.00     0.071 A 
ENDROOT
BRANCH   5   7
HETATM    7  C   UNL     1     -42.743  56.151 -56.038  1.00  0.00     0.289 C 
HETATM    8  N   UNL     1     -41.661  55.285 -55.972  1.00  0.00    -0.242 N 
HETATM    9  H   UNL     1     -40.935  55.321 -56.674  1.00  0.00     0.192 HD
HETATM   10  O   UNL     1     -43.663  56.174 -55.224  1.00  0.00    -0.264 OA
BRANCH   8  11
HETATM   11  N   UNL     1     -41.569  54.368 -54.962  1.00  0.00    -0.183 NA
HETATM   12  C   UNL     1     -40.504  54.443 -54.231  1.00  0.00     0.152 C 
BRANCH  12  13
HETATM   13  C   UNL     1     -40.311  53.513 -53.140  1.00  0.00     0.011 A 
HETATM   14  C   UNL     1     -40.052  52.106 -53.233  1.00  0.00     0.004 A 
HETATM   15  C   UNL     1     -39.940  51.617 -51.930  1.00  0.00     0.043 A 
HETATM   16  C   UNL     1     -39.904  51.199 -54.304  1.00  0.00     0.014 A 
HETATM   17  C   UNL     1     -39.688  50.270 -51.644  1.00  0.00     0.030 A 
HETATM   18  N   UNL     1     -40.122  52.682 -51.079  1.00  0.00    -0.364 N 
HETATM   19  C   UNL     1     -39.544  49.393 -52.724  1.00  0.00     0.002 A 
HETATM   20  C   UNL     1     -39.650  49.848 -54.035  1.00  0.00     0.001 A 
HETATM   21  H   UNL     1     -40.093  52.624 -50.069  1.00  0.00     0.165 HD
HETATM   22  C   UNL     1     -40.344  53.825 -51.795  1.00  0.00     0.102 A 
ENDBRANCH  12  13
ENDBRANCH   8  11
ENDBRANCH   5   7
BRANCH   1  23
HETATM   23  C   UNL     1     -42.085  59.830 -59.502  1.00  0.00    -0.003 A 
HETATM   24  C   UNL     1     -41.627  60.994 -58.857  1.00  0.00     0.053 A 
HETATM   25  C   UNL     1     -41.245  62.133 -59.584  1.00  0.00     0.102 A 
HETATM   26  C   UNL     1     -41.298  62.093 -60.987  1.00  0.00     0.102 A 
HETATM   27  C   UNL     1     -41.781  60.955 -61.635  1.00  0.00     0.040 A 
HETATM   28  C   UNL     1     -42.164  59.831 -60.901  1.00  0.00     0.017 A 
BRANCH  25  29
HETATM   29  O   UNL     1     -40.832  63.306 -59.007  1.00  0.00    -0.353 OA
HETATM   30  C   UNL     1     -41.704  63.941 -58.083  1.00  0.00     0.210 C 
ENDBRANCH  25  29
BRANCH  26  31
HETATM   31  O   UNL     1     -40.969  63.122 -61.831  1.00  0.00    -0.349 OA
BRANCH  31  32
HETATM   32  C   UNL     1     -39.751  62.939 -62.558  1.00  0.00     0.171 C 
HETATM   33  C   UNL     1     -38.669  63.750 -61.865  1.00  0.00     0.034 C 
ENDBRANCH  31  32
ENDBRANCH  26  31
ENDBRANCH   1  23
TORSDOF 7
ENDMDL
MODEL 3
REMARK VINA RESULT:      -8.1      2.540     11.336
REMARK  7 active torsions:
REMARK  status: ('A' for Active; 'I' for Inactive)
REMARK    1  A    between atoms: C_2  and  O_3 
REMARK    2  A    between atoms: O_3  and  C_4 
REMARK    3  A    between atoms: C_5  and  O_6 
REMARK    4  A    between atoms: C_9  and  C_10 
REMARK    5  A    between atoms: C_14  and  C_15 
REMARK       I    between atoms: C_15  and  N_16 
REMARK    6  A    between atoms: N_16  and  N_17 
REMARK    7  A    between atoms: C_18  and  C_19 
ROOT
HETATM    1  C   UNL     1     -42.345  54.840 -54.653  1.00  0.00     0.089 A 
HETATM    2  N   UNL     1     -43.662  55.039 -54.482  1.00  0.00    -0.174 NA
HETATM    3  N   UNL     1     -44.017  55.873 -55.468  1.00  0.00    -0.272 N 
HETATM    4  H   UNL     1     -44.986  56.172 -55.539  1.00  0.00     0.189 HD
HETATM    5  C   UNL     1     -42.989  56.239 -56.291  1.00  0.00     0.121 A 
HETATM    6  C   UNL     1     -41.887  55.577 -55.785  1.00  0.00     0.071 A 
ENDROOT
BRANCH   5   7
HETATM    7  C   UNL     1     -43.202  57.138 -57.398  1.00  0.00     0.289 C 
HETATM    8  N   UNL     1     -42.046  57.715 -57.902  1.00  0.00    -0.242 N 
HETATM    9  H   UNL     1     -41.147  57.493 -57.499  1.00  0.00     0.192 HD
HETATM   10  O   UNL     1     -44.331  57.351 -57.833  1.00  0.00    -0.264 OA
BRANCH   8  11
HETATM   11  N   UNL     1     -42.112  58.599 -58.944  1.00  0.00    -0.183 NA
HETATM   12  C   UNL     1     -41.828  59.828 -58.654  1.00  0.00     0.152 C 
BRANCH  12  13
HETATM   13  C   UNL     1     -41.874  60.841 -59.686  1.00  0.00     0.011 A 
HETATM   14  C   UNL     1     -40.992  61.959 -59.846  1.00  0.00     0.004 A 
HETATM   15  C   UNL     1     -41.417  62.666 -60.973  1.00  0.00     0.043 A 
HETATM   16  C   UNL     1     -39.870  62.440 -59.138  1.00  0.00     0.014 A 
HETATM   17  C   UNL     1     -40.779  63.827 -61.426  1.00  0.00     0.030 A 
HETATM   18  N   UNL     1     -42.512  62.005 -61.479  1.00  0.00    -0.364 N 
HETATM   19  C   UNL     1     -39.670  64.281 -60.706  1.00  0.00     0.002 A 
HETATM   20  C   UNL     1     -39.220  63.599 -59.578  1.00  0.00     0.001 A 
HETATM   21  H   UNL     1     -43.030  62.292 -62.298  1.00  0.00     0.165 HD
HETATM   22  C   UNL     1     -42.795  60.907 -60.714  1.00  0.00     0.102 A 
ENDBRANCH  12  13
ENDBRANCH   8  11
ENDBRANCH   5   7
BRANCH   1  23
HETATM   23  C   UNL     1     -41.574  53.973 -53.750  1.00  0.00    -0.003 A 
HETATM   24  C   UNL     1     -40.749  52.947 -54.246  1.00  0.00     0.053 A 
HETATM   25  C   UNL     1     -40.006  52.122 -53.384  1.00  0.00     0.102 A 
HETATM   26  C   UNL     1     -40.074  52.350 -52.000  1.00  0.00     0.102 A 
HETATM   27  C   UNL     1     -40.914  53.345 -51.497  1.00  0.00     0.040 A 
HETATM   28  C   UNL     1     -41.652  54.154 -52.362  1.00  0.00     0.017 A 
BRANCH  25  29
HETATM   29  O   UNL     1     -39.222  51.082 -53.809  1.00  0.00    -0.353 OA
HETATM   30  C   UNL     1     -39.851  49.991 -54.464  1.00  0.00     0.210 C 
ENDBRANCH  25  29
BRANCH  26  31
HETATM   31  O   UNL     1     -39.418  51.628 -51.036  1.00  0.00    -0.349 OA
BRANCH  31  32
HETATM   32  C   UNL     1     -40.239  50.710 -50.309  1.00  0.00     0.171 C 
HETATM   33  C   UNL     1     -39.924  49.310 -50.809  1.00  0.00     0.034 C 
ENDBRANCH  31  32
ENDBRANCH  26  31
ENDBRANCH   1  23
TORSDOF 7
ENDMDL
MODEL 4
REMARK VINA RESULT:      -7.8      4.036     11.546
REMARK  7 active torsions:
REMARK  status: ('A' for Active; 'I' for Inactive)
REMARK    1  A    between atoms: C_2  and  O_3 
REMARK    2  A    between atoms: O_3  and  C_4 
REMARK    3  A    between atoms: C_5  and  O_6 
REMARK    4  A    between atoms: C_9  and  C_10 
REMARK    5  A    between atoms: C_14  and  C_15 
REMARK       I    between atoms: C_15  and  N_16 
REMARK    6  A    between atoms: N_16  and  N_17 
REMARK    7  A    between atoms: C_18  and  C_19 
ROOT
HETATM    1  C   UNL     1     -42.533  54.794 -54.287  1.00  0.00     0.089 A 
HETATM    2  N   UNL     1     -43.779  54.946 -53.813  1.00  0.00    -0.174 NA
HETATM    3  N   UNL     1     -44.343  55.864 -54.609  1.00  0.00    -0.272 N 
HETATM    4  H   UNL     1     -45.304  56.147 -54.436  1.00  0.00     0.189 HD
HETATM    5  C   UNL     1     -43.522  56.331 -55.596  1.00  0.00     0.121 A 
HETATM    6  C   UNL     1     -42.335  55.648 -55.412  1.00  0.00     0.071 A 
ENDROOT
BRANCH   5   7
HETATM    7  C   UNL     1     -43.973  57.329 -56.533  1.00  0.00     0.289 C 
HETATM    8  N   UNL     1     -44.526  56.817 -57.698  1.00  0.00    -0.242 N 
HETATM    9  H   UNL     1     -44.591  55.818 -57.836  1.00  0.00     0.192 HD
HETATM   10  O   UNL     1     -43.862  58.527 -56.287  1.00  0.00    -0.264 OA
BRANCH   8  11
HETATM   11  N   UNL     1     -44.980  57.658 -58.677  1.00  0.00    -0.183 NA
HETATM   12  C   UNL     1     -46.250  57.607 -58.914  1.00  0.00     0.152 C 
BRANCH  12  13
HETATM   13  C   UNL     1     -46.827  58.455 -59.936  1.00  0.00     0.011 A 
HETATM   14  C   UNL     1     -47.554  58.041 -61.100  1.00  0.00     0.004 A 
HETATM   15  C   UNL     1     -47.914  59.196 -61.797  1.00  0.00     0.043 A 
HETATM   16  C   UNL     1     -47.940  56.791 -61.629  1.00  0.00     0.014 A 
HETATM   17  C   UNL     1     -48.639  59.164 -62.994  1.00  0.00     0.030 A 
HETATM   18  N   UNL     1     -47.427  60.268 -61.087  1.00  0.00    -0.364 N 
HETATM   19  C   UNL     1     -49.009  57.912 -63.496  1.00  0.00     0.002 A 
HETATM   20  C   UNL     1     -48.666  56.742 -62.825  1.00  0.00     0.001 A 
HETATM   21  H   UNL     1     -47.540  61.236 -61.357  1.00  0.00     0.165 HD
HETATM   22  C   UNL     1     -46.774  59.835 -59.967  1.00  0.00     0.102 A 
ENDBRANCH  12  13
ENDBRANCH   8  11
ENDBRANCH   5   7
BRANCH   1  23
HETATM   23  C   UNL     1     -41.581  53.861 -53.666  1.00  0.00    -0.003 A 
HETATM   24  C   UNL     1     -41.098  54.067 -52.360  1.00  0.00     0.053 A 
HETATM   25  C   UNL     1     -40.194  53.172 -51.764  1.00  0.00     0.102 A 
HETATM   26  C   UNL     1     -39.788  52.036 -52.482  1.00  0.00     0.102 A 
HETATM   27  C   UNL     1     -40.237  51.840 -53.789  1.00  0.00     0.040 A 
HETATM   28  C   UNL     1     -41.130  52.739 -54.374  1.00  0.00     0.017 A 
BRANCH  25  29
HETATM   29  O   UNL     1     -39.659  53.346 -50.514  1.00  0.00    -0.353 OA
HETATM   30  C   UNL     1     -40.195  54.373 -49.692  1.00  0.00     0.210 C 
ENDBRANCH  25  29
BRANCH  26  31
HETATM   31  O   UNL     1     -38.908  51.081 -52.041  1.00  0.00    -0.349 OA
BRANCH  31  32
HETATM   32  C   UNL     1     -39.481  49.789 -51.825  1.00  0.00     0.171 C 
HETATM   33  C   UNL     1     -40.023  49.752 -50.406  1.00  0.00     0.034 C 
ENDBRANCH  31  32
ENDBRANCH  26  31
ENDBRANCH   1  23
TORSDOF 7
ENDMDL
MODEL 5
REMARK VINA RESULT:      -7.8      4.057     11.624
REMARK  7 active torsions:
REMARK  status: ('A' for Active; 'I' for Inactive)
REMARK    1  A    between atoms: C_2  and  O_3 
REMARK    2  A    between atoms: O_3  and  C_4 
REMARK    3  A    between atoms: C_5  and  O_6 
REMARK    4  A    between atoms: C_9  and  C_10 
REMARK    5  A    between atoms: C_14  and  C_15 
REMARK       I    between atoms: C_15  and  N_16 
REMARK    6  A    between atoms: N_16  and  N_17 
REMARK    7  A    between atoms: C_18  and  C_19 
ROOT
HETATM    1  C   UNL     1     -42.406  55.059 -54.911  1.00  0.00     0.089 A 
HETATM    2  N   UNL     1     -43.384  55.869 -54.477  1.00  0.00    -0.174 NA
HETATM    3  N   UNL     1     -43.859  56.460 -55.581  1.00  0.00    -0.272 N 
HETATM    4  H   UNL     1     -44.619  57.131 -55.496  1.00  0.00     0.189 HD
HETATM    5  C   UNL     1     -43.237  56.076 -56.735  1.00  0.00     0.121 A 
HETATM    6  C   UNL     1     -42.286  55.160 -56.329  1.00  0.00     0.071 A 
ENDROOT
BRANCH   5   7
HETATM    7  C   UNL     1     -43.626  56.624 -58.011  1.00  0.00     0.289 C 
HETATM    8  N   UNL     1     -44.995  56.746 -58.192  1.00  0.00    -0.242 N 
HETATM    9  H   UNL     1     -45.634  56.465 -57.462  1.00  0.00     0.192 HD
HETATM   10  O   UNL     1     -42.784  56.946 -58.845  1.00  0.00    -0.264 OA
BRANCH   8  11
HETATM   11  N   UNL     1     -45.497  57.238 -59.366  1.00  0.00    -0.183 NA
HETATM   12  C   UNL     1     -46.740  56.971 -59.600  1.00  0.00     0.152 C 
BRANCH  12  13
HETATM   13  C   UNL     1     -47.363  57.443 -60.818  1.00  0.00     0.011 A 
HETATM   14  C   UNL     1     -47.661  58.799 -61.172  1.00  0.00     0.004 A 
HETATM   15  C   UNL     1     -48.260  58.777 -62.434  1.00  0.00     0.043 A 
HETATM   16  C   UNL     1     -47.480  60.047 -60.539  1.00  0.00     0.014 A 
HETATM   17  C   UNL     1     -48.686  59.937 -63.092  1.00  0.00     0.030 A 
HETATM   18  N   UNL     1     -48.323  57.461 -62.831  1.00  0.00    -0.364 N 
HETATM   19  C   UNL     1     -48.494  61.160 -62.441  1.00  0.00     0.002 A 
HETATM   20  C   UNL     1     -47.900  61.216 -61.184  1.00  0.00     0.001 A 
HETATM   21  H   UNL     1     -48.710  57.144 -63.709  1.00  0.00     0.165 HD
HETATM   22  C   UNL     1     -47.786  56.652 -61.869  1.00  0.00     0.102 A 
ENDBRANCH  12  13
ENDBRANCH   8  11
ENDBRANCH   5   7
BRANCH   1  23
HETATM   23  C   UNL     1     -41.624  54.229 -53.982  1.00  0.00    -0.003 A 
HETATM   24  C   UNL     1     -40.898  53.110 -54.431  1.00  0.00     0.053 A 
HETATM   25  C   UNL     1     -40.146  52.320 -53.545  1.00  0.00     0.102 A 
HETATM   26  C   UNL     1     -40.101  52.678 -52.188  1.00  0.00     0.102 A 
HETATM   27  C   UNL     1     -40.842  53.767 -51.728  1.00  0.00     0.040 A 
HETATM   28  C   UNL     1     -41.591  54.540 -52.615  1.00  0.00     0.017 A 
BRANCH  25  29
HETATM   29  O   UNL     1     -39.456  51.197 -53.920  1.00  0.00    -0.353 OA
HETATM   30  C   UNL     1     -40.198  50.073 -54.371  1.00  0.00     0.210 C 
ENDBRANCH  25  29
BRANCH  26  31
HETATM   31  O   UNL     1     -39.422  52.004 -51.205  1.00  0.00    -0.349 OA
BRANCH  31  32
HETATM   32  C   UNL     1     -40.217  51.100 -50.434  1.00  0.00     0.171 C 
HETATM   33  C   UNL     1     -39.749  49.688 -50.746  1.00  0.00     0.034 C 
ENDBRANCH  31  32
ENDBRANCH  26  31
ENDBRANCH   1  23
TORSDOF 7
ENDMDL
MODEL 6
REMARK VINA RESULT:      -7.7      2.597     11.447
REMARK  7 active torsions:
REMARK  status: ('A' for Active; 'I' for Inactive)
REMARK    1  A    between atoms: C_2  and  O_3 
REMARK    2  A    between atoms: O_3  and  C_4 
REMARK    3  A    between atoms: C_5  and  O_6 
REMARK    4  A    between atoms: C_9  and  C_10 
REMARK    5  A    between atoms: C_14  and  C_15 
REMARK       I    between atoms: C_15  and  N_16 
REMARK    6  A    between atoms: N_16  and  N_17 
REMARK    7  A    between atoms: C_18  and  C_19 
ROOT
HETATM    1  C   UNL     1     -42.639  55.363 -54.680  1.00  0.00     0.089 A 
HETATM    2  N   UNL     1     -43.872  55.867 -54.517  1.00  0.00    -0.174 NA
HETATM    3  N   UNL     1     -44.116  56.555 -55.640  1.00  0.00    -0.272 N 
HETATM    4  H   UNL     1     -45.007  57.035 -55.744  1.00  0.00     0.189 HD
HETATM    5  C   UNL     1     -43.095  56.528 -56.547  1.00  0.00     0.121 A 
HETATM    6  C   UNL     1     -42.119  55.755 -55.948  1.00  0.00     0.071 A 
ENDROOT
BRANCH   5   7
HETATM    7  C   UNL     1     -43.196  57.224 -57.806  1.00  0.00     0.289 C 
HETATM    8  N   UNL     1     -42.022  57.834 -58.223  1.00  0.00    -0.242 N 
HETATM    9  H   UNL     1     -41.185  57.768 -57.661  1.00  0.00     0.192 HD
HETATM   10  O   UNL     1     -44.252  57.253 -58.431  1.00  0.00    -0.264 OA
BRANCH   8  11
HETATM   11  N   UNL     1     -41.987  58.541 -59.393  1.00  0.00    -0.183 NA
HETATM   12  C   UNL     1     -41.918  59.826 -59.270  1.00  0.00     0.152 C 
BRANCH  12  13
HETATM   13  C   UNL     1     -41.881  60.663 -60.450  1.00  0.00     0.011 A 
HETATM   14  C   UNL     1     -41.078  61.831 -60.663  1.00  0.00     0.004 A 
HETATM   15  C   UNL     1     -41.375  62.313 -61.940  1.00  0.00     0.043 A 
HETATM   16  C   UNL     1     -40.125  62.527 -59.889  1.00  0.00     0.014 A 
HETATM   17  C   UNL     1     -40.769  63.453 -62.480  1.00  0.00     0.030 A 
HETATM   18  N   UNL     1     -42.319  61.472 -62.482  1.00  0.00    -0.364 N 
HETATM   19  C   UNL     1     -39.828  64.123 -61.693  1.00  0.00     0.002 A 
HETATM   20  C   UNL     1     -39.509  63.669 -60.416  1.00  0.00     0.001 A 
HETATM   21  H   UNL     1     -42.722  61.578 -63.403  1.00  0.00     0.165 HD
HETATM   22  C   UNL     1     -42.630  60.478 -61.596  1.00  0.00     0.102 A 
ENDBRANCH  12  13
ENDBRANCH   8  11
ENDBRANCH   5   7
BRANCH   1  23
HETATM   23  C   UNL     1     -42.001  54.540 -53.641  1.00  0.00    -0.003 A 
HETATM   24  C   UNL     1     -42.289  54.727 -52.277  1.00  0.00     0.053 A 
HETATM   25  C   UNL     1     -41.684  53.937 -51.285  1.00  0.00     0.102 A 
HETATM   26  C   UNL     1     -40.794  52.923 -51.674  1.00  0.00     0.102 A 
HETATM   27  C   UNL     1     -40.477  52.751 -53.022  1.00  0.00     0.040 A 
HETATM   28  C   UNL     1     -41.079  53.546 -53.998  1.00  0.00     0.017 A 
BRANCH  25  29
HETATM   29  O   UNL     1     -41.895  54.104 -49.941  1.00  0.00    -0.353 OA
HETATM   30  C   UNL     1     -41.203  55.152 -49.278  1.00  0.00     0.210 C 
ENDBRANCH  25  29
BRANCH  26  31
HETATM   31  O   UNL     1     -40.121  52.080 -50.827  1.00  0.00    -0.349 OA
BRANCH  31  32
HETATM   32  C   UNL     1     -39.422  51.011 -51.470  1.00  0.00     0.171 C 
HETATM   33  C   UNL     1     -39.725  49.733 -50.707  1.00  0.00     0.034 C 
ENDBRANCH  31  32
ENDBRANCH  26  31
ENDBRANCH   1  23
TORSDOF 7
ENDMDL
MODEL 7
REMARK VINA RESULT:      -7.4      4.244     11.682
REMARK  7 active torsions:
REMARK  status: ('A' for Active; 'I' for Inactive)
REMARK    1  A    between atoms: C_2  and  O_3 
REMARK    2  A    between atoms: O_3  and  C_4 
REMARK    3  A    between atoms: C_5  and  O_6 
REMARK    4  A    between atoms: C_9  and  C_10 
REMARK    5  A    between atoms: C_14  and  C_15 
REMARK       I    between atoms: C_15  and  N_16 
REMARK    6  A    between atoms: N_16  and  N_17 
REMARK    7  A    between atoms: C_18  and  C_19 
ROOT
HETATM    1  C   UNL     1     -42.244  55.450 -55.975  1.00  0.00     0.089 A 
HETATM    2  N   UNL     1     -42.095  56.780 -56.082  1.00  0.00    -0.174 NA
HETATM    3  N   UNL     1     -42.675  57.100 -57.246  1.00  0.00    -0.272 N 
HETATM    4  H   UNL     1     -42.682  58.072 -57.546  1.00  0.00     0.189 HD
HETATM    5  C   UNL     1     -43.206  56.036 -57.920  1.00  0.00     0.121 A 
HETATM    6  C   UNL     1     -42.942  54.947 -57.112  1.00  0.00     0.071 A 
ENDROOT
BRANCH   5   7
HETATM    7  C   UNL     1     -43.860  56.210 -59.193  1.00  0.00     0.289 C 
HETATM    8  N   UNL     1     -45.240  56.328 -59.120  1.00  0.00    -0.242 N 
HETATM    9  H   UNL     1     -45.709  56.294 -58.226  1.00  0.00     0.192 HD
HETATM   10  O   UNL     1     -43.215  56.246 -60.238  1.00  0.00    -0.264 OA
BRANCH   8  11
HETATM   11  N   UNL     1     -45.982  56.482 -60.259  1.00  0.00    -0.183 NA
HETATM   12  C   UNL     1     -46.980  57.301 -60.171  1.00  0.00     0.152 C 
BRANCH  12  13
HETATM   13  C   UNL     1     -47.829  57.528 -61.320  1.00  0.00     0.011 A 
HETATM   14  C   UNL     1     -48.379  58.776 -61.760  1.00  0.00     0.004 A 
HETATM   15  C   UNL     1     -49.136  58.516 -62.905  1.00  0.00     0.043 A 
HETATM   16  C   UNL     1     -48.307  60.106 -61.294  1.00  0.00     0.014 A 
HETATM   17  C   UNL     1     -49.823  59.515 -63.604  1.00  0.00     0.030 A 
HETATM   18  N   UNL     1     -49.050  57.165 -63.151  1.00  0.00    -0.364 N 
HETATM   19  C   UNL     1     -49.733  60.824 -63.121  1.00  0.00     0.002 A 
HETATM   20  C   UNL     1     -48.987  61.117 -61.982  1.00  0.00     0.001 A 
HETATM   21  H   UNL     1     -49.501  56.690 -63.922  1.00  0.00     0.165 HD
HETATM   22  C   UNL     1     -48.267  56.563 -62.206  1.00  0.00     0.102 A 
ENDBRANCH  12  13
ENDBRANCH   8  11
ENDBRANCH   5   7
BRANCH   1  23
HETATM   23  C   UNL     1     -41.724  54.708 -54.816  1.00  0.00    -0.003 A 
HETATM   24  C   UNL     1     -42.141  55.009 -53.506  1.00  0.00     0.053 A 
HETATM   25  C   UNL     1     -41.650  54.297 -52.399  1.00  0.00     0.102 A 
HETATM   26  C   UNL     1     -40.744  53.246 -52.615  1.00  0.00     0.102 A 
HETATM   27  C   UNL     1     -40.301  52.961 -53.907  1.00  0.00     0.040 A 
HETATM   28  C   UNL     1     -40.790  53.679 -54.998  1.00  0.00     0.017 A 
BRANCH  25  29
HETATM   29  O   UNL     1     -41.988  54.575 -51.100  1.00  0.00    -0.353 OA
HETATM   30  C   UNL     1     -41.404  55.713 -50.483  1.00  0.00     0.210 C 
ENDBRANCH  25  29
BRANCH  26  31
HETATM   31  O   UNL     1     -40.173  52.468 -51.640  1.00  0.00    -0.349 OA
BRANCH  31  32
HETATM   32  C   UNL     1     -39.540  51.277 -52.114  1.00  0.00     0.171 C 
HETATM   33  C   UNL     1     -39.582  50.251 -50.994  1.00  0.00     0.034 C 
ENDBRANCH  31  32
ENDBRANCH  26  31
ENDBRANCH   1  23
TORSDOF 7
ENDMDL
MODEL 8
REMARK VINA RESULT:      -7.3      2.599     11.235
REMARK  7 active torsions:
REMARK  status: ('A' for Active; 'I' for Inactive)
REMARK    1  A    between atoms: C_2  and  O_3 
REMARK    2  A    between atoms: O_3  and  C_4 
REMARK    3  A    between atoms: C_5  and  O_6 
REMARK    4  A    between atoms: C_9  and  C_10 
REMARK    5  A    between atoms: C_14  and  C_15 
REMARK       I    between atoms: C_15  and  N_16 
REMARK    6  A    between atoms: N_16  and  N_17 
REMARK    7  A    between atoms: C_18  and  C_19 
ROOT
HETATM    1  C   UNL     1     -42.293  54.711 -55.042  1.00  0.00     0.089 A 
HETATM    2  N   UNL     1     -43.226  54.012 -55.708  1.00  0.00    -0.174 NA
HETATM    3  N   UNL     1     -43.500  54.748 -56.794  1.00  0.00    -0.272 N 
HETATM    4  H   UNL     1     -44.193  54.412 -57.458  1.00  0.00     0.189 HD
HETATM    5  C   UNL     1     -42.785  55.909 -56.879  1.00  0.00     0.121 A 
HETATM    6  C   UNL     1     -41.988  55.910 -55.751  1.00  0.00     0.071 A 
ENDROOT
BRANCH   5   7
HETATM    7  C   UNL     1     -42.966  56.817 -57.984  1.00  0.00     0.289 C 
HETATM    8  N   UNL     1     -41.934  57.727 -58.157  1.00  0.00    -0.242 N 
HETATM    9  H   UNL     1     -41.135  57.717 -57.538  1.00  0.00     0.192 HD
HETATM   10  O   UNL     1     -43.967  56.761 -58.694  1.00  0.00    -0.264 OA
BRANCH   8  11
HETATM   11  N   UNL     1     -41.989  58.655 -59.161  1.00  0.00    -0.183 NA
HETATM   12  C   UNL     1     -41.868  59.888 -58.791  1.00  0.00     0.152 C 
BRANCH  12  13
HETATM   13  C   UNL     1     -41.920  60.945 -59.778  1.00  0.00     0.011 A 
HETATM   14  C   UNL     1     -42.891  61.116 -60.818  1.00  0.00     0.004 A 
HETATM   15  C   UNL     1     -42.541  62.267 -61.528  1.00  0.00     0.043 A 
HETATM   16  C   UNL     1     -44.036  60.400 -61.226  1.00  0.00     0.014 A 
HETATM   17  C   UNL     1     -43.277  62.737 -62.622  1.00  0.00     0.030 A 
HETATM   18  N   UNL     1     -41.405  62.777 -60.943  1.00  0.00    -0.364 N 
HETATM   19  C   UNL     1     -44.407  62.008 -63.005  1.00  0.00     0.002 A 
HETATM   20  C   UNL     1     -44.783  60.857 -62.319  1.00  0.00     0.001 A 
HETATM   21  H   UNL     1     -40.925  63.612 -61.249  1.00  0.00     0.165 HD
HETATM   22  C   UNL     1     -41.024  61.991 -59.891  1.00  0.00     0.102 A 
ENDBRANCH  12  13
ENDBRANCH   8  11
ENDBRANCH   5   7
BRANCH   1  23
HETATM   23  C   UNL     1     -41.731  54.229 -53.771  1.00  0.00    -0.003 A 
HETATM   24  C   UNL     1     -40.850  53.133 -53.728  1.00  0.00     0.053 A 
HETATM   25  C   UNL     1     -40.308  52.675 -52.516  1.00  0.00     0.102 A 
HETATM   26  C   UNL     1     -40.636  53.348 -51.328  1.00  0.00     0.102 A 
HETATM   27  C   UNL     1     -41.534  54.416 -51.356  1.00  0.00     0.040 A 
HETATM   28  C   UNL     1     -42.072  54.857 -52.566  1.00  0.00     0.017 A 
BRANCH  25  29
HETATM   29  O   UNL     1     -39.480  51.588 -52.411  1.00  0.00    -0.353 OA
HETATM   30  C   UNL     1     -39.532  50.604 -53.433  1.00  0.00     0.210 C 
ENDBRANCH  25  29
BRANCH  26  31
HETATM   31  O   UNL     1     -40.197  53.017 -50.072  1.00  0.00    -0.349 OA
BRANCH  31  32
HETATM   32  C   UNL     1     -39.717  54.116 -49.292  1.00  0.00     0.171 C 
HETATM   33  C   UNL     1     -40.290  53.977 -47.892  1.00  0.00     0.034 C 
ENDBRANCH  31  32
ENDBRANCH  26  31
ENDBRANCH   1  23
TORSDOF 7
ENDMDL
MODEL 9
REMARK VINA RESULT:      -7.3     16.214     19.667
REMARK  7 active torsions:
REMARK  status: ('A' for Active; 'I' for Inactive)
REMARK    1  A    between atoms: C_2  and  O_3 
REMARK    2  A    between atoms: O_3  and  C_4 
REMARK    3  A    between atoms: C_5  and  O_6 
REMARK    4  A    between atoms: C_9  and  C_10 
REMARK    5  A    between atoms: C_14  and  C_15 
REMARK       I    between atoms: C_15  and  N_16 
REMARK    6  A    between atoms: N_16  and  N_17 
REMARK    7  A    between atoms: C_18  and  C_19 
ROOT
HETATM    1  C   UNL     1     -34.683  41.124 -52.944  1.00  0.00     0.089 A 
HETATM    2  N   UNL     1     -34.953  41.745 -51.785  1.00  0.00    -0.174 NA
HETATM    3  N   UNL     1     -34.081  41.233 -50.906  1.00  0.00    -0.272 N 
HETATM    4  H   UNL     1     -34.099  41.558 -49.943  1.00  0.00     0.189 HD
HETATM    5  C   UNL     1     -33.239  40.295 -51.433  1.00  0.00     0.121 A 
HETATM    6  C   UNL     1     -33.607  40.205 -52.762  1.00  0.00     0.071 A 
ENDROOT
BRANCH   5   7
HETATM    7  C   UNL     1     -32.246  39.641 -50.618  1.00  0.00     0.289 C 
HETATM    8  N   UNL     1     -32.021  40.244 -49.389  1.00  0.00    -0.242 N 
HETATM    9  H   UNL     1     -32.537  41.071 -49.124  1.00  0.00     0.192 HD
HETATM   10  O   UNL     1     -31.665  38.633 -51.013  1.00  0.00    -0.264 OA
BRANCH   8  11
HETATM   11  N   UNL     1     -31.091  39.732 -48.526  1.00  0.00    -0.183 NA
HETATM   12  C   UNL     1     -30.992  40.336 -47.387  1.00  0.00     0.152 C 
BRANCH  12  13
HETATM   13  C   UNL     1     -30.033  39.873 -46.407  1.00  0.00     0.011 A 
HETATM   14  C   UNL     1     -30.310  39.223 -45.160  1.00  0.00     0.004 A 
HETATM   15  C   UNL     1     -29.083  38.962 -44.546  1.00  0.00     0.043 A 
HETATM   16  C   UNL     1     -31.490  38.832 -44.492  1.00  0.00     0.014 A 
HETATM   17  C   UNL     1     -28.976  38.332 -43.301  1.00  0.00     0.030 A 
HETATM   18  N   UNL     1     -28.099  39.433 -45.385  1.00  0.00    -0.364 N 
HETATM   19  C   UNL     1     -30.161  37.954 -42.661  1.00  0.00     0.002 A 
HETATM   20  C   UNL     1     -31.400  38.200 -43.246  1.00  0.00     0.001 A 
HETATM   21  H   UNL     1     -27.107  39.379 -45.197  1.00  0.00     0.165 HD
HETATM   22  C   UNL     1     -28.659  39.981 -46.506  1.00  0.00     0.102 A 
ENDBRANCH  12  13
ENDBRANCH   8  11
ENDBRANCH   5   7
BRANCH   1  23
HETATM   23  C   UNL     1     -35.444  41.413 -54.168  1.00  0.00    -0.003 A 
HETATM   24  C   UNL     1     -36.829  41.177 -54.244  1.00  0.00     0.053 A 
HETATM   25  C   UNL     1     -37.558  41.459 -55.411  1.00  0.00     0.102 A 
HETATM   26  C   UNL     1     -36.888  42.014 -56.513  1.00  0.00     0.102 A 
HETATM   27  C   UNL     1     -35.509  42.223 -56.459  1.00  0.00     0.040 A 
HETATM   28  C   UNL     1     -34.794  41.932 -55.296  1.00  0.00     0.017 A 
BRANCH  25  29
HETATM   29  O   UNL     1     -38.898  41.209 -55.554  1.00  0.00    -0.353 OA
HETATM   30  C   UNL     1     -39.732  41.348 -54.413  1.00  0.00     0.210 C 
ENDBRANCH  25  29
BRANCH  26  31
HETATM   31  O   UNL     1     -37.457  42.334 -57.719  1.00  0.00    -0.349 OA
BRANCH  31  32
HETATM   32  C   UNL     1     -36.926  41.626 -58.843  1.00  0.00     0.171 C 
HETATM   33  C   UNL     1     -37.339  42.373 -60.100  1.00  0.00     0.034 C 
ENDBRANCH  31  32
ENDBRANCH  26  31
ENDBRANCH   1  23
TORSDOF 7
ENDMDL
MODEL 10
REMARK VINA RESULT:      -7.3      3.093     11.428
REMARK  7 active torsions:
REMARK  status: ('A' for Active; 'I' for Inactive)
REMARK    1  A    between atoms: C_2  and  O_3 
REMARK    2  A    between atoms: O_3  and  C_4 
REMARK    3  A    between atoms: C_5  and  O_6 
REMARK    4  A    between atoms: C_9  and  C_10 
REMARK    5  A    between atoms: C_14  and  C_15 
REMARK       I    between atoms: C_15  and  N_16 
REMARK    6  A    between atoms: N_16  and  N_17 
REMARK    7  A    between atoms: C_18  and  C_19 
ROOT
HETATM    1  C   UNL     1     -42.742  55.288 -53.675  1.00  0.00     0.089 A 
HETATM    2  N   UNL     1     -43.647  55.842 -52.853  1.00  0.00    -0.174 NA
HETATM    3  N   UNL     1     -44.334  56.698 -53.621  1.00  0.00    -0.272 N 
HETATM    4  H   UNL     1     -45.084  57.244 -53.206  1.00  0.00     0.189 HD
HETATM    5  C   UNL     1     -43.923  56.736 -54.924  1.00  0.00     0.121 A 
HETATM    6  C   UNL     1     -42.888  55.824 -54.988  1.00  0.00     0.071 A 
ENDROOT
BRANCH   5   7
HETATM    7  C   UNL     1     -44.554  57.611 -55.880  1.00  0.00     0.289 C 
HETATM    8  N   UNL     1     -43.759  57.946 -56.967  1.00  0.00    -0.242 N 
HETATM    9  H   UNL     1     -42.820  57.582 -57.044  1.00  0.00     0.192 HD
HETATM   10  O   UNL     1     -45.705  58.007 -55.714  1.00  0.00    -0.264 OA
BRANCH   8  11
HETATM   11  N   UNL     1     -44.234  58.783 -57.939  1.00  0.00    -0.183 NA
HETATM   12  C   UNL     1     -44.129  58.347 -59.153  1.00  0.00     0.152 C 
BRANCH  12  13
HETATM   13  C   UNL     1     -44.598  59.160 -60.254  1.00  0.00     0.011 A 
HETATM   14  C   UNL     1     -43.814  60.012 -61.100  1.00  0.00     0.004 A 
HETATM   15  C   UNL     1     -44.686  60.600 -62.019  1.00  0.00     0.043 A 
HETATM   16  C   UNL     1     -42.444  60.341 -61.172  1.00  0.00     0.014 A 
HETATM   17  C   UNL     1     -44.258  61.498 -63.003  1.00  0.00     0.030 A 
HETATM   18  N   UNL     1     -45.948  60.125 -61.745  1.00  0.00    -0.364 N 
HETATM   19  C   UNL     1     -42.894  61.806 -63.052  1.00  0.00     0.002 A 
HETATM   20  C   UNL     1     -41.999  61.237 -62.151  1.00  0.00     0.001 A 
HETATM   21  H   UNL     1     -46.783  60.382 -62.254  1.00  0.00     0.165 HD
HETATM   22  C   UNL     1     -45.906  59.260 -60.687  1.00  0.00     0.102 A 
ENDBRANCH  12  13
ENDBRANCH   8  11
ENDBRANCH   5   7
BRANCH   1  23
HETATM   23  C   UNL     1     -41.779  54.284 -53.195  1.00  0.00    -0.003 A 
HETATM   24  C   UNL     1     -41.471  54.158 -51.828  1.00  0.00     0.053 A 
HETATM   25  C   UNL     1     -40.556  53.196 -51.369  1.00  0.00     0.102 A 
HETATM   26  C   UNL     1     -39.961  52.327 -52.298  1.00  0.00     0.102 A 
HETATM   27  C   UNL     1     -40.237  52.465 -53.659  1.00  0.00     0.040 A 
HETATM   28  C   UNL     1     -41.142  53.429 -54.104  1.00  0.00     0.017 A 
BRANCH  25  29
HETATM   29  O   UNL     1     -40.187  53.058 -50.057  1.00  0.00    -0.353 OA
HETATM   30  C   UNL     1     -39.754  54.215 -49.356  1.00  0.00     0.210 C 
ENDBRANCH  25  29
BRANCH  26  31
HETATM   31  O   UNL     1     -39.047  51.347 -52.006  1.00  0.00    -0.349 OA
BRANCH  31  32
HETATM   32  C   UNL     1     -39.552  50.011 -52.076  1.00  0.00     0.171 C 
HETATM   33  C   UNL     1     -39.871  49.560 -50.661  1.00  0.00     0.034 C 
ENDBRANCH  31  32
ENDBRANCH  26  31
ENDBRANCH   1  23
TORSDOF 7
ENDMDL
