MODEL 1
REMARK VINA RESULT:      -7.4      0.000      0.000
REMARK  2 active torsions:
REMARK  status: ('A' for Active; 'I' for Inactive)
REMARK    1  A    between atoms: C_9  and  C_10 
REMARK       I    between atoms: C_10  and  N_11 
REMARK    2  A    between atoms: N_11  and  C_12 
ROOT
HETATM    1  C   UNL     1     -41.048  55.482 -49.929  1.00  0.00     0.276 C 
HETATM    2  N   UNL     1     -41.213  56.369 -50.972  1.00  0.00    -0.317 N 
HETATM    3  O   UNL     1     -41.181  55.747 -48.739  1.00  0.00    -0.266 OA
HETATM    4  H   UNL     1     -41.068  55.970 -51.903  1.00  0.00     0.169 HD
ENDROOT
BRANCH   1   5
HETATM    5  C   UNL     1     -40.681  54.133 -50.391  1.00  0.00     0.147 A 
HETATM    6  N   UNL     1     -40.432  53.126 -49.527  1.00  0.00    -0.169 NA
HETATM    7  N   UNL     1     -40.150  52.078 -50.326  1.00  0.00    -0.275 N 
HETATM    8  C   UNL     1     -40.201  52.369 -51.660  1.00  0.00     0.086 A 
HETATM    9  H   UNL     1     -39.927  51.183 -49.904  1.00  0.00     0.189 HD
HETATM   10  C   UNL     1     -39.937  51.391 -52.660  1.00  0.00     0.103 A 
HETATM   11  C   UNL     1     -40.542  53.698 -51.736  1.00  0.00     0.073 A 
HETATM   12  O   UNL     1     -39.641  50.089 -52.349  1.00  0.00    -0.320 OA
HETATM   13  C   UNL     1     -39.925  51.530 -54.038  1.00  0.00     0.041 A 
HETATM   14  C   UNL     1     -39.448  49.419 -53.512  1.00  0.00     0.142 A 
HETATM   15  C   UNL     1     -39.610  50.262 -54.584  1.00  0.00     0.027 A 
ENDBRANCH   1   5
BRANCH   2  16
HETATM   16  C   UNL     1     -41.538  57.704 -50.932  1.00  0.00     0.102 A 
HETATM   17  C   UNL     1     -42.924  58.073 -51.417  1.00  0.00     0.218 A 
HETATM   18  O   UNL     1     -43.684  57.190 -51.814  1.00  0.00    -0.284 OA
HETATM   19  C   UNL     1     -43.312  59.524 -51.392  1.00  0.00     0.078 A 
HETATM   20 BR   UNL     1     -45.002  60.035 -51.976  1.00  0.00    -0.045 Br
HETATM   21  C   UNL     1     -42.398  60.395 -50.937  1.00  0.00     0.111 A 
HETATM   22  N   UNL     1     -41.153  60.024 -50.505  1.00  0.00    -0.372 N 
HETATM   23  C   UNL     1     -40.757  58.711 -50.511  1.00  0.00     0.121 A 
HETATM   24  H   UNL     1     -40.503  60.733 -50.175  1.00  0.00     0.164 HD
ENDBRANCH   2  16
TORSDOF 2
ENDMDL
MODEL 2
REMARK VINA RESULT:      -7.2      5.572      6.143
REMARK  2 active torsions:
REMARK  status: ('A' for Active; 'I' for Inactive)
REMARK    1  A    between atoms: C_9  and  C_10 
REMARK       I    between atoms: C_10  and  N_11 
REMARK    2  A    between atoms: N_11  and  C_12 
ROOT
HETATM    1  C   UNL     1     -41.930  56.337 -55.555  1.00  0.00     0.276 C 
HETATM    2  N   UNL     1     -42.165  55.841 -56.819  1.00  0.00    -0.317 N 
HETATM    3  O   UNL     1     -42.128  57.493 -55.192  1.00  0.00    -0.266 OA
HETATM    4  H   UNL     1     -41.948  54.848 -56.939  1.00  0.00     0.169 HD
ENDROOT
BRANCH   1   5
HETATM    5  C   UNL     1     -41.397  55.315 -54.640  1.00  0.00     0.147 A 
HETATM    6  N   UNL     1     -41.105  55.592 -53.351  1.00  0.00    -0.169 NA
HETATM    7  N   UNL     1     -40.664  54.417 -52.860  1.00  0.00    -0.275 N 
HETATM    8  C   UNL     1     -40.653  53.403 -53.775  1.00  0.00     0.086 A 
HETATM    9  H   UNL     1     -40.380  54.366 -51.887  1.00  0.00     0.189 HD
HETATM   10  C   UNL     1     -40.222  52.087 -53.445  1.00  0.00     0.103 A 
HETATM   11  C   UNL     1     -41.122  53.955 -54.944  1.00  0.00     0.073 A 
HETATM   12  O   UNL     1     -39.816  51.747 -52.180  1.00  0.00    -0.320 OA
HETATM   13  C   UNL     1     -40.130  50.968 -54.254  1.00  0.00     0.041 A 
HETATM   14  C   UNL     1     -39.476  50.435 -52.193  1.00  0.00     0.142 A 
HETATM   15  C   UNL     1     -39.650  49.907 -53.448  1.00  0.00     0.027 A 
ENDBRANCH   1   5
BRANCH   2  16
HETATM   16  C   UNL     1     -42.643  56.492 -57.931  1.00  0.00     0.102 A 
HETATM   17  C   UNL     1     -43.611  55.717 -58.800  1.00  0.00     0.218 A 
HETATM   18  O   UNL     1     -43.925  54.569 -58.485  1.00  0.00    -0.284 OA
HETATM   19  C   UNL     1     -44.151  56.396 -60.027  1.00  0.00     0.078 A 
HETATM   20 BR   UNL     1     -45.343  55.492 -61.130  1.00  0.00    -0.045 Br
HETATM   21  C   UNL     1     -43.735  57.649 -60.266  1.00  0.00     0.111 A 
HETATM   22  N   UNL     1     -42.858  58.321 -59.457  1.00  0.00    -0.372 N 
HETATM   23  C   UNL     1     -42.341  57.738 -58.328  1.00  0.00     0.121 A 
HETATM   24  H   UNL     1     -42.578  59.269 -59.695  1.00  0.00     0.164 HD
ENDBRANCH   2  16
TORSDOF 2
ENDMDL
MODEL 3
REMARK VINA RESULT:      -7.2      1.666      1.785
REMARK  2 active torsions:
REMARK  status: ('A' for Active; 'I' for Inactive)
REMARK    1  A    between atoms: C_9  and  C_10 
REMARK       I    between atoms: C_10  and  N_11 
REMARK    2  A    between atoms: N_11  and  C_12 
ROOT
HETATM    1  C   UNL     1     -41.452  56.540 -52.578  1.00  0.00     0.276 C 
HETATM    2  N   UNL     1     -41.914  57.130 -51.421  1.00  0.00    -0.317 N 
HETATM    3  O   UNL     1     -41.391  57.077 -53.679  1.00  0.00    -0.266 OA
HETATM    4  H   UNL     1     -41.885  56.532 -50.592  1.00  0.00     0.169 HD
ENDROOT
BRANCH   1   5
HETATM    5  C   UNL     1     -41.019  55.149 -52.366  1.00  0.00     0.147 A 
HETATM    6  N   UNL     1     -40.741  54.667 -51.136  1.00  0.00    -0.169 NA
HETATM    7  N   UNL     1     -40.401  53.383 -51.362  1.00  0.00    -0.275 N 
HETATM    8  C   UNL     1     -40.442  53.022 -52.679  1.00  0.00     0.086 A 
HETATM    9  H   UNL     1     -40.146  52.795 -50.575  1.00  0.00     0.189 HD
HETATM   10  C   UNL     1     -40.119  51.706 -53.116  1.00  0.00     0.103 A 
HETATM   11  C   UNL     1     -40.839  54.149 -53.359  1.00  0.00     0.073 A 
HETATM   12  O   UNL     1     -39.771  50.710 -52.240  1.00  0.00    -0.320 OA
HETATM   13  C   UNL     1     -40.090  51.194 -54.402  1.00  0.00     0.041 A 
HETATM   14  C   UNL     1     -39.530  49.589 -52.963  1.00  0.00     0.142 A 
HETATM   15  C   UNL     1     -39.711  49.833 -54.302  1.00  0.00     0.027 A 
ENDBRANCH   1   5
BRANCH   2  16
HETATM   16  C   UNL     1     -42.409  58.399 -51.233  1.00  0.00     0.102 A 
HETATM   17  C   UNL     1     -43.888  58.589 -51.491  1.00  0.00     0.218 A 
HETATM   18  O   UNL     1     -44.571  57.628 -51.845  1.00  0.00    -0.284 OA
HETATM   19  C   UNL     1     -44.463  59.964 -51.299  1.00  0.00     0.078 A 
HETATM   20 BR   UNL     1     -46.274  60.255 -51.602  1.00  0.00    -0.045 Br
HETATM   21  C   UNL     1     -43.618  60.932 -50.910  1.00  0.00     0.111 A 
HETATM   22  N   UNL     1     -42.284  60.723 -50.685  1.00  0.00    -0.372 N 
HETATM   23  C   UNL     1     -41.718  59.484 -50.848  1.00  0.00     0.121 A 
HETATM   24  H   UNL     1     -41.695  61.499 -50.395  1.00  0.00     0.164 HD
ENDBRANCH   2  16
TORSDOF 2
ENDMDL
MODEL 4
REMARK VINA RESULT:      -7.0      4.232      4.738
REMARK  2 active torsions:
REMARK  status: ('A' for Active; 'I' for Inactive)
REMARK    1  A    between atoms: C_9  and  C_10 
REMARK       I    between atoms: C_10  and  N_11 
REMARK    2  A    between atoms: N_11  and  C_12 
ROOT
HETATM    1  C   UNL     1     -42.065  56.528 -54.259  1.00  0.00     0.276 C 
HETATM    2  N   UNL     1     -43.258  56.271 -54.900  1.00  0.00    -0.317 N 
HETATM    3  O   UNL     1     -41.515  57.622 -54.185  1.00  0.00    -0.266 OA
HETATM    4  H   UNL     1     -43.571  55.298 -54.853  1.00  0.00     0.169 HD
ENDROOT
BRANCH   1   5
HETATM    5  C   UNL     1     -41.485  55.322 -53.646  1.00  0.00     0.147 A 
HETATM    6  N   UNL     1     -41.130  55.283 -52.345  1.00  0.00    -0.169 NA
HETATM    7  N   UNL     1     -40.663  54.030 -52.175  1.00  0.00    -0.275 N 
HETATM    8  C   UNL     1     -40.697  53.268 -53.308  1.00  0.00     0.086 A 
HETATM    9  H   UNL     1     -40.330  53.749 -51.258  1.00  0.00     0.189 HD
HETATM   10  C   UNL     1     -40.249  51.917 -53.327  1.00  0.00     0.103 A 
HETATM   11  C   UNL     1     -41.225  54.079 -54.284  1.00  0.00     0.073 A 
HETATM   12  O   UNL     1     -39.779  51.286 -52.204  1.00  0.00    -0.320 OA
HETATM   13  C   UNL     1     -40.195  51.028 -54.388  1.00  0.00     0.041 A 
HETATM   14  C   UNL     1     -39.438  50.021 -52.551  1.00  0.00     0.142 A 
HETATM   15  C   UNL     1     -39.674  49.810 -53.887  1.00  0.00     0.027 A 
ENDBRANCH   1   5
BRANCH   2  16
HETATM   16  C   UNL     1     -44.075  57.135 -55.591  1.00  0.00     0.102 A 
HETATM   17  C   UNL     1     -43.824  57.253 -57.079  1.00  0.00     0.218 A 
HETATM   18  O   UNL     1     -42.927  56.589 -57.598  1.00  0.00    -0.284 OA
HETATM   19  C   UNL     1     -44.695  58.191 -57.865  1.00  0.00     0.078 A 
HETATM   20 BR   UNL     1     -44.430  58.376 -59.696  1.00  0.00    -0.045 Br
HETATM   21  C   UNL     1     -45.640  58.862 -57.188  1.00  0.00     0.111 A 
HETATM   22  N   UNL     1     -45.839  58.729 -55.840  1.00  0.00    -0.372 N 
HETATM   23  C   UNL     1     -45.067  57.884 -55.084  1.00  0.00     0.121 A 
HETATM   24  H   UNL     1     -46.571  59.268 -55.384  1.00  0.00     0.164 HD
ENDBRANCH   2  16
TORSDOF 2
ENDMDL
MODEL 5
REMARK VINA RESULT:      -7.0      2.064      2.352
REMARK  2 active torsions:
REMARK  status: ('A' for Active; 'I' for Inactive)
REMARK    1  A    between atoms: C_9  and  C_10 
REMARK       I    between atoms: C_10  and  N_11 
REMARK    2  A    between atoms: N_11  and  C_12 
ROOT
HETATM    1  C   UNL     1     -41.747  56.361 -51.550  1.00  0.00     0.276 C 
HETATM    2  N   UNL     1     -43.038  56.394 -52.034  1.00  0.00    -0.317 N 
HETATM    3  O   UNL     1     -41.128  57.319 -51.100  1.00  0.00    -0.266 OA
HETATM    4  H   UNL     1     -43.397  55.494 -52.363  1.00  0.00     0.169 HD
ENDROOT
BRANCH   1   5
HETATM    5  C   UNL     1     -41.154  55.016 -51.623  1.00  0.00     0.147 A 
HETATM    6  N   UNL     1     -40.531  54.451 -50.567  1.00  0.00    -0.169 NA
HETATM    7  N   UNL     1     -40.147  53.244 -51.027  1.00  0.00    -0.275 N 
HETATM    8  C   UNL     1     -40.488  53.012 -52.329  1.00  0.00     0.086 A 
HETATM    9  H   UNL     1     -39.650  52.615 -50.404  1.00  0.00     0.189 HD
HETATM   10  C   UNL     1     -40.171  51.793 -52.992  1.00  0.00     0.103 A 
HETATM   11  C   UNL     1     -41.143  54.146 -52.747  1.00  0.00     0.073 A 
HETATM   12  O   UNL     1     -39.526  50.762 -52.357  1.00  0.00    -0.320 OA
HETATM   13  C   UNL     1     -40.423  51.417 -54.300  1.00  0.00     0.041 A 
HETATM   14  C   UNL     1     -39.377  49.754 -53.251  1.00  0.00     0.142 A 
HETATM   15  C   UNL     1     -39.912  50.106 -54.465  1.00  0.00     0.027 A 
ENDBRANCH   1   5
BRANCH   2  16
HETATM   16  C   UNL     1     -43.897  57.462 -52.138  1.00  0.00     0.102 A 
HETATM   17  C   UNL     1     -43.990  58.120 -53.499  1.00  0.00     0.218 A 
HETATM   18  O   UNL     1     -43.315  57.684 -54.431  1.00  0.00    -0.284 OA
HETATM   19  C   UNL     1     -44.917  59.293 -53.649  1.00  0.00     0.078 A 
HETATM   20 BR   UNL     1     -45.070  60.140 -55.296  1.00  0.00    -0.045 Br
HETATM   21  C   UNL     1     -45.600  59.677 -52.559  1.00  0.00     0.111 A 
HETATM   22  N   UNL     1     -45.492  59.056 -51.343  1.00  0.00    -0.372 N 
HETATM   23  C   UNL     1     -44.658  57.982 -51.162  1.00  0.00     0.121 A 
HETATM   24  H   UNL     1     -46.035  59.397 -50.554  1.00  0.00     0.164 HD
ENDBRANCH   2  16
TORSDOF 2
ENDMDL
MODEL 6
REMARK VINA RESULT:      -6.9      5.569      6.257
REMARK  2 active torsions:
REMARK  status: ('A' for Active; 'I' for Inactive)
REMARK    1  A    between atoms: C_9  and  C_10 
REMARK       I    between atoms: C_10  and  N_11 
REMARK    2  A    between atoms: N_11  and  C_12 
ROOT
HETATM    1  C   UNL     1     -43.018  56.169 -55.785  1.00  0.00     0.276 C 
HETATM    2  N   UNL     1     -42.571  56.046 -57.083  1.00  0.00    -0.317 N 
HETATM    3  O   UNL     1     -43.942  56.885 -55.412  1.00  0.00    -0.266 OA
HETATM    4  H   UNL     1     -41.792  55.395 -57.210  1.00  0.00     0.169 HD
ENDROOT
BRANCH   1   5
HETATM    5  C   UNL     1     -42.256  55.330 -54.846  1.00  0.00     0.147 A 
HETATM    6  N   UNL     1     -41.881  55.778 -53.629  1.00  0.00    -0.169 NA
HETATM    7  N   UNL     1     -41.230  54.731 -53.086  1.00  0.00    -0.275 N 
HETATM    8  C   UNL     1     -41.164  53.636 -53.900  1.00  0.00     0.086 A 
HETATM    9  H   UNL     1     -40.846  54.822 -52.151  1.00  0.00     0.189 HD
HETATM   10  C   UNL     1     -40.519  52.431 -53.501  1.00  0.00     0.103 A 
HETATM   11  C   UNL     1     -41.821  53.993 -55.054  1.00  0.00     0.073 A 
HETATM   12  O   UNL     1     -39.945  52.285 -52.264  1.00  0.00    -0.320 OA
HETATM   13  C   UNL     1     -40.348  51.255 -54.210  1.00  0.00     0.041 A 
HETATM   14  C   UNL     1     -39.424  51.035 -52.196  1.00  0.00     0.142 A 
HETATM   15  C   UNL     1     -39.644  50.358 -53.370  1.00  0.00     0.027 A 
ENDBRANCH   1   5
BRANCH   2  16
HETATM   16  C   UNL     1     -43.022  56.677 -58.219  1.00  0.00     0.102 A 
HETATM   17  C   UNL     1     -42.491  58.072 -58.468  1.00  0.00     0.218 A 
HETATM   18  O   UNL     1     -41.698  58.573 -57.671  1.00  0.00    -0.284 OA
HETATM   19  C   UNL     1     -42.966  58.794 -59.698  1.00  0.00     0.078 A 
HETATM   20 BR   UNL     1     -42.348  60.510 -60.054  1.00  0.00    -0.045 Br
HETATM   21  C   UNL     1     -43.832  58.145 -60.492  1.00  0.00     0.111 A 
HETATM   22  N   UNL     1     -44.290  56.881 -60.235  1.00  0.00    -0.372 N 
HETATM   23  C   UNL     1     -43.883  56.186 -59.124  1.00  0.00     0.121 A 
HETATM   24  H   UNL     1     -44.949  56.444 -60.875  1.00  0.00     0.164 HD
ENDBRANCH   2  16
TORSDOF 2
ENDMDL
MODEL 7
REMARK VINA RESULT:      -6.8      5.659      7.403
REMARK  2 active torsions:
REMARK  status: ('A' for Active; 'I' for Inactive)
REMARK    1  A    between atoms: C_9  and  C_10 
REMARK       I    between atoms: C_10  and  N_11 
REMARK    2  A    between atoms: N_11  and  C_12 
ROOT
HETATM    1  C   UNL     1     -41.411  56.221 -54.338  1.00  0.00     0.276 C 
HETATM    2  N   UNL     1     -41.678  54.966 -53.834  1.00  0.00    -0.317 N 
HETATM    3  O   UNL     1     -40.705  57.070 -53.804  1.00  0.00    -0.266 OA
HETATM    4  H   UNL     1     -42.283  54.386 -54.421  1.00  0.00     0.169 HD
ENDROOT
BRANCH   1   5
HETATM    5  C   UNL     1     -42.077  56.462 -55.628  1.00  0.00     0.147 A 
HETATM    6  N   UNL     1     -42.225  57.704 -56.135  1.00  0.00    -0.169 NA
HETATM    7  N   UNL     1     -42.858  57.502 -57.307  1.00  0.00    -0.275 N 
HETATM    8  C   UNL     1     -43.128  56.190 -57.572  1.00  0.00     0.086 A 
HETATM    9  H   UNL     1     -43.084  58.302 -57.889  1.00  0.00     0.189 HD
HETATM   10  C   UNL     1     -43.789  55.776 -58.763  1.00  0.00     0.103 A 
HETATM   11  C   UNL     1     -42.634  55.487 -56.498  1.00  0.00     0.073 A 
HETATM   12  O   UNL     1     -44.173  56.666 -59.732  1.00  0.00    -0.320 OA
HETATM   13  C   UNL     1     -44.153  54.501 -59.164  1.00  0.00     0.041 A 
HETATM   14  C   UNL     1     -44.766  55.963 -60.728  1.00  0.00     0.142 A 
HETATM   15  C   UNL     1     -44.781  54.623 -60.427  1.00  0.00     0.027 A 
ENDBRANCH   1   5
BRANCH   2  16
HETATM   16  C   UNL     1     -41.249  54.394 -52.660  1.00  0.00     0.102 A 
HETATM   17  C   UNL     1     -40.651  53.007 -52.767  1.00  0.00     0.218 A 
HETATM   18  O   UNL     1     -40.571  52.463 -53.868  1.00  0.00    -0.284 OA
HETATM   19  C   UNL     1     -40.175  52.349 -51.503  1.00  0.00     0.078 A 
HETATM   20 BR   UNL     1     -39.432  50.647 -51.575  1.00  0.00    -0.045 Br
HETATM   21  C   UNL     1     -40.315  53.042 -50.362  1.00  0.00     0.111 A 
HETATM   22  N   UNL     1     -40.861  54.296 -50.303  1.00  0.00    -0.372 N 
HETATM   23  C   UNL     1     -41.308  54.933 -51.432  1.00  0.00     0.121 A 
HETATM   24  H   UNL     1     -40.943  54.767 -49.406  1.00  0.00     0.164 HD
ENDBRANCH   2  16
TORSDOF 2
ENDMDL
MODEL 8
REMARK VINA RESULT:      -6.8      2.158      2.740
REMARK  2 active torsions:
REMARK  status: ('A' for Active; 'I' for Inactive)
REMARK    1  A    between atoms: C_9  and  C_10 
REMARK       I    between atoms: C_10  and  N_11 
REMARK    2  A    between atoms: N_11  and  C_12 
ROOT
HETATM    1  C   UNL     1     -41.963  56.511 -53.193  1.00  0.00     0.276 C 
HETATM    2  N   UNL     1     -42.826  56.999 -52.235  1.00  0.00    -0.317 N 
HETATM    3  O   UNL     1     -41.673  57.072 -54.246  1.00  0.00    -0.266 OA
HETATM    4  H   UNL     1     -42.943  56.398 -51.416  1.00  0.00     0.169 HD
ENDROOT
BRANCH   1   5
HETATM    5  C   UNL     1     -41.397  55.203 -52.827  1.00  0.00     0.147 A 
HETATM    6  N   UNL     1     -41.036  54.911 -51.559  1.00  0.00    -0.169 NA
HETATM    7  N   UNL     1     -40.585  53.644 -51.636  1.00  0.00    -0.275 N 
HETATM    8  C   UNL     1     -40.634  53.113 -52.894  1.00  0.00     0.086 A 
HETATM    9  H   UNL     1     -40.252  53.187 -50.793  1.00  0.00     0.189 HD
HETATM   10  C   UNL     1     -40.203  51.785 -53.175  1.00  0.00     0.103 A 
HETATM   11  C   UNL     1     -41.155  54.103 -53.693  1.00  0.00     0.073 A 
HETATM   12  O   UNL     1     -39.737  50.946 -52.196  1.00  0.00    -0.320 OA
HETATM   13  C   UNL     1     -40.166  51.116 -54.386  1.00  0.00     0.041 A 
HETATM   14  C   UNL     1     -39.415  49.767 -52.782  1.00  0.00     0.142 A 
HETATM   15  C   UNL     1     -39.659  49.818 -54.132  1.00  0.00     0.027 A 
ENDBRANCH   1   5
BRANCH   2  16
HETATM   16  C   UNL     1     -43.548  58.169 -52.233  1.00  0.00     0.102 A 
HETATM   17  C   UNL     1     -42.963  59.318 -51.439  1.00  0.00     0.218 A 
HETATM   18  O   UNL     1     -41.895  59.165 -50.846  1.00  0.00    -0.284 OA
HETATM   19  C   UNL     1     -43.726  60.611 -51.411  1.00  0.00     0.078 A 
HETATM   20 BR   UNL     1     -43.055  62.055 -50.451  1.00  0.00    -0.045 Br
HETATM   21  C   UNL     1     -44.879  60.657 -52.095  1.00  0.00     0.111 A 
HETATM   22  N   UNL     1     -45.378  59.597 -52.804  1.00  0.00    -0.372 N 
HETATM   23  C   UNL     1     -44.714  58.398 -52.857  1.00  0.00     0.121 A 
HETATM   24  H   UNL     1     -46.260  59.694 -53.300  1.00  0.00     0.164 HD
ENDBRANCH   2  16
TORSDOF 2
ENDMDL
MODEL 9
REMARK VINA RESULT:      -6.6      3.699      4.174
REMARK  2 active torsions:
REMARK  status: ('A' for Active; 'I' for Inactive)
REMARK    1  A    between atoms: C_9  and  C_10 
REMARK       I    between atoms: C_10  and  N_11 
REMARK    2  A    between atoms: N_11  and  C_12 
ROOT
HETATM    1  C   UNL     1     -42.580  56.967 -53.702  1.00  0.00     0.276 C 
HETATM    2  N   UNL     1     -41.779  57.751 -54.505  1.00  0.00    -0.317 N 
HETATM    3  O   UNL     1     -43.745  57.206 -53.403  1.00  0.00    -0.266 OA
HETATM    4  H   UNL     1     -40.833  57.391 -54.652  1.00  0.00     0.169 HD
ENDROOT
BRANCH   1   5
HETATM    5  C   UNL     1     -41.881  55.767 -53.213  1.00  0.00     0.147 A 
HETATM    6  N   UNL     1     -41.417  55.675 -51.949  1.00  0.00    -0.169 NA
HETATM    7  N   UNL     1     -40.865  54.447 -51.896  1.00  0.00    -0.275 N 
HETATM    8  C   UNL     1     -40.949  53.751 -53.067  1.00  0.00     0.086 A 
HETATM    9  H   UNL     1     -40.441  54.135 -51.028  1.00  0.00     0.189 HD
HETATM   10  C   UNL     1     -40.426  52.434 -53.207  1.00  0.00     0.103 A 
HETATM   11  C   UNL     1     -41.603  54.582 -53.946  1.00  0.00     0.073 A 
HETATM   12  O   UNL     1     -39.828  51.771 -52.166  1.00  0.00    -0.320 OA
HETATM   13  C   UNL     1     -40.410  51.612 -54.321  1.00  0.00     0.041 A 
HETATM   14  C   UNL     1     -39.445  50.552 -52.618  1.00  0.00     0.142 A 
HETATM   15  C   UNL     1     -39.779  50.403 -53.941  1.00  0.00     0.027 A 
ENDBRANCH   1   5
BRANCH   2  16
HETATM   16  C   UNL     1     -42.076  58.941 -55.126  1.00  0.00     0.102 A 
HETATM   17  C   UNL     1     -42.336  58.876 -56.616  1.00  0.00     0.218 A 
HETATM   18  O   UNL     1     -42.277  57.792 -57.196  1.00  0.00    -0.284 OA
HETATM   19  C   UNL     1     -42.659  60.159 -57.328  1.00  0.00     0.078 A 
HETATM   20 BR   UNL     1     -42.987  60.138 -59.158  1.00  0.00    -0.045 Br
HETATM   21  C   UNL     1     -42.694  61.278 -56.589  1.00  0.00     0.111 A 
HETATM   22  N   UNL     1     -42.454  61.299 -55.241  1.00  0.00    -0.372 N 
HETATM   23  C   UNL     1     -42.155  60.152 -54.551  1.00  0.00     0.121 A 
HETATM   24  H   UNL     1     -42.492  62.181 -54.737  1.00  0.00     0.164 HD
ENDBRANCH   2  16
TORSDOF 2
ENDMDL
MODEL 10
REMARK VINA RESULT:      -6.6      5.557      8.329
REMARK  2 active torsions:
REMARK  status: ('A' for Active; 'I' for Inactive)
REMARK    1  A    between atoms: C_9  and  C_10 
REMARK       I    between atoms: C_10  and  N_11 
REMARK    2  A    between atoms: N_11  and  C_12 
ROOT
HETATM    1  C   UNL     1     -42.531  54.633 -55.568  1.00  0.00     0.276 C 
HETATM    2  N   UNL     1     -41.245  54.507 -55.088  1.00  0.00    -0.317 N 
HETATM    3  O   UNL     1     -43.501  53.982 -55.193  1.00  0.00    -0.266 OA
HETATM    4  H   UNL     1     -40.563  55.140 -55.513  1.00  0.00     0.169 HD
ENDROOT
BRANCH   1   5
HETATM    5  C   UNL     1     -42.643  55.663 -56.614  1.00  0.00     0.147 A 
HETATM    6  N   UNL     1     -43.217  55.409 -57.809  1.00  0.00    -0.169 NA
HETATM    7  N   UNL     1     -43.134  56.583 -58.464  1.00  0.00    -0.275 N 
HETATM    8  C   UNL     1     -42.528  57.576 -57.747  1.00  0.00     0.086 A 
HETATM    9  H   UNL     1     -43.508  56.650 -59.405  1.00  0.00     0.189 HD
HETATM   10  C   UNL     1     -42.349  58.888 -58.269  1.00  0.00     0.103 A 
HETATM   11  C   UNL     1     -42.194  57.009 -56.540  1.00  0.00     0.073 A 
HETATM   12  O   UNL     1     -42.798  59.247 -59.514  1.00  0.00    -0.320 OA
HETATM   13  C   UNL     1     -41.740  59.986 -57.685  1.00  0.00     0.041 A 
HETATM   14  C   UNL     1     -42.479  60.550 -59.709  1.00  0.00     0.142 A 
HETATM   15  C   UNL     1     -41.825  61.053 -58.612  1.00  0.00     0.027 A 
ENDBRANCH   1   5
BRANCH   2  16
HETATM   16  C   UNL     1     -40.758  53.651 -54.129  1.00  0.00     0.102 A 
HETATM   17  C   UNL     1     -40.701  54.189 -52.715  1.00  0.00     0.218 A 
HETATM   18  O   UNL     1     -41.084  55.336 -52.485  1.00  0.00    -0.284 OA
HETATM   19  C   UNL     1     -40.169  53.283 -51.641  1.00  0.00     0.078 A 
HETATM   20 BR   UNL     1     -40.076  53.891 -49.887  1.00  0.00    -0.045 Br
HETATM   21  C   UNL     1     -39.782  52.053 -52.014  1.00  0.00     0.111 A 
HETATM   22  N   UNL     1     -39.849  51.600 -53.304  1.00  0.00    -0.372 N 
HETATM   23  C   UNL     1     -40.327  52.394 -54.315  1.00  0.00     0.121 A 
HETATM   24  H   UNL     1     -39.536  50.657 -53.523  1.00  0.00     0.164 HD
ENDBRANCH   2  16
TORSDOF 2
ENDMDL
