MODEL 1
REMARK VINA RESULT:      -8.2      0.000      0.000
REMARK  5 active torsions:
REMARK  status: ('A' for Active; 'I' for Inactive)
REMARK    1  A    between atoms: C_2  and  C_3 
REMARK    2  A    between atoms: N_4  and  C_6 
REMARK    3  A    between atoms: C_6  and  C_7 
REMARK    4  A    between atoms: N_14  and  C_16 
REMARK    5  A    between atoms: C_16  and  C_17 
ROOT
HETATM    1  C   UNL     1     -43.506  58.649 -55.799  1.00  0.00    -0.032 A 
HETATM    2  C   UNL     1     -42.381  58.068 -55.173  1.00  0.00     0.020 A 
HETATM    3  C   UNL     1     -42.266  58.013 -53.767  1.00  0.00     0.002 A 
HETATM    4  C   UNL     1     -43.294  58.563 -52.998  1.00  0.00     0.076 A 
HETATM    5  O   UNL     1     -43.217  58.593 -51.635  1.00  0.00    -0.349 OA
HETATM    6  C   UNL     1     -43.392  57.291 -51.062  1.00  0.00     0.203 C 
HETATM    7  C   UNL     1     -42.047  56.586 -50.892  1.00  0.00     0.262 C 
HETATM    8  N   UNL     1     -41.404  56.185 -52.217  1.00  0.00    -0.061 N 
HETATM    9  H   UNL     1     -40.493  55.793 -51.944  1.00  0.00     0.280 HD
HETATM   10  C   UNL     1     -41.076  57.381 -53.091  1.00  0.00     0.276 C 
HETATM   11  C   UNL     1     -44.407  59.146 -53.594  1.00  0.00     0.038 A 
HETATM   12  C   UNL     1     -44.525  59.164 -54.984  1.00  0.00     0.011 A 
ENDROOT
BRANCH   1  13
HETATM   13  C   UNL     1     -43.639  58.670 -57.309  1.00  0.00     0.274 C 
BRANCH  13  14
HETATM   14  N   UNL     1     -44.561  57.655 -57.950  1.00  0.00    -0.053 N 
HETATM   15  C   UNL     1     -43.907  56.684 -58.962  1.00  0.00     0.279 C 
HETATM   16  C   UNL     1     -44.915  55.750 -59.685  1.00  0.00     0.248 C 
HETATM   17  N   UNL     1     -46.228  56.137 -59.729  1.00  0.00    -0.358 N 
HETATM   18  O   UNL     1     -44.564  54.732 -60.272  1.00  0.00    -0.271 OA
HETATM   19  C   UNL     1     -46.812  57.151 -58.879  1.00  0.00     0.150 C 
HETATM   20  H   UNL     1     -46.841  55.467 -60.195  1.00  0.00     0.162 HD
HETATM   21  C   UNL     1     -45.823  58.270 -58.547  1.00  0.00     0.256 C 
HETATM   22  H   UNL     1     -44.900  57.060 -57.183  1.00  0.00     0.281 HD
BRANCH  15  23
HETATM   23  C   UNL     1     -42.799  55.846 -58.296  1.00  0.00     0.038 C 
HETATM   24  C   UNL     1     -43.231  55.099 -57.039  1.00  0.00     0.007 C 
ENDBRANCH  15  23
ENDBRANCH  13  14
ENDBRANCH   1  13
BRANCH   8  25
HETATM   25  C   UNL     1     -42.104  55.081 -52.977  1.00  0.00     0.274 C 
BRANCH  25  26
HETATM   26  C   UNL     1     -41.298  53.823 -53.145  1.00  0.00    -0.029 A 
HETATM   27  C   UNL     1     -40.667  53.221 -52.045  1.00  0.00     0.054 A 
HETATM   28  C   UNL     1     -39.913  52.060 -52.219  1.00  0.00     0.155 A 
HETATM   29  F   UNL     1     -39.322  51.507 -51.154  1.00  0.00    -0.203 F 
HETATM   30  C   UNL     1     -39.777  51.488 -53.477  1.00  0.00     0.154 A 
HETATM   31  F   UNL     1     -39.052  50.376 -53.641  1.00  0.00    -0.203 F 
HETATM   32  C   UNL     1     -40.393  52.071 -54.578  1.00  0.00     0.046 A 
HETATM   33  C   UNL     1     -41.151  53.234 -54.416  1.00  0.00     0.012 A 
ENDBRANCH  25  26
ENDBRANCH   8  25
TORSDOF 5
ENDMDL
MODEL 2
REMARK VINA RESULT:      -8.2      0.940      1.433
REMARK  5 active torsions:
REMARK  status: ('A' for Active; 'I' for Inactive)
REMARK    1  A    between atoms: C_2  and  C_3 
REMARK    2  A    between atoms: N_4  and  C_6 
REMARK    3  A    between atoms: C_6  and  C_7 
REMARK    4  A    between atoms: N_14  and  C_16 
REMARK    5  A    between atoms: C_16  and  C_17 
ROOT
HETATM    1  C   UNL     1     -43.790  58.232 -56.380  1.00  0.00    -0.032 A 
HETATM    2  C   UNL     1     -42.560  57.968 -55.739  1.00  0.00     0.020 A 
HETATM    3  C   UNL     1     -42.482  57.777 -54.343  1.00  0.00     0.002 A 
HETATM    4  C   UNL     1     -43.660  57.868 -53.597  1.00  0.00     0.076 A 
HETATM    5  O   UNL     1     -43.644  57.750 -52.237  1.00  0.00    -0.349 OA
HETATM    6  C   UNL     1     -43.404  56.399 -51.822  1.00  0.00     0.203 C 
HETATM    7  C   UNL     1     -41.909  56.146 -51.629  1.00  0.00     0.262 C 
HETATM    8  N   UNL     1     -41.125  56.141 -52.938  1.00  0.00    -0.061 N 
HETATM    9  H   UNL     1     -40.146  56.031 -52.643  1.00  0.00     0.280 HD
HETATM   10  C   UNL     1     -41.175  57.480 -53.652  1.00  0.00     0.276 C 
HETATM   11  C   UNL     1     -44.880  58.134 -54.207  1.00  0.00     0.038 A 
HETATM   12  C   UNL     1     -44.949  58.287 -55.592  1.00  0.00     0.011 A 
ENDROOT
BRANCH   1  13
HETATM   13  C   UNL     1     -43.870  58.399 -57.885  1.00  0.00     0.274 C 
BRANCH  13  14
HETATM   14  N   UNL     1     -44.750  57.437 -58.655  1.00  0.00    -0.053 N 
HETATM   15  C   UNL     1     -44.087  56.723 -59.857  1.00  0.00     0.279 C 
HETATM   16  C   UNL     1     -45.064  55.847 -60.689  1.00  0.00     0.248 C 
HETATM   17  N   UNL     1     -46.403  56.119 -60.599  1.00  0.00    -0.358 N 
HETATM   18  O   UNL     1     -44.672  54.985 -61.468  1.00  0.00    -0.271 OA
HETATM   19  C   UNL     1     -47.009  56.911 -59.552  1.00  0.00     0.150 C 
HETATM   20  H   UNL     1     -46.990  55.492 -61.150  1.00  0.00     0.162 HD
HETATM   21  C   UNL     1     -46.090  58.036 -59.069  1.00  0.00     0.256 C 
HETATM   22  H   UNL     1     -44.992  56.689 -57.994  1.00  0.00     0.281 HD
BRANCH  15  23
HETATM   23  C   UNL     1     -42.878  55.880 -59.410  1.00  0.00     0.038 C 
HETATM   24  C   UNL     1     -43.095  55.081 -58.128  1.00  0.00     0.007 C 
ENDBRANCH  15  23
ENDBRANCH  13  14
ENDBRANCH   1  13
BRANCH   8  25
HETATM   25  C   UNL     1     -41.399  54.977 -53.863  1.00  0.00     0.274 C 
BRANCH  25  26
HETATM   26  C   UNL     1     -40.787  53.672 -53.431  1.00  0.00    -0.029 A 
HETATM   27  C   UNL     1     -40.622  52.619 -54.344  1.00  0.00     0.054 A 
HETATM   28  C   UNL     1     -40.063  51.411 -53.924  1.00  0.00     0.155 A 
HETATM   29  F   UNL     1     -39.916  50.423 -54.815  1.00  0.00    -0.203 F 
HETATM   30  C   UNL     1     -39.666  51.236 -52.606  1.00  0.00     0.154 A 
HETATM   31  F   UNL     1     -39.133  50.075 -52.206  1.00  0.00    -0.203 F 
HETATM   32  C   UNL     1     -39.825  52.267 -51.687  1.00  0.00     0.046 A 
HETATM   33  C   UNL     1     -40.383  53.482 -52.096  1.00  0.00     0.012 A 
ENDBRANCH  25  26
ENDBRANCH   8  25
TORSDOF 5
ENDMDL
MODEL 3
REMARK VINA RESULT:      -8.0      3.560      6.970
REMARK  5 active torsions:
REMARK  status: ('A' for Active; 'I' for Inactive)
REMARK    1  A    between atoms: C_2  and  C_3 
REMARK    2  A    between atoms: N_4  and  C_6 
REMARK    3  A    between atoms: C_6  and  C_7 
REMARK    4  A    between atoms: N_14  and  C_16 
REMARK    5  A    between atoms: C_16  and  C_17 
ROOT
HETATM    1  C   UNL     1     -43.147  56.029 -52.510  1.00  0.00    -0.032 A 
HETATM    2  C   UNL     1     -43.800  56.668 -53.587  1.00  0.00     0.020 A 
HETATM    3  C   UNL     1     -43.849  58.075 -53.689  1.00  0.00     0.002 A 
HETATM    4  C   UNL     1     -43.242  58.831 -52.684  1.00  0.00     0.076 A 
HETATM    5  O   UNL     1     -43.304  60.195 -52.694  1.00  0.00    -0.349 OA
HETATM    6  C   UNL     1     -42.472  60.760 -53.715  1.00  0.00     0.203 C 
HETATM    7  C   UNL     1     -43.256  60.946 -55.015  1.00  0.00     0.262 C 
HETATM    8  N   UNL     1     -43.618  59.629 -55.695  1.00  0.00    -0.061 N 
HETATM    9  H   UNL     1     -44.191  59.913 -56.500  1.00  0.00     0.280 HD
HETATM   10  C   UNL     1     -44.531  58.765 -54.843  1.00  0.00     0.276 C 
HETATM   11  C   UNL     1     -42.600  58.222 -51.612  1.00  0.00     0.038 A 
HETATM   12  C   UNL     1     -42.529  56.831 -51.540  1.00  0.00     0.011 A 
ENDROOT
BRANCH   1  13
HETATM   13  C   UNL     1     -43.066  54.517 -52.429  1.00  0.00     0.274 C 
BRANCH  13  14
HETATM   14  N   UNL     1     -41.699  53.893 -52.247  1.00  0.00    -0.053 N 
HETATM   15  C   UNL     1     -41.267  52.874 -53.329  1.00  0.00     0.279 C 
HETATM   16  C   UNL     1     -39.916  52.168 -53.029  1.00  0.00     0.248 C 
HETATM   17  N   UNL     1     -39.481  52.142 -51.731  1.00  0.00    -0.358 N 
HETATM   18  O   UNL     1     -39.277  51.579 -53.894  1.00  0.00    -0.271 OA
HETATM   19  C   UNL     1     -39.988  52.997 -50.680  1.00  0.00     0.150 C 
HETATM   20  H   UNL     1     -38.577  51.687 -51.607  1.00  0.00     0.162 HD
HETATM   21  C   UNL     1     -41.475  53.312 -50.855  1.00  0.00     0.256 C 
HETATM   22  H   UNL     1     -41.026  54.666 -52.318  1.00  0.00     0.281 HD
BRANCH  15  23
HETATM   23  C   UNL     1     -41.221  53.525 -54.724  1.00  0.00     0.038 C 
HETATM   24  C   UNL     1     -40.287  54.726 -54.838  1.00  0.00     0.007 C 
ENDBRANCH  15  23
ENDBRANCH  13  14
ENDBRANCH   1  13
BRANCH   8  25
HETATM   25  C   UNL     1     -42.460  58.853 -56.279  1.00  0.00     0.274 C 
BRANCH  25  26
HETATM   26  C   UNL     1     -42.844  57.838 -57.321  1.00  0.00    -0.029 A 
HETATM   27  C   UNL     1     -43.333  58.243 -58.573  1.00  0.00     0.054 A 
HETATM   28  C   UNL     1     -43.695  57.289 -59.524  1.00  0.00     0.155 A 
HETATM   29  F   UNL     1     -44.159  57.702 -60.710  1.00  0.00    -0.203 F 
HETATM   30  C   UNL     1     -43.579  55.934 -59.247  1.00  0.00     0.154 A 
HETATM   31  F   UNL     1     -43.930  55.022 -60.160  1.00  0.00    -0.203 F 
HETATM   32  C   UNL     1     -43.099  55.515 -58.011  1.00  0.00     0.046 A 
HETATM   33  C   UNL     1     -42.732  56.461 -57.050  1.00  0.00     0.012 A 
ENDBRANCH  25  26
ENDBRANCH   8  25
TORSDOF 5
ENDMDL
MODEL 4
REMARK VINA RESULT:      -7.9      1.693      2.407
REMARK  5 active torsions:
REMARK  status: ('A' for Active; 'I' for Inactive)
REMARK    1  A    between atoms: C_2  and  C_3 
REMARK    2  A    between atoms: N_4  and  C_6 
REMARK    3  A    between atoms: C_6  and  C_7 
REMARK    4  A    between atoms: N_14  and  C_16 
REMARK    5  A    between atoms: C_16  and  C_17 
ROOT
HETATM    1  C   UNL     1     -44.055  57.935 -55.809  1.00  0.00    -0.032 A 
HETATM    2  C   UNL     1     -42.835  57.436 -55.301  1.00  0.00     0.020 A 
HETATM    3  C   UNL     1     -42.484  57.594 -53.943  1.00  0.00     0.002 A 
HETATM    4  C   UNL     1     -43.371  58.273 -53.105  1.00  0.00     0.076 A 
HETATM    5  O   UNL     1     -43.064  58.509 -51.796  1.00  0.00    -0.349 OA
HETATM    6  C   UNL     1     -43.129  57.313 -51.009  1.00  0.00     0.203 C 
HETATM    7  C   UNL     1     -41.769  56.617 -50.962  1.00  0.00     0.262 C 
HETATM    8  N   UNL     1     -41.356  56.008 -52.298  1.00  0.00    -0.061 N 
HETATM    9  H   UNL     1     -40.409  55.646 -52.126  1.00  0.00     0.280 HD
HETATM   10  C   UNL     1     -41.191  57.051 -53.388  1.00  0.00     0.276 C 
HETATM   11  C   UNL     1     -44.574  58.778 -53.587  1.00  0.00     0.038 A 
HETATM   12  C   UNL     1     -44.926  58.585 -54.923  1.00  0.00     0.011 A 
ENDROOT
BRANCH   1  13
HETATM   13  C   UNL     1     -44.442  57.728 -57.260  1.00  0.00     0.274 C 
BRANCH  13  14
HETATM   14  N   UNL     1     -43.339  57.763 -58.297  1.00  0.00    -0.053 N 
HETATM   15  C   UNL     1     -43.262  59.041 -59.166  1.00  0.00     0.279 C 
HETATM   16  C   UNL     1     -42.198  58.974 -60.296  1.00  0.00     0.248 C 
HETATM   17  N   UNL     1     -41.778  57.738 -60.708  1.00  0.00    -0.358 N 
HETATM   18  O   UNL     1     -41.787  59.976 -60.871  1.00  0.00    -0.271 OA
HETATM   19  C   UNL     1     -41.977  56.515 -59.962  1.00  0.00     0.150 C 
HETATM   20  H   UNL     1     -41.061  57.765 -61.433  1.00  0.00     0.162 HD
HETATM   21  C   UNL     1     -43.292  56.520 -59.179  1.00  0.00     0.256 C 
HETATM   22  H   UNL     1     -42.457  57.740 -57.768  1.00  0.00     0.281 HD
BRANCH  15  23
HETATM   23  C   UNL     1     -43.030  60.293 -58.300  1.00  0.00     0.038 C 
HETATM   24  C   UNL     1     -41.736  60.281 -57.492  1.00  0.00     0.007 C 
ENDBRANCH  15  23
ENDBRANCH  13  14
ENDBRANCH   1  13
BRANCH   8  25
HETATM   25  C   UNL     1     -42.166  54.814 -52.752  1.00  0.00     0.274 C 
BRANCH  25  26
HETATM   26  C   UNL     1     -41.358  53.579 -53.041  1.00  0.00    -0.029 A 
HETATM   27  C   UNL     1     -40.608  52.958 -52.030  1.00  0.00     0.054 A 
HETATM   28  C   UNL     1     -39.855  51.819 -52.318  1.00  0.00     0.155 A 
HETATM   29  F   UNL     1     -39.149  51.246 -51.336  1.00  0.00    -0.203 F 
HETATM   30  C   UNL     1     -39.836  51.288 -53.600  1.00  0.00     0.154 A 
HETATM   31  F   UNL     1     -39.111  50.198 -53.873  1.00  0.00    -0.203 F 
HETATM   32  C   UNL     1     -40.571  51.892 -54.614  1.00  0.00     0.046 A 
HETATM   33  C   UNL     1     -41.330  53.033 -54.339  1.00  0.00     0.012 A 
ENDBRANCH  25  26
ENDBRANCH   8  25
TORSDOF 5
ENDMDL
MODEL 5
REMARK VINA RESULT:      -7.7      2.168      2.743
REMARK  5 active torsions:
REMARK  status: ('A' for Active; 'I' for Inactive)
REMARK    1  A    between atoms: C_2  and  C_3 
REMARK    2  A    between atoms: N_4  and  C_6 
REMARK    3  A    between atoms: C_6  and  C_7 
REMARK    4  A    between atoms: N_14  and  C_16 
REMARK    5  A    between atoms: C_16  and  C_17 
ROOT
HETATM    1  C   UNL     1     -42.980  58.922 -53.224  1.00  0.00    -0.032 A 
HETATM    2  C   UNL     1     -41.971  58.218 -52.530  1.00  0.00     0.020 A 
HETATM    3  C   UNL     1     -42.288  57.217 -51.586  1.00  0.00     0.002 A 
HETATM    4  C   UNL     1     -43.635  56.944 -51.339  1.00  0.00     0.076 A 
HETATM    5  O   UNL     1     -44.007  56.029 -50.397  1.00  0.00    -0.349 OA
HETATM    6  C   UNL     1     -43.742  54.687 -50.822  1.00  0.00     0.203 C 
HETATM    7  C   UNL     1     -42.352  54.237 -50.374  1.00  0.00     0.262 C 
HETATM    8  N   UNL     1     -41.221  54.953 -51.107  1.00  0.00    -0.061 N 
HETATM    9  H   UNL     1     -40.367  54.601 -50.655  1.00  0.00     0.280 HD
HETATM   10  C   UNL     1     -41.217  56.450 -50.852  1.00  0.00     0.276 C 
HETATM   11  C   UNL     1     -44.643  57.631 -52.006  1.00  0.00     0.038 A 
HETATM   12  C   UNL     1     -44.318  58.593 -52.962  1.00  0.00     0.011 A 
ENDROOT
BRANCH   1  13
HETATM   13  C   UNL     1     -42.631  59.968 -54.264  1.00  0.00     0.274 C 
BRANCH  13  14
HETATM   14  N   UNL     1     -43.413  59.962 -55.561  1.00  0.00    -0.053 N 
HETATM   15  C   UNL     1     -42.711  59.306 -56.774  1.00  0.00     0.279 C 
HETATM   16  C   UNL     1     -43.499  59.439 -58.107  1.00  0.00     0.248 C 
HETATM   17  N   UNL     1     -44.429  60.438 -58.205  1.00  0.00    -0.358 N 
HETATM   18  O   UNL     1     -43.262  58.735 -59.083  1.00  0.00    -0.271 OA
HETATM   19  C   UNL     1     -44.982  61.156 -57.077  1.00  0.00     0.150 C 
HETATM   20  H   UNL     1     -44.928  60.454 -59.094  1.00  0.00     0.162 HD
HETATM   21  C   UNL     1     -43.966  61.330 -55.946  1.00  0.00     0.256 C 
HETATM   22  H   UNL     1     -44.245  59.385 -55.383  1.00  0.00     0.281 HD
BRANCH  15  23
HETATM   23  C   UNL     1     -42.388  57.825 -56.501  1.00  0.00     0.038 C 
HETATM   24  C   UNL     1     -43.607  56.937 -56.271  1.00  0.00     0.007 C 
ENDBRANCH  15  23
ENDBRANCH  13  14
ENDBRANCH   1  13
BRANCH   8  25
HETATM   25  C   UNL     1     -41.070  54.612 -52.572  1.00  0.00     0.274 C 
BRANCH  25  26
HETATM   26  C   UNL     1     -40.588  53.213 -52.846  1.00  0.00    -0.029 A 
HETATM   27  C   UNL     1     -39.959  52.460 -51.842  1.00  0.00     0.054 A 
HETATM   28  C   UNL     1     -39.507  51.169 -52.116  1.00  0.00     0.155 A 
HETATM   29  F   UNL     1     -38.912  50.473 -51.141  1.00  0.00    -0.203 F 
HETATM   30  C   UNL     1     -39.672  50.615 -53.378  1.00  0.00     0.154 A 
HETATM   31  F   UNL     1     -39.235  49.377 -53.638  1.00  0.00    -0.203 F 
HETATM   32  C   UNL     1     -40.290  51.347 -54.385  1.00  0.00     0.046 A 
HETATM   33  C   UNL     1     -40.747  52.642 -54.123  1.00  0.00     0.012 A 
ENDBRANCH  25  26
ENDBRANCH   8  25
TORSDOF 5
ENDMDL
MODEL 6
REMARK VINA RESULT:      -7.6      1.688      2.330
REMARK  5 active torsions:
REMARK  status: ('A' for Active; 'I' for Inactive)
REMARK    1  A    between atoms: C_2  and  C_3 
REMARK    2  A    between atoms: N_4  and  C_6 
REMARK    3  A    between atoms: C_6  and  C_7 
REMARK    4  A    between atoms: N_14  and  C_16 
REMARK    5  A    between atoms: C_16  and  C_17 
ROOT
HETATM    1  C   UNL     1     -44.184  58.414 -55.624  1.00  0.00    -0.032 A 
HETATM    2  C   UNL     1     -42.907  58.028 -55.159  1.00  0.00     0.020 A 
HETATM    3  C   UNL     1     -42.332  58.614 -54.011  1.00  0.00     0.002 A 
HETATM    4  C   UNL     1     -43.054  59.606 -53.344  1.00  0.00     0.076 A 
HETATM    5  O   UNL     1     -42.529  60.253 -52.262  1.00  0.00    -0.349 OA
HETATM    6  C   UNL     1     -42.486  59.408 -51.105  1.00  0.00     0.203 C 
HETATM    7  C   UNL     1     -41.152  58.668 -51.019  1.00  0.00     0.262 C 
HETATM    8  N   UNL     1     -40.979  57.607 -52.102  1.00  0.00    -0.061 N 
HETATM    9  H   UNL     1     -40.025  57.254 -51.956  1.00  0.00     0.280 HD
HETATM   10  C   UNL     1     -40.976  58.197 -53.500  1.00  0.00     0.276 C 
HETATM   11  C   UNL     1     -44.309  60.006 -53.788  1.00  0.00     0.038 A 
HETATM   12  C   UNL     1     -44.882  59.395 -54.904  1.00  0.00     0.011 A 
ENDROOT
BRANCH   1  13
HETATM   13  C   UNL     1     -44.811  57.752 -56.835  1.00  0.00     0.274 C 
BRANCH  13  14
HETATM   14  N   UNL     1     -44.170  57.998 -58.184  1.00  0.00    -0.053 N 
HETATM   15  C   UNL     1     -43.021  57.039 -58.577  1.00  0.00     0.279 C 
HETATM   16  C   UNL     1     -42.314  57.412 -59.909  1.00  0.00     0.248 C 
HETATM   17  N   UNL     1     -42.424  58.702 -60.354  1.00  0.00    -0.358 N 
HETATM   18  O   UNL     1     -41.610  56.618 -60.524  1.00  0.00    -0.271 OA
HETATM   19  C   UNL     1     -43.409  59.650 -59.881  1.00  0.00     0.150 C 
HETATM   20  H   UNL     1     -41.959  58.874 -61.245  1.00  0.00     0.162 HD
HETATM   21  C   UNL     1     -43.747  59.447 -58.402  1.00  0.00     0.256 C 
HETATM   22  H   UNL     1     -44.910  57.836 -58.879  1.00  0.00     0.281 HD
BRANCH  15  23
HETATM   23  C   UNL     1     -43.506  55.578 -58.631  1.00  0.00     0.038 C 
HETATM   24  C   UNL     1     -44.573  55.298 -59.685  1.00  0.00     0.007 C 
ENDBRANCH  15  23
ENDBRANCH  13  14
ENDBRANCH   1  13
BRANCH   8  25
HETATM   25  C   UNL     1     -41.877  56.397 -51.982  1.00  0.00     0.274 C 
BRANCH  25  26
HETATM   26  C   UNL     1     -41.253  55.103 -52.428  1.00  0.00    -0.029 A 
HETATM   27  C   UNL     1     -40.970  54.871 -53.783  1.00  0.00     0.054 A 
HETATM   28  C   UNL     1     -40.401  53.661 -54.182  1.00  0.00     0.155 A 
HETATM   29  F   UNL     1     -40.141  53.466 -55.480  1.00  0.00    -0.203 F 
HETATM   30  C   UNL     1     -40.111  52.675 -53.249  1.00  0.00     0.154 A 
HETATM   31  F   UNL     1     -39.568  51.514 -53.635  1.00  0.00    -0.203 F 
HETATM   32  C   UNL     1     -40.387  52.886 -51.903  1.00  0.00     0.046 A 
HETATM   33  C   UNL     1     -40.956  54.094 -51.492  1.00  0.00     0.012 A 
ENDBRANCH  25  26
ENDBRANCH   8  25
TORSDOF 5
ENDMDL
MODEL 7
REMARK VINA RESULT:      -7.5      3.615      5.424
REMARK  5 active torsions:
REMARK  status: ('A' for Active; 'I' for Inactive)
REMARK    1  A    between atoms: C_2  and  C_3 
REMARK    2  A    between atoms: N_4  and  C_6 
REMARK    3  A    between atoms: C_6  and  C_7 
REMARK    4  A    between atoms: N_14  and  C_16 
REMARK    5  A    between atoms: C_16  and  C_17 
ROOT
HETATM    1  C   UNL     1     -43.043  56.213 -56.267  1.00  0.00    -0.032 A 
HETATM    2  C   UNL     1     -43.450  56.666 -54.993  1.00  0.00     0.020 A 
HETATM    3  C   UNL     1     -43.166  55.928 -53.823  1.00  0.00     0.002 A 
HETATM    4  C   UNL     1     -42.476  54.721 -53.955  1.00  0.00     0.076 A 
HETATM    5  O   UNL     1     -42.221  53.933 -52.870  1.00  0.00    -0.349 OA
HETATM    6  C   UNL     1     -41.209  54.498 -52.027  1.00  0.00     0.203 C 
HETATM    7  C   UNL     1     -41.831  55.383 -50.947  1.00  0.00     0.262 C 
HETATM    8  N   UNL     1     -42.437  56.671 -51.498  1.00  0.00    -0.061 N 
HETATM    9  H   UNL     1     -42.867  57.116 -50.677  1.00  0.00     0.280 HD
HETATM   10  C   UNL     1     -43.583  56.411 -52.457  1.00  0.00     0.276 C 
HETATM   11  C   UNL     1     -42.073  54.254 -55.200  1.00  0.00     0.038 A 
HETATM   12  C   UNL     1     -42.329  55.008 -56.346  1.00  0.00     0.011 A 
ENDROOT
BRANCH   1  13
HETATM   13  C   UNL     1     -43.319  57.030 -57.514  1.00  0.00     0.274 C 
BRANCH  13  14
HETATM   14  N   UNL     1     -44.644  56.820 -58.216  1.00  0.00    -0.053 N 
HETATM   15  C   UNL     1     -44.567  56.377 -59.697  1.00  0.00     0.279 C 
HETATM   16  C   UNL     1     -45.947  56.300 -60.406  1.00  0.00     0.248 C 
HETATM   17  N   UNL     1     -46.983  57.017 -59.871  1.00  0.00    -0.358 N 
HETATM   18  O   UNL     1     -46.113  55.687 -61.455  1.00  0.00    -0.271 OA
HETATM   19  C   UNL     1     -46.998  57.559 -58.530  1.00  0.00     0.150 C 
HETATM   20  H   UNL     1     -47.866  56.903 -60.369  1.00  0.00     0.162 HD
HETATM   21  C   UNL     1     -45.606  57.994 -58.064  1.00  0.00     0.256 C 
HETATM   22  H   UNL     1     -45.102  56.043 -57.723  1.00  0.00     0.281 HD
BRANCH  15  23
HETATM   23  C   UNL     1     -43.827  55.034 -59.841  1.00  0.00     0.038 C 
HETATM   24  C   UNL     1     -44.538  53.841 -59.210  1.00  0.00     0.007 C 
ENDBRANCH  15  23
ENDBRANCH  13  14
ENDBRANCH   1  13
BRANCH   8  25
HETATM   25  C   UNL     1     -41.449  57.684 -52.031  1.00  0.00     0.274 C 
BRANCH  25  26
HETATM   26  C   UNL     1     -41.985  59.084 -52.151  1.00  0.00    -0.029 A 
HETATM   27  C   UNL     1     -42.439  59.779 -51.019  1.00  0.00     0.054 A 
HETATM   28  C   UNL     1     -42.944  61.073 -51.149  1.00  0.00     0.155 A 
HETATM   29  F   UNL     1     -43.369  61.714 -50.054  1.00  0.00    -0.203 F 
HETATM   30  C   UNL     1     -43.007  61.686 -52.393  1.00  0.00     0.154 A 
HETATM   31  F   UNL     1     -43.495  62.926 -52.515  1.00  0.00    -0.203 F 
HETATM   32  C   UNL     1     -42.564  61.012 -53.525  1.00  0.00     0.046 A 
HETATM   33  C   UNL     1     -42.055  59.715 -53.407  1.00  0.00     0.012 A 
ENDBRANCH  25  26
ENDBRANCH   8  25
TORSDOF 5
ENDMDL
MODEL 8
REMARK VINA RESULT:      -7.4      2.878      5.714
REMARK  5 active torsions:
REMARK  status: ('A' for Active; 'I' for Inactive)
REMARK    1  A    between atoms: C_2  and  C_3 
REMARK    2  A    between atoms: N_4  and  C_6 
REMARK    3  A    between atoms: C_6  and  C_7 
REMARK    4  A    between atoms: N_14  and  C_16 
REMARK    5  A    between atoms: C_16  and  C_17 
ROOT
HETATM    1  C   UNL     1     -42.531  59.291 -53.485  1.00  0.00    -0.032 A 
HETATM    2  C   UNL     1     -42.912  57.982 -53.116  1.00  0.00     0.020 A 
HETATM    3  C   UNL     1     -43.237  57.008 -54.084  1.00  0.00     0.002 A 
HETATM    4  C   UNL     1     -43.187  57.374 -55.431  1.00  0.00     0.076 A 
HETATM    5  O   UNL     1     -43.546  56.496 -56.414  1.00  0.00    -0.349 OA
HETATM    6  C   UNL     1     -42.570  55.462 -56.587  1.00  0.00     0.203 C 
HETATM    7  C   UNL     1     -42.895  54.253 -55.709  1.00  0.00     0.262 C 
HETATM    8  N   UNL     1     -42.704  54.521 -54.219  1.00  0.00    -0.061 N 
HETATM    9  H   UNL     1     -43.023  53.654 -53.767  1.00  0.00     0.280 HD
HETATM   10  C   UNL     1     -43.631  55.605 -53.699  1.00  0.00     0.276 C 
HETATM   11  C   UNL     1     -42.822  58.659 -55.816  1.00  0.00     0.038 A 
HETATM   12  C   UNL     1     -42.469  59.603 -54.851  1.00  0.00     0.011 A 
ENDROOT
BRANCH   1  13
HETATM   13  C   UNL     1     -42.145  60.320 -52.440  1.00  0.00     0.274 C 
BRANCH  13  14
HETATM   14  N   UNL     1     -43.112  61.455 -52.177  1.00  0.00    -0.053 N 
HETATM   15  C   UNL     1     -44.568  61.046 -51.849  1.00  0.00     0.279 C 
HETATM   16  C   UNL     1     -45.546  62.245 -51.714  1.00  0.00     0.248 C 
HETATM   17  N   UNL     1     -45.195  63.428 -52.307  1.00  0.00    -0.358 N 
HETATM   18  O   UNL     1     -46.639  62.144 -51.166  1.00  0.00    -0.271 OA
HETATM   19  C   UNL     1     -43.858  63.757 -52.749  1.00  0.00     0.150 C 
HETATM   20  H   UNL     1     -45.867  64.181 -52.159  1.00  0.00     0.162 HD
HETATM   21  C   UNL     1     -43.096  62.531 -53.258  1.00  0.00     0.256 C 
HETATM   22  H   UNL     1     -42.765  61.928 -51.333  1.00  0.00     0.281 HD
BRANCH  15  23
HETATM   23  C   UNL     1     -44.631  60.172 -50.582  1.00  0.00     0.038 C 
HETATM   24  C   UNL     1     -45.501  58.925 -50.709  1.00  0.00     0.007 C 
ENDBRANCH  15  23
ENDBRANCH  13  14
ENDBRANCH   1  13
BRANCH   8  25
HETATM   25  C   UNL     1     -41.274  54.709 -53.765  1.00  0.00     0.274 C 
BRANCH  25  26
HETATM   26  C   UNL     1     -40.651  53.497 -53.129  1.00  0.00    -0.029 A 
HETATM   27  C   UNL     1     -40.174  52.437 -53.917  1.00  0.00     0.054 A 
HETATM   28  C   UNL     1     -39.609  51.315 -53.311  1.00  0.00     0.155 A 
HETATM   29  F   UNL     1     -39.161  50.319 -54.085  1.00  0.00    -0.203 F 
HETATM   30  C   UNL     1     -39.513  51.230 -51.928  1.00  0.00     0.154 A 
HETATM   31  F   UNL     1     -38.973  50.151 -51.350  1.00  0.00    -0.203 F 
HETATM   32  C   UNL     1     -39.983  52.269 -51.133  1.00  0.00     0.046 A 
HETATM   33  C   UNL     1     -40.551  53.399 -51.728  1.00  0.00     0.012 A 
ENDBRANCH  25  26
ENDBRANCH   8  25
TORSDOF 5
ENDMDL
MODEL 9
REMARK VINA RESULT:      -7.3      1.945      2.776
REMARK  5 active torsions:
REMARK  status: ('A' for Active; 'I' for Inactive)
REMARK    1  A    between atoms: C_2  and  C_3 
REMARK    2  A    between atoms: N_4  and  C_6 
REMARK    3  A    between atoms: C_6  and  C_7 
REMARK    4  A    between atoms: N_14  and  C_16 
REMARK    5  A    between atoms: C_16  and  C_17 
ROOT
HETATM    1  C   UNL     1     -43.395  57.580 -56.206  1.00  0.00    -0.032 A 
HETATM    2  C   UNL     1     -42.226  57.270 -55.475  1.00  0.00     0.020 A 
HETATM    3  C   UNL     1     -42.284  56.918 -54.109  1.00  0.00     0.002 A 
HETATM    4  C   UNL     1     -43.532  56.897 -53.484  1.00  0.00     0.076 A 
HETATM    5  O   UNL     1     -43.649  56.622 -52.152  1.00  0.00    -0.349 OA
HETATM    6  C   UNL     1     -43.408  55.238 -51.870  1.00  0.00     0.203 C 
HETATM    7  C   UNL     1     -41.932  54.995 -51.554  1.00  0.00     0.262 C 
HETATM    8  N   UNL     1     -41.020  55.160 -52.767  1.00  0.00    -0.061 N 
HETATM    9  H   UNL     1     -40.073  55.036 -52.386  1.00  0.00     0.280 HD
HETATM   10  C   UNL     1     -41.044  56.571 -53.325  1.00  0.00     0.276 C 
HETATM   11  C   UNL     1     -44.693  57.206 -54.183  1.00  0.00     0.038 A 
HETATM   12  C   UNL     1     -44.628  57.518 -55.542  1.00  0.00     0.011 A 
ENDROOT
BRANCH   1  13
HETATM   13  C   UNL     1     -43.328  57.919 -57.682  1.00  0.00     0.274 C 
BRANCH  13  14
HETATM   14  N   UNL     1     -44.298  58.954 -58.213  1.00  0.00    -0.053 N 
HETATM   15  C   UNL     1     -44.672  58.831 -59.709  1.00  0.00     0.279 C 
HETATM   16  C   UNL     1     -45.566  59.988 -60.234  1.00  0.00     0.248 C 
HETATM   17  N   UNL     1     -45.565  61.166 -59.535  1.00  0.00    -0.358 N 
HETATM   18  O   UNL     1     -46.203  59.904 -61.278  1.00  0.00    -0.271 OA
HETATM   19  C   UNL     1     -45.079  61.315 -58.181  1.00  0.00     0.150 C 
HETATM   20  H   UNL     1     -46.191  61.874 -59.918  1.00  0.00     0.162 HD
HETATM   21  C   UNL     1     -43.898  60.388 -57.884  1.00  0.00     0.256 C 
HETATM   22  H   UNL     1     -45.176  58.804 -57.699  1.00  0.00     0.281 HD
BRANCH  15  23
HETATM   23  C   UNL     1     -45.339  57.475 -60.009  1.00  0.00     0.038 C 
HETATM   24  C   UNL     1     -46.596  57.187 -59.195  1.00  0.00     0.007 C 
ENDBRANCH  15  23
ENDBRANCH  13  14
ENDBRANCH   1  13
BRANCH   8  25
HETATM   25  C   UNL     1     -41.162  54.105 -53.841  1.00  0.00     0.274 C 
BRANCH  25  26
HETATM   26  C   UNL     1     -40.598  52.759 -53.479  1.00  0.00    -0.029 A 
HETATM   27  C   UNL     1     -40.572  51.715 -54.417  1.00  0.00     0.054 A 
HETATM   28  C   UNL     1     -40.056  50.468 -54.062  1.00  0.00     0.155 A 
HETATM   29  F   UNL     1     -40.043  49.490 -54.976  1.00  0.00    -0.203 F 
HETATM   30  C   UNL     1     -39.565  50.244 -52.784  1.00  0.00     0.154 A 
HETATM   31  F   UNL     1     -39.074  49.047 -52.446  1.00  0.00    -0.203 F 
HETATM   32  C   UNL     1     -39.585  51.266 -51.841  1.00  0.00     0.046 A 
HETATM   33  C   UNL     1     -40.099  52.519 -52.185  1.00  0.00     0.012 A 
ENDBRANCH  25  26
ENDBRANCH   8  25
TORSDOF 5
ENDMDL
MODEL 10
REMARK VINA RESULT:      -7.3      2.953      5.832
REMARK  5 active torsions:
REMARK  status: ('A' for Active; 'I' for Inactive)
REMARK    1  A    between atoms: C_2  and  C_3 
REMARK    2  A    between atoms: N_4  and  C_6 
REMARK    3  A    between atoms: C_6  and  C_7 
REMARK    4  A    between atoms: N_14  and  C_16 
REMARK    5  A    between atoms: C_16  and  C_17 
ROOT
HETATM    1  C   UNL     1     -44.520  58.351 -54.693  1.00  0.00    -0.032 A 
HETATM    2  C   UNL     1     -44.462  57.099 -54.041  1.00  0.00     0.020 A 
HETATM    3  C   UNL     1     -43.745  56.015 -54.591  1.00  0.00     0.002 A 
HETATM    4  C   UNL     1     -43.099  56.202 -55.814  1.00  0.00     0.076 A 
HETATM    5  O   UNL     1     -42.438  55.176 -56.427  1.00  0.00    -0.349 OA
HETATM    6  C   UNL     1     -41.216  54.851 -55.753  1.00  0.00     0.203 C 
HETATM    7  C   UNL     1     -41.447  53.767 -54.700  1.00  0.00     0.262 C 
HETATM    8  N   UNL     1     -42.263  54.250 -53.505  1.00  0.00    -0.061 N 
HETATM    9  H   UNL     1     -42.390  53.406 -52.932  1.00  0.00     0.280 HD
HETATM   10  C   UNL     1     -43.666  54.680 -53.894  1.00  0.00     0.276 C 
HETATM   11  C   UNL     1     -43.149  57.423 -56.477  1.00  0.00     0.038 A 
HETATM   12  C   UNL     1     -43.831  58.499 -55.906  1.00  0.00     0.011 A 
ENDROOT
BRANCH   1  13
HETATM   13  C   UNL     1     -45.259  59.522 -54.077  1.00  0.00     0.274 C 
BRANCH  13  14
HETATM   14  N   UNL     1     -44.834  59.978 -52.698  1.00  0.00    -0.053 N 
HETATM   15  C   UNL     1     -43.317  59.914 -52.397  1.00  0.00     0.279 C 
HETATM   16  C   UNL     1     -42.947  60.269 -50.931  1.00  0.00     0.248 C 
HETATM   17  N   UNL     1     -43.925  60.159 -49.979  1.00  0.00    -0.358 N 
HETATM   18  O   UNL     1     -41.806  60.568 -50.595  1.00  0.00    -0.271 OA
HETATM   19  C   UNL     1     -45.340  60.073 -50.265  1.00  0.00     0.150 C 
HETATM   20  H   UNL     1     -43.624  60.432 -49.043  1.00  0.00     0.162 HD
HETATM   21  C   UNL     1     -45.624  59.325 -51.569  1.00  0.00     0.256 C 
HETATM   22  H   UNL     1     -45.079  60.975 -52.644  1.00  0.00     0.281 HD
BRANCH  15  23
HETATM   23  C   UNL     1     -42.516  60.799 -53.370  1.00  0.00     0.038 C 
HETATM   24  C   UNL     1     -43.041  62.224 -53.518  1.00  0.00     0.007 C 
ENDBRANCH  15  23
ENDBRANCH  13  14
ENDBRANCH   1  13
BRANCH   8  25
HETATM   25  C   UNL     1     -41.576  55.250 -52.603  1.00  0.00     0.274 C 
BRANCH  25  26
HETATM   26  C   UNL     1     -41.272  54.744 -51.219  1.00  0.00    -0.029 A 
HETATM   27  C   UNL     1     -40.917  53.403 -51.006  1.00  0.00     0.054 A 
HETATM   28  C   UNL     1     -40.649  52.948 -49.715  1.00  0.00     0.155 A 
HETATM   29  F   UNL     1     -40.312  51.664 -49.539  1.00  0.00    -0.203 F 
HETATM   30  C   UNL     1     -40.731  53.809 -48.630  1.00  0.00     0.154 A 
HETATM   31  F   UNL     1     -40.477  53.368 -47.392  1.00  0.00    -0.203 F 
HETATM   32  C   UNL     1     -41.084  55.140 -48.822  1.00  0.00     0.046 A 
HETATM   33  C   UNL     1     -41.354  55.608 -50.111  1.00  0.00     0.012 A 
ENDBRANCH  25  26
ENDBRANCH   8  25
TORSDOF 5
ENDMDL
