MODEL 1
REMARK VINA RESULT:      -8.3      0.000      0.000
REMARK  7 active torsions:
REMARK  status: ('A' for Active; 'I' for Inactive)
REMARK    1  A    between atoms: C_5  and  S_6 
REMARK    2  A    between atoms: S_6  and  C_7 
REMARK    3  A    between atoms: C_7  and  C_8 
REMARK       I    between atoms: C_8  and  N_9 
REMARK    4  A    between atoms: N_9  and  C_10 
REMARK    5  A    between atoms: C_10  and  C_11 
REMARK    6  A    between atoms: C_11  and  C_12 
REMARK    7  A    between atoms: C_26  and  O_27 
ROOT
HETATM    1  C   UNL     1     -40.679  60.337 -50.522  1.00  0.00     0.052 C 
HETATM    2  C   UNL     1     -41.277  59.010 -50.924  1.00  0.00    -0.013 A 
HETATM    3  C   UNL     1     -42.128  58.874 -52.062  1.00  0.00     0.165 A 
HETATM    4  N   UNL     1     -42.688  57.639 -52.395  1.00  0.00    -0.271 N 
HETATM    5  C   UNL     1     -43.436  57.920 -53.527  1.00  0.00     0.197 A 
HETATM    6  N   UNL     1     -43.318  59.191 -53.846  1.00  0.00    -0.122 NA
HETATM    7  N   UNL     1     -42.507  59.789 -52.931  1.00  0.00    -0.128 NA
HETATM    8  C   UNL     1     -42.421  56.455 -51.651  1.00  0.00     0.053 A 
HETATM    9  C   UNL     1     -41.562  56.596 -50.546  1.00  0.00    -0.005 A 
HETATM   10  C   UNL     1     -41.009  57.910 -50.196  1.00  0.00     0.024 A 
HETATM   11  C   UNL     1     -42.935  55.193 -51.957  1.00  0.00     0.034 A 
HETATM   12  C   UNL     1     -42.589  54.080 -51.176  1.00  0.00     0.039 A 
HETATM   13  C   UNL     1     -41.731  54.214 -50.088  1.00  0.00     0.069 A 
HETATM   14  C   UNL     1     -41.226  55.477 -49.774  1.00  0.00     0.050 A 
ENDROOT
BRANCH   5  15
HETATM   15  S   UNL     1     -44.419  56.829 -54.443  1.00  0.00    -0.080 SA
BRANCH  15  16
HETATM   16  C   UNL     1     -43.317  56.425 -55.826  1.00  0.00     0.185 C 
BRANCH  16  17
HETATM   17  C   UNL     1     -42.667  55.065 -55.639  1.00  0.00     0.227 C 
HETATM   18  N   UNL     1     -41.318  55.110 -55.360  1.00  0.00    -0.360 N 
HETATM   19  H   UNL     1     -40.821  55.943 -55.680  1.00  0.00     0.162 HD
HETATM   20  O   UNL     1     -43.309  54.019 -55.699  1.00  0.00    -0.273 OA
BRANCH  18  21
HETATM   21  C   UNL     1     -40.548  53.893 -55.197  1.00  0.00     0.127 C 
BRANCH  21  22
HETATM   22  C   UNL     1     -40.112  53.694 -53.746  1.00  0.00     0.058 C 
BRANCH  22  23
HETATM   23  C   UNL     1     -39.957  52.238 -53.388  1.00  0.00    -0.057 A 
HETATM   24  C   UNL     1     -40.085  51.244 -54.367  1.00  0.00     0.007 A 
HETATM   25  C   UNL     1     -39.956  49.896 -54.026  1.00  0.00     0.001 A 
HETATM   26  C   UNL     1     -39.698  49.530 -52.706  1.00  0.00     0.000 A 
HETATM   27  C   UNL     1     -39.572  50.511 -51.724  1.00  0.00     0.001 A 
HETATM   28  C   UNL     1     -39.704  51.859 -52.063  1.00  0.00     0.007 A 
ENDBRANCH  22  23
ENDBRANCH  21  22
ENDBRANCH  18  21
ENDBRANCH  16  17
ENDBRANCH  15  16
ENDBRANCH   5  15
BRANCH  13  29
HETATM   29  O   UNL     1     -41.313  53.210 -49.261  1.00  0.00    -0.356 OA
HETATM   30  C   UNL     1     -40.417  53.565 -48.216  1.00  0.00     0.210 C 
ENDBRANCH  13  29
TORSDOF 7
ENDMDL
MODEL 2
REMARK VINA RESULT:      -7.9      2.804      6.183
REMARK  7 active torsions:
REMARK  status: ('A' for Active; 'I' for Inactive)
REMARK    1  A    between atoms: C_5  and  S_6 
REMARK    2  A    between atoms: S_6  and  C_7 
REMARK    3  A    between atoms: C_7  and  C_8 
REMARK       I    between atoms: C_8  and  N_9 
REMARK    4  A    between atoms: N_9  and  C_10 
REMARK    5  A    between atoms: C_10  and  C_11 
REMARK    6  A    between atoms: C_11  and  C_12 
REMARK    7  A    between atoms: C_26  and  O_27 
ROOT
HETATM    1  C   UNL     1     -40.559  54.098 -47.976  1.00  0.00     0.052 C 
HETATM    2  C   UNL     1     -40.580  54.177 -49.483  1.00  0.00    -0.013 A 
HETATM    3  C   UNL     1     -40.968  55.364 -50.176  1.00  0.00     0.165 A 
HETATM    4  N   UNL     1     -41.003  55.402 -51.571  1.00  0.00    -0.271 N 
HETATM    5  C   UNL     1     -41.425  56.692 -51.847  1.00  0.00     0.197 A 
HETATM    6  N   UNL     1     -41.604  57.361 -50.729  1.00  0.00    -0.122 NA
HETATM    7  N   UNL     1     -41.325  56.533 -49.685  1.00  0.00    -0.128 NA
HETATM    8  C   UNL     1     -40.628  54.286 -52.373  1.00  0.00     0.053 A 
HETATM    9  C   UNL     1     -40.225  53.131 -51.681  1.00  0.00    -0.005 A 
HETATM   10  C   UNL     1     -40.224  53.104 -50.213  1.00  0.00     0.024 A 
HETATM   11  C   UNL     1     -40.622  54.281 -53.770  1.00  0.00     0.034 A 
HETATM   12  C   UNL     1     -40.207  53.138 -54.471  1.00  0.00     0.039 A 
HETATM   13  C   UNL     1     -39.798  51.995 -53.788  1.00  0.00     0.069 A 
HETATM   14  C   UNL     1     -39.815  51.996 -52.392  1.00  0.00     0.050 A 
ENDROOT
BRANCH   5  15
HETATM   15  S   UNL     1     -41.710  57.401 -53.401  1.00  0.00    -0.080 SA
BRANCH  15  16
HETATM   16  C   UNL     1     -43.421  56.892 -53.722  1.00  0.00     0.185 C 
BRANCH  16  17
HETATM   17  C   UNL     1     -43.497  55.887 -54.857  1.00  0.00     0.227 C 
HETATM   18  N   UNL     1     -42.942  56.322 -56.043  1.00  0.00    -0.360 N 
HETATM   19  H   UNL     1     -42.903  57.334 -56.175  1.00  0.00     0.162 HD
HETATM   20  O   UNL     1     -43.982  54.768 -54.710  1.00  0.00    -0.273 OA
BRANCH  18  21
HETATM   21  C   UNL     1     -42.975  55.492 -57.231  1.00  0.00     0.127 C 
BRANCH  21  22
HETATM   22  C   UNL     1     -42.987  56.336 -58.505  1.00  0.00     0.058 C 
BRANCH  22  23
HETATM   23  C   UNL     1     -44.345  56.369 -59.158  1.00  0.00    -0.057 A 
HETATM   24  C   UNL     1     -45.279  57.356 -58.818  1.00  0.00     0.007 A 
HETATM   25  C   UNL     1     -46.541  57.371 -59.416  1.00  0.00     0.001 A 
HETATM   26  C   UNL     1     -46.879  56.402 -60.358  1.00  0.00     0.000 A 
HETATM   27  C   UNL     1     -45.959  55.414 -60.702  1.00  0.00     0.001 A 
HETATM   28  C   UNL     1     -44.698  55.395 -60.103  1.00  0.00     0.007 A 
ENDBRANCH  22  23
ENDBRANCH  21  22
ENDBRANCH  18  21
ENDBRANCH  16  17
ENDBRANCH  15  16
ENDBRANCH   5  15
BRANCH  13  29
HETATM   29  O   UNL     1     -39.366  50.829 -54.354  1.00  0.00    -0.356 OA
HETATM   30  C   UNL     1     -40.273  49.733 -54.346  1.00  0.00     0.210 C 
ENDBRANCH  13  29
TORSDOF 7
ENDMDL
MODEL 3
REMARK VINA RESULT:      -7.7      3.900      7.272
REMARK  7 active torsions:
REMARK  status: ('A' for Active; 'I' for Inactive)
REMARK    1  A    between atoms: C_5  and  S_6 
REMARK    2  A    between atoms: S_6  and  C_7 
REMARK    3  A    between atoms: C_7  and  C_8 
REMARK       I    between atoms: C_8  and  N_9 
REMARK    4  A    between atoms: N_9  and  C_10 
REMARK    5  A    between atoms: C_10  and  C_11 
REMARK    6  A    between atoms: C_11  and  C_12 
REMARK    7  A    between atoms: C_26  and  O_27 
ROOT
HETATM    1  C   UNL     1     -43.960  55.050 -59.948  1.00  0.00     0.052 C 
HETATM    2  C   UNL     1     -43.385  56.311 -59.351  1.00  0.00    -0.013 A 
HETATM    3  C   UNL     1     -43.125  56.440 -57.953  1.00  0.00     0.165 A 
HETATM    4  N   UNL     1     -42.616  57.628 -57.424  1.00  0.00    -0.271 N 
HETATM    5  C   UNL     1     -42.516  57.359 -56.069  1.00  0.00     0.197 A 
HETATM    6  N   UNL     1     -42.907  56.128 -55.819  1.00  0.00    -0.122 NA
HETATM    7  N   UNL     1     -43.293  55.554 -56.992  1.00  0.00    -0.128 NA
HETATM    8  C   UNL     1     -42.300  58.751 -58.240  1.00  0.00     0.053 A 
HETATM    9  C   UNL     1     -42.537  58.605 -59.618  1.00  0.00    -0.005 A 
HETATM   10  C   UNL     1     -43.101  57.358 -60.149  1.00  0.00     0.024 A 
HETATM   11  C   UNL     1     -41.767  59.951 -57.764  1.00  0.00     0.034 A 
HETATM   12  C   UNL     1     -41.462  60.992 -58.654  1.00  0.00     0.039 A 
HETATM   13  C   UNL     1     -41.687  60.847 -60.021  1.00  0.00     0.069 A 
HETATM   14  C   UNL     1     -42.231  59.653 -60.496  1.00  0.00     0.050 A 
ENDROOT
BRANCH   5  15
HETATM   15  S   UNL     1     -41.976  58.425 -54.817  1.00  0.00    -0.080 SA
BRANCH  15  16
HETATM   16  C   UNL     1     -42.782  57.707 -53.359  1.00  0.00     0.185 C 
BRANCH  16  17
HETATM   17  C   UNL     1     -41.903  56.659 -52.700  1.00  0.00     0.227 C 
HETATM   18  N   UNL     1     -42.158  55.364 -53.103  1.00  0.00    -0.360 N 
HETATM   19  H   UNL     1     -43.098  55.183 -53.460  1.00  0.00     0.162 HD
HETATM   20  O   UNL     1     -41.017  56.954 -51.901  1.00  0.00    -0.273 OA
BRANCH  18  21
HETATM   21  C   UNL     1     -41.431  54.247 -52.532  1.00  0.00     0.127 C 
BRANCH  21  22
HETATM   22  C   UNL     1     -40.461  53.635 -53.541  1.00  0.00     0.058 C 
BRANCH  22  23
HETATM   23  C   UNL     1     -40.135  52.198 -53.222  1.00  0.00    -0.057 A 
HETATM   24  C   UNL     1     -40.160  51.220 -54.225  1.00  0.00     0.007 A 
HETATM   25  C   UNL     1     -39.872  49.888 -53.919  1.00  0.00     0.001 A 
HETATM   26  C   UNL     1     -39.555  49.523 -52.612  1.00  0.00     0.000 A 
HETATM   27  C   UNL     1     -39.530  50.488 -51.607  1.00  0.00     0.001 A 
HETATM   28  C   UNL     1     -39.820  51.819 -51.910  1.00  0.00     0.007 A 
ENDBRANCH  22  23
ENDBRANCH  21  22
ENDBRANCH  18  21
ENDBRANCH  16  17
ENDBRANCH  15  16
ENDBRANCH   5  15
BRANCH  13  29
HETATM   29  O   UNL     1     -41.424  61.779 -60.984  1.00  0.00    -0.356 OA
HETATM   30  C   UNL     1     -40.369  62.697 -60.724  1.00  0.00     0.210 C 
ENDBRANCH  13  29
TORSDOF 7
ENDMDL
MODEL 4
REMARK VINA RESULT:      -7.5      3.008      4.250
REMARK  7 active torsions:
REMARK  status: ('A' for Active; 'I' for Inactive)
REMARK    1  A    between atoms: C_5  and  S_6 
REMARK    2  A    between atoms: S_6  and  C_7 
REMARK    3  A    between atoms: C_7  and  C_8 
REMARK       I    between atoms: C_8  and  N_9 
REMARK    4  A    between atoms: N_9  and  C_10 
REMARK    5  A    between atoms: C_10  and  C_11 
REMARK    6  A    between atoms: C_11  and  C_12 
REMARK    7  A    between atoms: C_26  and  O_27 
ROOT
HETATM    1  C   UNL     1     -39.477  59.452 -50.676  1.00  0.00     0.052 C 
HETATM    2  C   UNL     1     -40.890  59.717 -51.135  1.00  0.00    -0.013 A 
HETATM    3  C   UNL     1     -41.286  59.567 -52.499  1.00  0.00     0.165 A 
HETATM    4  N   UNL     1     -42.595  59.843 -52.901  1.00  0.00    -0.271 N 
HETATM    5  C   UNL     1     -42.573  59.590 -54.263  1.00  0.00     0.197 A 
HETATM    6  N   UNL     1     -41.377  59.185 -54.631  1.00  0.00    -0.122 NA
HETATM    7  N   UNL     1     -40.571  59.175 -53.533  1.00  0.00    -0.128 NA
HETATM    8  C   UNL     1     -43.604  60.252 -51.983  1.00  0.00     0.053 A 
HETATM    9  C   UNL     1     -43.209  60.373 -50.639  1.00  0.00    -0.005 A 
HETATM   10  C   UNL     1     -41.820  60.107 -50.244  1.00  0.00     0.024 A 
HETATM   11  C   UNL     1     -44.931  60.516 -52.330  1.00  0.00     0.034 A 
HETATM   12  C   UNL     1     -45.859  60.887 -51.345  1.00  0.00     0.039 A 
HETATM   13  C   UNL     1     -45.473  60.998 -50.011  1.00  0.00     0.069 A 
HETATM   14  C   UNL     1     -44.145  60.746 -49.666  1.00  0.00     0.050 A 
ENDROOT
BRANCH   5  15
HETATM   15  S   UNL     1     -43.874  59.762 -55.392  1.00  0.00    -0.080 SA
BRANCH  15  16
HETATM   16  C   UNL     1     -43.907  58.119 -56.159  1.00  0.00     0.185 C 
BRANCH  16  17
HETATM   17  C   UNL     1     -43.908  57.018 -55.113  1.00  0.00     0.227 C 
HETATM   18  N   UNL     1     -42.752  56.268 -55.072  1.00  0.00    -0.360 N 
HETATM   19  H   UNL     1     -42.205  56.238 -55.934  1.00  0.00     0.162 HD
HETATM   20  O   UNL     1     -44.854  56.843 -54.349  1.00  0.00    -0.273 OA
BRANCH  18  21
HETATM   21  C   UNL     1     -42.618  55.153 -54.155  1.00  0.00     0.127 C 
BRANCH  21  22
HETATM   22  C   UNL     1     -41.926  53.962 -54.817  1.00  0.00     0.058 C 
BRANCH  22  23
HETATM   23  C   UNL     1     -41.059  53.194 -53.851  1.00  0.00    -0.057 A 
HETATM   24  C   UNL     1     -40.470  51.981 -54.229  1.00  0.00     0.007 A 
HETATM   25  C   UNL     1     -39.681  51.268 -53.324  1.00  0.00     0.001 A 
HETATM   26  C   UNL     1     -39.473  51.760 -52.037  1.00  0.00     0.000 A 
HETATM   27  C   UNL     1     -40.057  52.965 -51.651  1.00  0.00     0.001 A 
HETATM   28  C   UNL     1     -40.849  53.678 -52.552  1.00  0.00     0.007 A 
ENDBRANCH  22  23
ENDBRANCH  21  22
ENDBRANCH  18  21
ENDBRANCH  16  17
ENDBRANCH  15  16
ENDBRANCH   5  15
BRANCH  13  29
HETATM   29  O   UNL     1     -46.281  61.340 -48.964  1.00  0.00    -0.356 OA
HETATM   30  C   UNL     1     -46.296  62.710 -48.581  1.00  0.00     0.210 C 
ENDBRANCH  13  29
TORSDOF 7
ENDMDL
MODEL 5
REMARK VINA RESULT:      -7.5      3.366      7.850
REMARK  7 active torsions:
REMARK  status: ('A' for Active; 'I' for Inactive)
REMARK    1  A    between atoms: C_5  and  S_6 
REMARK    2  A    between atoms: S_6  and  C_7 
REMARK    3  A    between atoms: C_7  and  C_8 
REMARK       I    between atoms: C_8  and  N_9 
REMARK    4  A    between atoms: N_9  and  C_10 
REMARK    5  A    between atoms: C_10  and  C_11 
REMARK    6  A    between atoms: C_11  and  C_12 
REMARK    7  A    between atoms: C_26  and  O_27 
ROOT
HETATM    1  C   UNL     1     -40.212  53.902 -48.019  1.00  0.00     0.052 C 
HETATM    2  C   UNL     1     -40.444  54.074 -49.500  1.00  0.00    -0.013 A 
HETATM    3  C   UNL     1     -40.887  55.310 -50.062  1.00  0.00     0.165 A 
HETATM    4  N   UNL     1     -41.117  55.433 -51.433  1.00  0.00    -0.271 N 
HETATM    5  C   UNL     1     -41.532  56.747 -51.573  1.00  0.00     0.197 A 
HETATM    6  N   UNL     1     -41.531  57.351 -50.404  1.00  0.00    -0.122 NA
HETATM    7  N   UNL     1     -41.134  56.455 -49.459  1.00  0.00    -0.128 NA
HETATM    8  C   UNL     1     -40.895  54.361 -52.343  1.00  0.00     0.053 A 
HETATM    9  C   UNL     1     -40.435  53.156 -51.782  1.00  0.00    -0.005 A 
HETATM   10  C   UNL     1     -40.229  53.039 -50.334  1.00  0.00     0.024 A 
HETATM   11  C   UNL     1     -41.086  54.440 -53.724  1.00  0.00     0.034 A 
HETATM   12  C   UNL     1     -40.811  53.333 -54.541  1.00  0.00     0.039 A 
HETATM   13  C   UNL     1     -40.346  52.141 -53.990  1.00  0.00     0.069 A 
HETATM   14  C   UNL     1     -40.166  52.057 -52.609  1.00  0.00     0.050 A 
ENDROOT
BRANCH   5  15
HETATM   15  S   UNL     1     -42.011  57.557 -53.026  1.00  0.00    -0.080 SA
BRANCH  15  16
HETATM   16  C   UNL     1     -43.808  57.310 -53.002  1.00  0.00     0.185 C 
BRANCH  16  17
HETATM   17  C   UNL     1     -44.526  58.520 -52.430  1.00  0.00     0.227 C 
HETATM   18  N   UNL     1     -44.317  58.723 -51.082  1.00  0.00    -0.360 N 
HETATM   19  H   UNL     1     -44.063  57.897 -50.537  1.00  0.00     0.162 HD
HETATM   20  O   UNL     1     -45.206  59.268 -53.127  1.00  0.00    -0.273 OA
BRANCH  18  21
HETATM   21  C   UNL     1     -44.969  59.812 -50.381  1.00  0.00     0.127 C 
BRANCH  21  22
HETATM   22  C   UNL     1     -44.002  60.964 -50.111  1.00  0.00     0.058 C 
BRANCH  22  23
HETATM   23  C   UNL     1     -44.404  61.778 -48.907  1.00  0.00    -0.057 A 
HETATM   24  C   UNL     1     -44.826  61.151 -47.728  1.00  0.00     0.007 A 
HETATM   25  C   UNL     1     -45.211  61.912 -46.622  1.00  0.00     0.001 A 
HETATM   26  C   UNL     1     -45.177  63.303 -46.684  1.00  0.00     0.000 A 
HETATM   27  C   UNL     1     -44.761  63.937 -47.853  1.00  0.00     0.001 A 
HETATM   28  C   UNL     1     -44.379  63.179 -48.961  1.00  0.00     0.007 A 
ENDBRANCH  22  23
ENDBRANCH  21  22
ENDBRANCH  18  21
ENDBRANCH  16  17
ENDBRANCH  15  16
ENDBRANCH   5  15
BRANCH  13  29
HETATM   29  O   UNL     1     -40.036  51.002 -54.678  1.00  0.00    -0.356 OA
HETATM   30  C   UNL     1     -39.571  49.895 -53.916  1.00  0.00     0.210 C 
ENDBRANCH  13  29
TORSDOF 7
ENDMDL
MODEL 6
REMARK VINA RESULT:      -7.3      1.868      3.542
REMARK  7 active torsions:
REMARK  status: ('A' for Active; 'I' for Inactive)
REMARK    1  A    between atoms: C_5  and  S_6 
REMARK    2  A    between atoms: S_6  and  C_7 
REMARK    3  A    between atoms: C_7  and  C_8 
REMARK       I    between atoms: C_8  and  N_9 
REMARK    4  A    between atoms: N_9  and  C_10 
REMARK    5  A    between atoms: C_10  and  C_11 
REMARK    6  A    between atoms: C_11  and  C_12 
REMARK    7  A    between atoms: C_26  and  O_27 
ROOT
HETATM    1  C   UNL     1     -41.767  53.493 -49.824  1.00  0.00     0.052 C 
HETATM    2  C   UNL     1     -41.820  54.794 -50.586  1.00  0.00    -0.013 A 
HETATM    3  C   UNL     1     -42.644  54.966 -51.740  1.00  0.00     0.165 A 
HETATM    4  N   UNL     1     -42.655  56.173 -52.441  1.00  0.00    -0.271 N 
HETATM    5  C   UNL     1     -43.551  55.939 -53.471  1.00  0.00     0.197 A 
HETATM    6  N   UNL     1     -44.039  54.721 -53.381  1.00  0.00    -0.122 NA
HETATM    7  N   UNL     1     -43.471  54.110 -52.305  1.00  0.00    -0.128 NA
HETATM    8  C   UNL     1     -41.882  57.298 -52.034  1.00  0.00     0.053 A 
HETATM    9  C   UNL     1     -41.093  57.126 -50.882  1.00  0.00    -0.005 A 
HETATM   10  C   UNL     1     -41.074  55.838 -50.178  1.00  0.00     0.024 A 
HETATM   11  C   UNL     1     -41.876  58.534 -52.684  1.00  0.00     0.034 A 
HETATM   12  C   UNL     1     -41.100  59.592 -52.187  1.00  0.00     0.039 A 
HETATM   13  C   UNL     1     -40.326  59.427 -51.041  1.00  0.00     0.069 A 
HETATM   14  C   UNL     1     -40.322  58.189 -50.397  1.00  0.00     0.050 A 
ENDROOT
BRANCH   5  15
HETATM   15  S   UNL     1     -44.012  57.024 -54.738  1.00  0.00    -0.080 SA
BRANCH  15  16
HETATM   16  C   UNL     1     -42.792  56.624 -56.019  1.00  0.00     0.185 C 
BRANCH  16  17
HETATM   17  C   UNL     1     -42.210  55.237 -55.816  1.00  0.00     0.227 C 
HETATM   18  N   UNL     1     -40.932  55.223 -55.298  1.00  0.00    -0.360 N 
HETATM   19  H   UNL     1     -40.372  56.061 -55.464  1.00  0.00     0.162 HD
HETATM   20  O   UNL     1     -42.848  54.216 -56.064  1.00  0.00    -0.273 OA
BRANCH  18  21
HETATM   21  C   UNL     1     -40.225  53.975 -55.087  1.00  0.00     0.127 C 
BRANCH  21  22
HETATM   22  C   UNL     1     -40.132  53.627 -53.602  1.00  0.00     0.058 C 
BRANCH  22  23
HETATM   23  C   UNL     1     -39.957  52.147 -53.371  1.00  0.00    -0.057 A 
HETATM   24  C   UNL     1     -39.620  51.656 -52.103  1.00  0.00     0.007 A 
HETATM   25  C   UNL     1     -39.446  50.286 -51.900  1.00  0.00     0.001 A 
HETATM   26  C   UNL     1     -39.607  49.396 -52.960  1.00  0.00     0.000 A 
HETATM   27  C   UNL     1     -39.939  49.874 -54.226  1.00  0.00     0.001 A 
HETATM   28  C   UNL     1     -40.112  51.243 -54.432  1.00  0.00     0.007 A 
ENDBRANCH  22  23
ENDBRANCH  21  22
ENDBRANCH  18  21
ENDBRANCH  16  17
ENDBRANCH  15  16
ENDBRANCH   5  15
BRANCH  13  29
HETATM   29  O   UNL     1     -39.539  60.379 -50.457  1.00  0.00    -0.356 OA
HETATM   30  C   UNL     1     -38.249  59.971 -50.020  1.00  0.00     0.210 C 
ENDBRANCH  13  29
TORSDOF 7
ENDMDL
MODEL 7
REMARK VINA RESULT:      -7.3     14.715     17.977
REMARK  7 active torsions:
REMARK  status: ('A' for Active; 'I' for Inactive)
REMARK    1  A    between atoms: C_5  and  S_6 
REMARK    2  A    between atoms: S_6  and  C_7 
REMARK    3  A    between atoms: C_7  and  C_8 
REMARK       I    between atoms: C_8  and  N_9 
REMARK    4  A    between atoms: N_9  and  C_10 
REMARK    5  A    between atoms: C_10  and  C_11 
REMARK    6  A    between atoms: C_11  and  C_12 
REMARK    7  A    between atoms: C_26  and  O_27 
ROOT
HETATM    1  C   UNL     1     -30.445  39.995 -56.639  1.00  0.00     0.052 C 
HETATM    2  C   UNL     1     -31.820  39.536 -56.218  1.00  0.00    -0.013 A 
HETATM    3  C   UNL     1     -32.289  39.674 -54.876  1.00  0.00     0.165 A 
HETATM    4  N   UNL     1     -33.557  39.218 -54.509  1.00  0.00    -0.271 N 
HETATM    5  C   UNL     1     -33.629  39.520 -53.159  1.00  0.00     0.197 A 
HETATM    6  N   UNL     1     -32.522  40.113 -52.767  1.00  0.00    -0.122 NA
HETATM    7  N   UNL     1     -31.683  40.206 -53.835  1.00  0.00    -0.128 NA
HETATM    8  C   UNL     1     -34.456  38.629 -55.444  1.00  0.00     0.053 A 
HETATM    9  C   UNL     1     -33.992  38.521 -56.767  1.00  0.00    -0.005 A 
HETATM   10  C   UNL     1     -32.645  38.979 -57.125  1.00  0.00     0.024 A 
HETATM   11  C   UNL     1     -35.741  38.180 -55.133  1.00  0.00     0.034 A 
HETATM   12  C   UNL     1     -36.563  37.639 -56.134  1.00  0.00     0.039 A 
HETATM   13  C   UNL     1     -36.111  37.539 -57.447  1.00  0.00     0.069 A 
HETATM   14  C   UNL     1     -34.822  37.977 -57.756  1.00  0.00     0.050 A 
ENDROOT
BRANCH   5  15
HETATM   15  S   UNL     1     -34.934  39.193 -52.070  1.00  0.00    -0.080 SA
BRANCH  15  16
HETATM   16  C   UNL     1     -35.432  40.870 -51.590  1.00  0.00     0.185 C 
BRANCH  16  17
HETATM   17  C   UNL     1     -36.055  41.618 -52.754  1.00  0.00     0.227 C 
HETATM   18  N   UNL     1     -35.152  42.064 -53.696  1.00  0.00    -0.360 N 
HETATM   19  H   UNL     1     -34.196  42.210 -53.367  1.00  0.00     0.162 HD
HETATM   20  O   UNL     1     -37.269  41.777 -52.857  1.00  0.00    -0.273 OA
BRANCH  18  21
HETATM   21  C   UNL     1     -35.589  42.832 -54.846  1.00  0.00     0.127 C 
BRANCH  21  22
HETATM   22  C   UNL     1     -35.109  42.206 -56.154  1.00  0.00     0.058 C 
BRANCH  22  23
HETATM   23  C   UNL     1     -36.239  41.596 -56.945  1.00  0.00    -0.057 A 
HETATM   24  C   UNL     1     -37.429  41.215 -56.313  1.00  0.00     0.007 A 
HETATM   25  C   UNL     1     -38.466  40.637 -57.049  1.00  0.00     0.001 A 
HETATM   26  C   UNL     1     -38.321  40.435 -58.421  1.00  0.00     0.000 A 
HETATM   27  C   UNL     1     -37.140  40.808 -59.058  1.00  0.00     0.001 A 
HETATM   28  C   UNL     1     -36.102  41.383 -58.324  1.00  0.00     0.007 A 
ENDBRANCH  22  23
ENDBRANCH  21  22
ENDBRANCH  18  21
ENDBRANCH  16  17
ENDBRANCH  15  16
ENDBRANCH   5  15
BRANCH  13  29
HETATM   29  O   UNL     1     -36.816  37.042 -58.507  1.00  0.00    -0.356 OA
HETATM   30  C   UNL     1     -36.180  37.078 -59.779  1.00  0.00     0.210 C 
ENDBRANCH  13  29
TORSDOF 7
ENDMDL
MODEL 8
REMARK VINA RESULT:      -7.3      2.849      6.051
REMARK  7 active torsions:
REMARK  status: ('A' for Active; 'I' for Inactive)
REMARK    1  A    between atoms: C_5  and  S_6 
REMARK    2  A    between atoms: S_6  and  C_7 
REMARK    3  A    between atoms: C_7  and  C_8 
REMARK       I    between atoms: C_8  and  N_9 
REMARK    4  A    between atoms: N_9  and  C_10 
REMARK    5  A    between atoms: C_10  and  C_11 
REMARK    6  A    between atoms: C_11  and  C_12 
REMARK    7  A    between atoms: C_26  and  O_27 
ROOT
HETATM    1  C   UNL     1     -42.649  61.675 -58.045  1.00  0.00     0.052 C 
HETATM    2  C   UNL     1     -42.674  60.195 -57.748  1.00  0.00    -0.013 A 
HETATM    3  C   UNL     1     -42.250  59.665 -56.492  1.00  0.00     0.165 A 
HETATM    4  N   UNL     1     -42.260  58.290 -56.253  1.00  0.00    -0.271 N 
HETATM    5  C   UNL     1     -41.782  58.185 -54.957  1.00  0.00     0.197 A 
HETATM    6  N   UNL     1     -41.531  59.380 -54.467  1.00  0.00    -0.122 NA
HETATM    7  N   UNL     1     -41.817  60.305 -55.424  1.00  0.00    -0.128 NA
HETATM    8  C   UNL     1     -42.718  57.351 -57.221  1.00  0.00     0.053 A 
HETATM    9  C   UNL     1     -43.156  57.886 -58.446  1.00  0.00    -0.005 A 
HETATM   10  C   UNL     1     -43.108  59.333 -58.686  1.00  0.00     0.024 A 
HETATM   11  C   UNL     1     -42.771  55.970 -57.023  1.00  0.00     0.034 A 
HETATM   12  C   UNL     1     -43.266  55.129 -58.031  1.00  0.00     0.039 A 
HETATM   13  C   UNL     1     -43.710  55.656 -59.241  1.00  0.00     0.069 A 
HETATM   14  C   UNL     1     -43.646  57.035 -59.445  1.00  0.00     0.050 A 
ENDROOT
BRANCH   5  15
HETATM   15  S   UNL     1     -41.513  56.740 -54.042  1.00  0.00    -0.080 SA
BRANCH  15  16
HETATM   16  C   UNL     1     -42.104  57.236 -52.401  1.00  0.00     0.185 C 
BRANCH  16  17
HETATM   17  C   UNL     1     -41.977  56.101 -51.400  1.00  0.00     0.227 C 
HETATM   18  N   UNL     1     -41.465  54.933 -51.923  1.00  0.00    -0.360 N 
HETATM   19  H   UNL     1     -41.589  54.799 -52.928  1.00  0.00     0.162 HD
HETATM   20  O   UNL     1     -42.277  56.236 -50.216  1.00  0.00    -0.273 OA
BRANCH  18  21
HETATM   21  C   UNL     1     -41.323  53.746 -51.101  1.00  0.00     0.127 C 
BRANCH  21  22
HETATM   22  C   UNL     1     -39.925  53.142 -51.225  1.00  0.00     0.058 C 
BRANCH  22  23
HETATM   23  C   UNL     1     -39.890  51.967 -52.170  1.00  0.00    -0.057 A 
HETATM   24  C   UNL     1     -39.547  50.690 -51.710  1.00  0.00     0.007 A 
HETATM   25  C   UNL     1     -39.502  49.610 -52.594  1.00  0.00     0.001 A 
HETATM   26  C   UNL     1     -39.801  49.797 -53.942  1.00  0.00     0.000 A 
HETATM   27  C   UNL     1     -40.141  51.064 -54.410  1.00  0.00     0.001 A 
HETATM   28  C   UNL     1     -40.183  52.146 -53.529  1.00  0.00     0.007 A 
ENDBRANCH  22  23
ENDBRANCH  21  22
ENDBRANCH  18  21
ENDBRANCH  16  17
ENDBRANCH  15  16
ENDBRANCH   5  15
BRANCH  13  29
HETATM   29  O   UNL     1     -44.219  54.946 -60.291  1.00  0.00    -0.356 OA
HETATM   30  C   UNL     1     -45.560  55.230 -60.673  1.00  0.00     0.210 C 
ENDBRANCH  13  29
TORSDOF 7
ENDMDL
MODEL 9
REMARK VINA RESULT:      -7.0      3.202      6.426
REMARK  7 active torsions:
REMARK  status: ('A' for Active; 'I' for Inactive)
REMARK    1  A    between atoms: C_5  and  S_6 
REMARK    2  A    between atoms: S_6  and  C_7 
REMARK    3  A    between atoms: C_7  and  C_8 
REMARK       I    between atoms: C_8  and  N_9 
REMARK    4  A    between atoms: N_9  and  C_10 
REMARK    5  A    between atoms: C_10  and  C_11 
REMARK    6  A    between atoms: C_11  and  C_12 
REMARK    7  A    between atoms: C_26  and  O_27 
ROOT
HETATM    1  C   UNL     1     -40.637  53.539 -48.737  1.00  0.00     0.052 C 
HETATM    2  C   UNL     1     -40.801  54.453 -49.927  1.00  0.00    -0.013 A 
HETATM    3  C   UNL     1     -40.724  53.973 -51.270  1.00  0.00     0.165 A 
HETATM    4  N   UNL     1     -40.855  54.846 -52.352  1.00  0.00    -0.271 N 
HETATM    5  C   UNL     1     -40.717  54.016 -53.452  1.00  0.00     0.197 A 
HETATM    6  N   UNL     1     -40.541  52.771 -53.064  1.00  0.00    -0.122 NA
HETATM    7  N   UNL     1     -40.540  52.743 -51.703  1.00  0.00    -0.128 NA
HETATM    8  C   UNL     1     -41.102  56.238 -52.183  1.00  0.00     0.053 A 
HETATM    9  C   UNL     1     -41.200  56.695 -50.857  1.00  0.00    -0.005 A 
HETATM   10  C   UNL     1     -41.030  55.765 -49.734  1.00  0.00     0.024 A 
HETATM   11  C   UNL     1     -41.265  57.147 -53.231  1.00  0.00     0.034 A 
HETATM   12  C   UNL     1     -41.534  58.497 -52.961  1.00  0.00     0.039 A 
HETATM   13  C   UNL     1     -41.642  58.951 -51.648  1.00  0.00     0.069 A 
HETATM   14  C   UNL     1     -41.467  58.046 -50.601  1.00  0.00     0.050 A 
ENDROOT
BRANCH   5  15
HETATM   15  S   UNL     1     -40.747  54.463 -55.125  1.00  0.00    -0.080 SA
BRANCH  15  16
HETATM   16  C   UNL     1     -42.530  54.563 -55.440  1.00  0.00     0.185 C 
BRANCH  16  17
HETATM   17  C   UNL     1     -42.913  55.905 -56.039  1.00  0.00     0.227 C 
HETATM   18  N   UNL     1     -42.117  56.309 -57.091  1.00  0.00    -0.360 N 
HETATM   19  H   UNL     1     -41.173  55.919 -57.115  1.00  0.00     0.162 HD
HETATM   20  O   UNL     1     -43.876  56.553 -55.634  1.00  0.00    -0.273 OA
BRANCH  18  21
HETATM   21  C   UNL     1     -42.330  57.588 -57.740  1.00  0.00     0.127 C 
BRANCH  21  22
HETATM   22  C   UNL     1     -42.510  57.428 -59.248  1.00  0.00     0.058 C 
BRANCH  22  23
HETATM   23  C   UNL     1     -43.867  56.878 -59.608  1.00  0.00    -0.057 A 
HETATM   24  C   UNL     1     -43.989  55.649 -60.268  1.00  0.00     0.007 A 
HETATM   25  C   UNL     1     -45.248  55.153 -60.611  1.00  0.00     0.001 A 
HETATM   26  C   UNL     1     -46.395  55.880 -60.298  1.00  0.00     0.000 A 
HETATM   27  C   UNL     1     -46.285  57.105 -59.644  1.00  0.00     0.001 A 
HETATM   28  C   UNL     1     -45.027  57.604 -59.303  1.00  0.00     0.007 A 
ENDBRANCH  22  23
ENDBRANCH  21  22
ENDBRANCH  18  21
ENDBRANCH  16  17
ENDBRANCH  15  16
ENDBRANCH   5  15
BRANCH  13  29
HETATM   29  O   UNL     1     -41.908  60.233 -51.258  1.00  0.00    -0.356 OA
HETATM   30  C   UNL     1     -42.924  60.927 -51.973  1.00  0.00     0.210 C 
ENDBRANCH  13  29
TORSDOF 7
ENDMDL
MODEL 10
REMARK VINA RESULT:      -7.0      2.837      7.598
REMARK  7 active torsions:
REMARK  status: ('A' for Active; 'I' for Inactive)
REMARK    1  A    between atoms: C_5  and  S_6 
REMARK    2  A    between atoms: S_6  and  C_7 
REMARK    3  A    between atoms: C_7  and  C_8 
REMARK       I    between atoms: C_8  and  N_9 
REMARK    4  A    between atoms: N_9  and  C_10 
REMARK    5  A    between atoms: C_10  and  C_11 
REMARK    6  A    between atoms: C_11  and  C_12 
REMARK    7  A    between atoms: C_26  and  O_27 
ROOT
HETATM    1  C   UNL     1     -39.484  51.134 -53.537  1.00  0.00     0.052 C 
HETATM    2  C   UNL     1     -40.188  52.468 -53.483  1.00  0.00    -0.013 A 
HETATM    3  C   UNL     1     -40.338  53.199 -52.265  1.00  0.00     0.165 A 
HETATM    4  N   UNL     1     -41.015  54.420 -52.240  1.00  0.00    -0.271 N 
HETATM    5  C   UNL     1     -40.952  54.795 -50.909  1.00  0.00     0.197 A 
HETATM    6  N   UNL     1     -40.287  53.898 -50.214  1.00  0.00    -0.122 NA
HETATM    7  N   UNL     1     -39.907  52.898 -51.057  1.00  0.00    -0.128 NA
HETATM    8  C   UNL     1     -41.558  55.015 -53.415  1.00  0.00     0.053 A 
HETATM    9  C   UNL     1     -41.383  54.298 -54.612  1.00  0.00    -0.005 A 
HETATM   10  C   UNL     1     -40.694  53.002 -54.610  1.00  0.00     0.024 A 
HETATM   11  C   UNL     1     -42.222  56.243 -53.447  1.00  0.00     0.034 A 
HETATM   12  C   UNL     1     -42.697  56.759 -54.663  1.00  0.00     0.039 A 
HETATM   13  C   UNL     1     -42.517  56.056 -55.851  1.00  0.00     0.069 A 
HETATM   14  C   UNL     1     -41.864  54.823 -55.818  1.00  0.00     0.050 A 
ENDROOT
BRANCH   5  15
HETATM   15  S   UNL     1     -41.627  56.211 -50.176  1.00  0.00    -0.080 SA
BRANCH  15  16
HETATM   16  C   UNL     1     -40.384  57.463 -50.596  1.00  0.00     0.185 C 
BRANCH  16  17
HETATM   17  C   UNL     1     -41.033  58.750 -51.075  1.00  0.00     0.227 C 
HETATM   18  N   UNL     1     -42.300  58.970 -50.577  1.00  0.00    -0.360 N 
HETATM   19  H   UNL     1     -42.820  58.139 -50.288  1.00  0.00     0.162 HD
HETATM   20  O   UNL     1     -40.453  59.539 -51.817  1.00  0.00    -0.273 OA
BRANCH  18  21
HETATM   21  C   UNL     1     -43.067  60.135 -50.975  1.00  0.00     0.127 C 
BRANCH  21  22
HETATM   22  C   UNL     1     -44.340  59.740 -51.722  1.00  0.00     0.058 C 
BRANCH  22  23
HETATM   23  C   UNL     1     -44.231  59.982 -53.206  1.00  0.00    -0.057 A 
HETATM   24  C   UNL     1     -43.138  60.676 -53.739  1.00  0.00     0.007 A 
HETATM   25  C   UNL     1     -43.051  60.910 -55.113  1.00  0.00     0.001 A 
HETATM   26  C   UNL     1     -44.054  60.451 -55.965  1.00  0.00     0.000 A 
HETATM   27  C   UNL     1     -45.147  59.762 -55.445  1.00  0.00     0.001 A 
HETATM   28  C   UNL     1     -45.237  59.530 -54.072  1.00  0.00     0.007 A 
ENDBRANCH  22  23
ENDBRANCH  21  22
ENDBRANCH  18  21
ENDBRANCH  16  17
ENDBRANCH  15  16
ENDBRANCH   5  15
BRANCH  13  29
HETATM   29  O   UNL     1     -42.923  56.455 -57.093  1.00  0.00    -0.356 OA
HETATM   30  C   UNL     1     -42.433  57.705 -57.562  1.00  0.00     0.210 C 
ENDBRANCH  13  29
TORSDOF 7
ENDMDL
