MODEL 1
REMARK VINA RESULT:      -8.1      0.000      0.000
REMARK  3 active torsions:
REMARK  status: ('A' for Active; 'I' for Inactive)
REMARK    1  A    between atoms: C_5  and  N_6 
REMARK       I    between atoms: N_6  and  C_7 
REMARK    2  A    between atoms: C_7  and  C_8 
REMARK    3  A    between atoms: C_11  and  N_12 
ROOT
HETATM    1  C   UNL     1     -40.893  52.601 -53.340  1.00  0.00     0.001 A 
HETATM    2  C   UNL     1     -41.622  53.639 -52.755  1.00  0.00     0.008 A 
HETATM    3  C   UNL     1     -41.600  54.880 -53.368  1.00  0.00    -0.043 A 
HETATM    4  C   UNL     1     -40.865  55.092 -54.547  1.00  0.00    -0.028 A 
HETATM    5  C   UNL     1     -41.116  56.483 -55.095  1.00  0.00     0.125 C 
HETATM    6  C   UNL     1     -41.467  57.178 -53.746  1.00  0.00     0.049 C 
HETATM    7  C   UNL     1     -42.246  56.146 -52.913  1.00  0.00     0.053 C 
HETATM    8  C   UNL     1     -42.354  58.390 -53.670  1.00  0.00     0.239 C 
HETATM    9  N   UNL     1     -43.738  57.835 -53.756  1.00  0.00    -0.074 N 
HETATM   10  H   UNL     1     -44.423  58.407 -53.248  1.00  0.00     0.277 HD
HETATM   11  H   UNL     1     -43.995  57.906 -54.759  1.00  0.00     0.277 HD
HETATM   12  C   UNL     1     -43.700  56.393 -53.311  1.00  0.00     0.242 C 
HETATM   13  C   UNL     1     -40.137  54.065 -55.131  1.00  0.00     0.010 A 
HETATM   14  C   UNL     1     -40.153  52.814 -54.515  1.00  0.00     0.001 A 
ENDROOT
BRANCH   5  15
HETATM   15  N   UNL     1     -42.095  56.280 -56.163  1.00  0.00    -0.348 N 
HETATM   16  C   UNL     1     -42.545  57.178 -57.093  1.00  0.00     0.252 C 
HETATM   17  O   UNL     1     -42.472  58.390 -56.950  1.00  0.00    -0.268 OA
HETATM   18  H   UNL     1     -42.110  55.316 -56.485  1.00  0.00     0.163 HD
BRANCH  16  19
HETATM   19  C   UNL     1     -43.222  56.603 -58.286  1.00  0.00     0.032 A 
HETATM   20  C   UNL     1     -43.522  55.239 -58.374  1.00  0.00     0.019 A 
HETATM   21  C   UNL     1     -44.153  54.738 -59.517  1.00  0.00     0.024 A 
HETATM   22  C   UNL     1     -44.532  55.589 -60.558  1.00  0.00     0.005 A 
HETATM   23  C   UNL     1     -44.191  56.943 -60.476  1.00  0.00     0.024 A 
HETATM   24  C   UNL     1     -43.566  57.458 -59.336  1.00  0.00     0.019 A 
BRANCH  22  25
HETATM   25  N   UNL     1     -45.029  55.060 -61.749  1.00  0.00    -0.303 NA
HETATM   26  H   UNL     1     -45.157  55.734 -62.498  1.00  0.00     0.124 HD
HETATM   27  H   UNL     1     -44.557  54.220 -62.071  1.00  0.00     0.124 HD
ENDBRANCH  22  25
ENDBRANCH  16  19
ENDBRANCH   5  15
TORSDOF 3
ENDMDL
MODEL 2
REMARK VINA RESULT:      -7.9      3.280      6.729
REMARK  3 active torsions:
REMARK  status: ('A' for Active; 'I' for Inactive)
REMARK    1  A    between atoms: C_5  and  N_6 
REMARK       I    between atoms: N_6  and  C_7 
REMARK    2  A    between atoms: C_7  and  C_8 
REMARK    3  A    between atoms: C_11  and  N_12 
ROOT
HETATM    1  C   UNL     1     -39.487  51.655 -51.555  1.00  0.00     0.001 A 
HETATM    2  C   UNL     1     -39.641  51.920 -52.918  1.00  0.00     0.008 A 
HETATM    3  C   UNL     1     -40.635  52.802 -53.303  1.00  0.00    -0.043 A 
HETATM    4  C   UNL     1     -41.469  53.414 -52.352  1.00  0.00    -0.028 A 
HETATM    5  C   UNL     1     -42.375  54.438 -53.010  1.00  0.00     0.125 C 
HETATM    6  C   UNL     1     -42.425  53.792 -54.426  1.00  0.00     0.049 C 
HETATM    7  C   UNL     1     -41.028  53.202 -54.686  1.00  0.00     0.053 C 
HETATM    8  C   UNL     1     -42.673  54.598 -55.672  1.00  0.00     0.239 C 
HETATM    9  N   UNL     1     -41.344  55.204 -55.984  1.00  0.00    -0.074 N 
HETATM   10  H   UNL     1     -41.207  55.353 -56.991  1.00  0.00     0.277 HD
HETATM   11  H   UNL     1     -41.372  56.150 -55.557  1.00  0.00     0.277 HD
HETATM   12  C   UNL     1     -40.272  54.357 -55.343  1.00  0.00     0.242 C 
HETATM   13  C   UNL     1     -41.322  53.152 -50.998  1.00  0.00     0.010 A 
HETATM   14  C   UNL     1     -40.324  52.262 -50.604  1.00  0.00     0.001 A 
ENDROOT
BRANCH   5  15
HETATM   15  N   UNL     1     -41.724  55.720 -52.743  1.00  0.00    -0.348 N 
HETATM   16  C   UNL     1     -42.210  56.800 -52.057  1.00  0.00     0.252 C 
HETATM   17  O   UNL     1     -43.403  56.999 -51.871  1.00  0.00    -0.268 OA
HETATM   18  H   UNL     1     -40.712  55.631 -52.699  1.00  0.00     0.163 HD
BRANCH  16  19
HETATM   19  C   UNL     1     -41.204  57.796 -51.601  1.00  0.00     0.032 A 
HETATM   20  C   UNL     1     -40.171  58.231 -52.438  1.00  0.00     0.019 A 
HETATM   21  C   UNL     1     -39.241  59.163 -51.968  1.00  0.00     0.024 A 
HETATM   22  C   UNL     1     -39.353  59.704 -50.684  1.00  0.00     0.005 A 
HETATM   23  C   UNL     1     -40.366  59.231 -49.843  1.00  0.00     0.024 A 
HETATM   24  C   UNL     1     -41.306  58.304 -50.304  1.00  0.00     0.019 A 
BRANCH  22  25
HETATM   25  N   UNL     1     -38.342  60.521 -50.177  1.00  0.00    -0.303 NA
HETATM   26  H   UNL     1     -37.882  61.111 -50.865  1.00  0.00     0.124 HD
HETATM   27  H   UNL     1     -38.592  61.037 -49.339  1.00  0.00     0.124 HD
ENDBRANCH  22  25
ENDBRANCH  16  19
ENDBRANCH   5  15
TORSDOF 3
ENDMDL
MODEL 3
REMARK VINA RESULT:      -7.8      3.568      6.178
REMARK  3 active torsions:
REMARK  status: ('A' for Active; 'I' for Inactive)
REMARK    1  A    between atoms: C_5  and  N_6 
REMARK       I    between atoms: N_6  and  C_7 
REMARK    2  A    between atoms: C_7  and  C_8 
REMARK    3  A    between atoms: C_11  and  N_12 
ROOT
HETATM    1  C   UNL     1     -40.734  59.664 -50.223  1.00  0.00     0.001 A 
HETATM    2  C   UNL     1     -42.048  59.483 -50.662  1.00  0.00     0.008 A 
HETATM    3  C   UNL     1     -42.249  58.877 -51.890  1.00  0.00    -0.043 A 
HETATM    4  C   UNL     1     -41.164  58.457 -52.676  1.00  0.00    -0.028 A 
HETATM    5  C   UNL     1     -41.646  57.700 -53.899  1.00  0.00     0.125 C 
HETATM    6  C   UNL     1     -43.042  58.380 -54.027  1.00  0.00     0.049 C 
HETATM    7  C   UNL     1     -43.541  58.624 -52.592  1.00  0.00     0.053 C 
HETATM    8  C   UNL     1     -44.218  57.694 -54.666  1.00  0.00     0.239 C 
HETATM    9  N   UNL     1     -44.742  56.795 -53.594  1.00  0.00    -0.074 N 
HETATM   10  H   UNL     1     -45.756  56.646 -53.667  1.00  0.00     0.277 HD
HETATM   11  H   UNL     1     -44.304  55.871 -53.779  1.00  0.00     0.277 HD
HETATM   12  C   UNL     1     -44.301  57.341 -52.258  1.00  0.00     0.242 C 
HETATM   13  C   UNL     1     -39.857  58.636 -52.246  1.00  0.00     0.010 A 
HETATM   14  C   UNL     1     -39.648  59.249 -51.011  1.00  0.00     0.001 A 
ENDROOT
BRANCH   5  15
HETATM   15  N   UNL     1     -41.477  56.292 -53.542  1.00  0.00    -0.348 N 
HETATM   16  C   UNL     1     -41.199  55.230 -54.360  1.00  0.00     0.252 C 
HETATM   17  O   UNL     1     -41.408  55.234 -55.565  1.00  0.00    -0.268 OA
HETATM   18  H   UNL     1     -41.128  56.179 -52.594  1.00  0.00     0.163 HD
BRANCH  16  19
HETATM   19  C   UNL     1     -40.692  54.002 -53.691  1.00  0.00     0.032 A 
HETATM   20  C   UNL     1     -40.290  52.879 -54.424  1.00  0.00     0.019 A 
HETATM   21  C   UNL     1     -39.826  51.742 -53.756  1.00  0.00     0.024 A 
HETATM   22  C   UNL     1     -39.714  51.725 -52.363  1.00  0.00     0.005 A 
HETATM   23  C   UNL     1     -40.155  52.837 -51.641  1.00  0.00     0.024 A 
HETATM   24  C   UNL     1     -40.615  53.983 -52.297  1.00  0.00     0.019 A 
BRANCH  22  25
HETATM   25  N   UNL     1     -39.388  50.540 -51.702  1.00  0.00    -0.303 NA
HETATM   26  H   UNL     1     -39.095  49.778 -52.307  1.00  0.00     0.124 HD
HETATM   27  H   UNL     1     -38.767  50.654 -50.907  1.00  0.00     0.124 HD
ENDBRANCH  22  25
ENDBRANCH  16  19
ENDBRANCH   5  15
TORSDOF 3
ENDMDL
MODEL 4
REMARK VINA RESULT:      -7.2      1.979      2.468
REMARK  3 active torsions:
REMARK  status: ('A' for Active; 'I' for Inactive)
REMARK    1  A    between atoms: C_5  and  N_6 
REMARK       I    between atoms: N_6  and  C_7 
REMARK    2  A    between atoms: C_7  and  C_8 
REMARK    3  A    between atoms: C_11  and  N_12 
ROOT
HETATM    1  C   UNL     1     -40.750  52.864 -53.629  1.00  0.00     0.001 A 
HETATM    2  C   UNL     1     -41.262  53.527 -52.511  1.00  0.00     0.008 A 
HETATM    3  C   UNL     1     -41.270  54.911 -52.519  1.00  0.00    -0.043 A 
HETATM    4  C   UNL     1     -40.777  55.631 -53.619  1.00  0.00    -0.028 A 
HETATM    5  C   UNL     1     -41.027  57.117 -53.446  1.00  0.00     0.125 C 
HETATM    6  C   UNL     1     -41.041  57.145 -51.888  1.00  0.00     0.049 C 
HETATM    7  C   UNL     1     -41.711  55.836 -51.435  1.00  0.00     0.053 C 
HETATM    8  C   UNL     1     -41.798  58.183 -51.107  1.00  0.00     0.239 C 
HETATM    9  N   UNL     1     -43.209  57.693 -51.121  1.00  0.00    -0.074 N 
HETATM   10  H   UNL     1     -43.730  57.972 -50.281  1.00  0.00     0.277 HD
HETATM   11  H   UNL     1     -43.659  58.191 -51.914  1.00  0.00     0.277 HD
HETATM   12  C   UNL     1     -43.192  56.203 -51.361  1.00  0.00     0.242 C 
HETATM   13  C   UNL     1     -40.265  54.978 -54.731  1.00  0.00     0.010 A 
HETATM   14  C   UNL     1     -40.251  53.584 -54.727  1.00  0.00     0.001 A 
ENDROOT
BRANCH   5  15
HETATM   15  N   UNL     1     -42.215  57.381 -54.256  1.00  0.00    -0.348 N 
HETATM   16  C   UNL     1     -42.404  58.345 -55.210  1.00  0.00     0.252 C 
HETATM   17  O   UNL     1     -41.735  59.367 -55.276  1.00  0.00    -0.268 OA
HETATM   18  H   UNL     1     -42.762  56.538 -54.414  1.00  0.00     0.163 HD
BRANCH  16  19
HETATM   19  C   UNL     1     -43.542  58.132 -56.142  1.00  0.00     0.032 A 
HETATM   20  C   UNL     1     -44.840  58.546 -55.823  1.00  0.00     0.019 A 
HETATM   21  C   UNL     1     -45.884  58.320 -56.725  1.00  0.00     0.024 A 
HETATM   22  C   UNL     1     -45.643  57.724 -57.966  1.00  0.00     0.005 A 
HETATM   23  C   UNL     1     -44.350  57.278 -58.257  1.00  0.00     0.024 A 
HETATM   24  C   UNL     1     -43.296  57.504 -57.366  1.00  0.00     0.019 A 
BRANCH  22  25
HETATM   25  N   UNL     1     -46.711  57.375 -58.794  1.00  0.00    -0.303 NA
HETATM   26  H   UNL     1     -47.591  57.214 -58.314  1.00  0.00     0.124 HD
HETATM   27  H   UNL     1     -46.826  57.966 -59.612  1.00  0.00     0.124 HD
ENDBRANCH  22  25
ENDBRANCH  16  19
ENDBRANCH   5  15
TORSDOF 3
ENDMDL
MODEL 5
REMARK VINA RESULT:      -7.2      3.024      6.092
REMARK  3 active torsions:
REMARK  status: ('A' for Active; 'I' for Inactive)
REMARK    1  A    between atoms: C_5  and  N_6 
REMARK       I    between atoms: N_6  and  C_7 
REMARK    2  A    between atoms: C_7  and  C_8 
REMARK    3  A    between atoms: C_11  and  N_12 
ROOT
HETATM    1  C   UNL     1     -39.953  52.873 -50.951  1.00  0.00     0.001 A 
HETATM    2  C   UNL     1     -39.883  53.021 -52.338  1.00  0.00     0.008 A 
HETATM    3  C   UNL     1     -40.974  53.565 -52.994  1.00  0.00    -0.043 A 
HETATM    4  C   UNL     1     -42.122  53.957 -52.285  1.00  0.00    -0.028 A 
HETATM    5  C   UNL     1     -43.111  54.649 -53.204  1.00  0.00     0.125 C 
HETATM    6  C   UNL     1     -42.686  53.952 -54.531  1.00  0.00     0.049 C 
HETATM    7  C   UNL     1     -41.160  53.773 -54.460  1.00  0.00     0.053 C 
HETATM    8  C   UNL     1     -42.874  54.595 -55.876  1.00  0.00     0.239 C 
HETATM    9  N   UNL     1     -41.723  55.540 -55.993  1.00  0.00    -0.074 N 
HETATM   10  H   UNL     1     -41.423  55.676 -56.965  1.00  0.00     0.277 HD
HETATM   11  H   UNL     1     -42.095  56.458 -55.678  1.00  0.00     0.277 HD
HETATM   12  C   UNL     1     -40.623  55.064 -55.077  1.00  0.00     0.242 C 
HETATM   13  C   UNL     1     -42.198  53.810 -50.908  1.00  0.00     0.010 A 
HETATM   14  C   UNL     1     -41.103  53.259 -50.243  1.00  0.00     0.001 A 
ENDROOT
BRANCH   5  15
HETATM   15  N   UNL     1     -42.901  56.074 -52.953  1.00  0.00    -0.348 N 
HETATM   16  C   UNL     1     -43.755  57.119 -53.186  1.00  0.00     0.252 C 
HETATM   17  O   UNL     1     -44.685  57.065 -53.978  1.00  0.00    -0.268 OA
HETATM   18  H   UNL     1     -42.264  56.233 -52.176  1.00  0.00     0.163 HD
BRANCH  16  19
HETATM   19  C   UNL     1     -43.447  58.389 -52.475  1.00  0.00     0.032 A 
HETATM   20  C   UNL     1     -42.376  58.489 -51.581  1.00  0.00     0.019 A 
HETATM   21  C   UNL     1     -42.126  59.700 -50.928  1.00  0.00     0.024 A 
HETATM   22  C   UNL     1     -42.906  60.830 -51.190  1.00  0.00     0.005 A 
HETATM   23  C   UNL     1     -43.997  60.706 -52.054  1.00  0.00     0.024 A 
HETATM   24  C   UNL     1     -44.254  59.503 -52.719  1.00  0.00     0.019 A 
BRANCH  22  25
HETATM   25  N   UNL     1     -42.738  61.987 -50.429  1.00  0.00    -0.303 NA
HETATM   26  H   UNL     1     -41.790  62.354 -50.409  1.00  0.00     0.124 HD
HETATM   27  H   UNL     1     -43.423  62.716 -50.605  1.00  0.00     0.124 HD
ENDBRANCH  22  25
ENDBRANCH  16  19
ENDBRANCH   5  15
TORSDOF 3
ENDMDL
MODEL 6
REMARK VINA RESULT:      -6.9      1.712      2.556
REMARK  3 active torsions:
REMARK  status: ('A' for Active; 'I' for Inactive)
REMARK    1  A    between atoms: C_5  and  N_6 
REMARK       I    between atoms: N_6  and  C_7 
REMARK    2  A    between atoms: C_7  and  C_8 
REMARK    3  A    between atoms: C_11  and  N_12 
ROOT
HETATM    1  C   UNL     1     -42.791  53.907 -51.383  1.00  0.00     0.001 A 
HETATM    2  C   UNL     1     -43.489  55.086 -51.112  1.00  0.00     0.008 A 
HETATM    3  C   UNL     1     -43.032  56.261 -51.683  1.00  0.00    -0.043 A 
HETATM    4  C   UNL     1     -41.897  56.270 -52.511  1.00  0.00    -0.028 A 
HETATM    5  C   UNL     1     -41.687  57.643 -53.122  1.00  0.00     0.125 C 
HETATM    6  C   UNL     1     -42.373  58.477 -52.000  1.00  0.00     0.049 C 
HETATM    7  C   UNL     1     -43.567  57.643 -51.504  1.00  0.00     0.053 C 
HETATM    8  C   UNL     1     -43.002  59.818 -52.262  1.00  0.00     0.239 C 
HETATM    9  N   UNL     1     -44.337  59.487 -52.846  1.00  0.00    -0.074 N 
HETATM   10  H   UNL     1     -45.048  60.195 -52.628  1.00  0.00     0.277 HD
HETATM   11  H   UNL     1     -44.199  59.527 -53.874  1.00  0.00     0.277 HD
HETATM   12  C   UNL     1     -44.714  58.092 -52.409  1.00  0.00     0.242 C 
HETATM   13  C   UNL     1     -41.199  55.102 -52.781  1.00  0.00     0.010 A 
HETATM   14  C   UNL     1     -41.653  53.915 -52.206  1.00  0.00     0.001 A 
ENDROOT
BRANCH   5  15
HETATM   15  N   UNL     1     -42.236  57.524 -54.473  1.00  0.00    -0.348 N 
HETATM   16  C   UNL     1     -42.039  58.345 -55.550  1.00  0.00     0.252 C 
HETATM   17  O   UNL     1     -41.668  59.507 -55.454  1.00  0.00    -0.268 OA
HETATM   18  H   UNL     1     -42.418  56.556 -54.725  1.00  0.00     0.163 HD
BRANCH  16  19
HETATM   19  C   UNL     1     -42.385  57.777 -56.880  1.00  0.00     0.032 A 
HETATM   20  C   UNL     1     -42.286  58.536 -58.052  1.00  0.00     0.019 A 
HETATM   21  C   UNL     1     -42.628  57.965 -59.281  1.00  0.00     0.024 A 
HETATM   22  C   UNL     1     -43.026  56.627 -59.365  1.00  0.00     0.005 A 
HETATM   23  C   UNL     1     -43.159  55.892 -58.184  1.00  0.00     0.024 A 
HETATM   24  C   UNL     1     -42.814  56.449 -56.949  1.00  0.00     0.019 A 
BRANCH  22  25
HETATM   25  N   UNL     1     -43.500  56.113 -60.573  1.00  0.00    -0.303 NA
HETATM   26  H   UNL     1     -43.131  56.563 -61.405  1.00  0.00     0.124 HD
HETATM   27  H   UNL     1     -43.473  55.100 -60.644  1.00  0.00     0.124 HD
ENDBRANCH  22  25
ENDBRANCH  16  19
ENDBRANCH   5  15
TORSDOF 3
ENDMDL
MODEL 7
REMARK VINA RESULT:      -6.8     15.429     18.503
REMARK  3 active torsions:
REMARK  status: ('A' for Active; 'I' for Inactive)
REMARK    1  A    between atoms: C_5  and  N_6 
REMARK       I    between atoms: N_6  and  C_7 
REMARK    2  A    between atoms: C_7  and  C_8 
REMARK    3  A    between atoms: C_11  and  N_12 
ROOT
HETATM    1  C   UNL     1     -37.235  41.564 -59.965  1.00  0.00     0.001 A 
HETATM    2  C   UNL     1     -37.282  42.260 -58.754  1.00  0.00     0.008 A 
HETATM    3  C   UNL     1     -37.193  41.534 -57.579  1.00  0.00    -0.043 A 
HETATM    4  C   UNL     1     -37.060  40.135 -57.601  1.00  0.00    -0.028 A 
HETATM    5  C   UNL     1     -36.840  39.594 -56.201  1.00  0.00     0.125 C 
HETATM    6  C   UNL     1     -37.568  40.729 -55.422  1.00  0.00     0.049 C 
HETATM    7  C   UNL     1     -37.271  42.036 -56.176  1.00  0.00     0.053 C 
HETATM    8  C   UNL     1     -37.219  41.087 -54.004  1.00  0.00     0.239 C 
HETATM    9  N   UNL     1     -36.002  41.944 -54.134  1.00  0.00    -0.074 N 
HETATM   10  H   UNL     1     -35.930  42.641 -53.383  1.00  0.00     0.277 HD
HETATM   11  H   UNL     1     -35.201  41.296 -54.001  1.00  0.00     0.277 HD
HETATM   12  C   UNL     1     -35.986  42.540 -55.520  1.00  0.00     0.242 C 
HETATM   13  C   UNL     1     -37.015  39.439 -58.800  1.00  0.00     0.010 A 
HETATM   14  C   UNL     1     -37.108  40.165 -59.987  1.00  0.00     0.001 A 
ENDROOT
BRANCH   5  15
HETATM   15  N   UNL     1     -35.395  39.376 -56.121  1.00  0.00    -0.348 N 
HETATM   16  C   UNL     1     -34.668  38.300 -56.555  1.00  0.00     0.252 C 
HETATM   17  O   UNL     1     -35.151  37.193 -56.747  1.00  0.00    -0.268 OA
HETATM   18  H   UNL     1     -34.878  40.251 -56.135  1.00  0.00     0.163 HD
BRANCH  16  19
HETATM   19  C   UNL     1     -33.205  38.517 -56.709  1.00  0.00     0.032 A 
HETATM   20  C   UNL     1     -32.602  39.732 -56.364  1.00  0.00     0.019 A 
HETATM   21  C   UNL     1     -31.224  39.897 -56.532  1.00  0.00     0.024 A 
HETATM   22  C   UNL     1     -30.427  38.848 -56.998  1.00  0.00     0.005 A 
HETATM   23  C   UNL     1     -31.046  37.653 -57.377  1.00  0.00     0.024 A 
HETATM   24  C   UNL     1     -32.423  37.472 -57.208  1.00  0.00     0.019 A 
BRANCH  22  25
HETATM   25  N   UNL     1     -29.082  39.069 -57.296  1.00  0.00    -0.303 NA
HETATM   26  H   UNL     1     -28.516  39.384 -56.514  1.00  0.00     0.124 HD
HETATM   27  H   UNL     1     -28.632  38.320 -57.814  1.00  0.00     0.124 HD
ENDBRANCH  22  25
ENDBRANCH  16  19
ENDBRANCH   5  15
TORSDOF 3
ENDMDL
MODEL 8
REMARK VINA RESULT:      -6.6     15.566     18.068
REMARK  3 active torsions:
REMARK  status: ('A' for Active; 'I' for Inactive)
REMARK    1  A    between atoms: C_5  and  N_6 
REMARK       I    between atoms: N_6  and  C_7 
REMARK    2  A    between atoms: C_7  and  C_8 
REMARK    3  A    between atoms: C_11  and  N_12 
ROOT
HETATM    1  C   UNL     1     -37.500  40.704 -57.984  1.00  0.00     0.001 A 
HETATM    2  C   UNL     1     -36.378  39.875 -57.928  1.00  0.00     0.008 A 
HETATM    3  C   UNL     1     -35.349  40.225 -57.070  1.00  0.00    -0.043 A 
HETATM    4  C   UNL     1     -35.429  41.383 -56.279  1.00  0.00    -0.028 A 
HETATM    5  C   UNL     1     -34.250  41.468 -55.328  1.00  0.00     0.125 C 
HETATM    6  C   UNL     1     -33.234  40.653 -56.184  1.00  0.00     0.049 C 
HETATM    7  C   UNL     1     -34.039  39.538 -56.873  1.00  0.00     0.053 C 
HETATM    8  C   UNL     1     -32.089  39.895 -55.571  1.00  0.00     0.239 C 
HETATM    9  N   UNL     1     -32.710  38.627 -55.085  1.00  0.00    -0.074 N 
HETATM   10  H   UNL     1     -32.055  37.836 -55.101  1.00  0.00     0.277 HD
HETATM   11  H   UNL     1     -32.925  38.799 -54.083  1.00  0.00     0.277 HD
HETATM   12  C   UNL     1     -33.975  38.385 -55.872  1.00  0.00     0.242 C 
HETATM   13  C   UNL     1     -36.540  42.211 -56.333  1.00  0.00     0.010 A 
HETATM   14  C   UNL     1     -37.578  41.865 -57.198  1.00  0.00     0.001 A 
ENDROOT
BRANCH   5  15
HETATM   15  N   UNL     1     -34.779  40.987 -54.052  1.00  0.00    -0.348 N 
HETATM   16  C   UNL     1     -35.496  41.674 -53.110  1.00  0.00     0.252 C 
HETATM   17  O   UNL     1     -35.493  42.894 -53.019  1.00  0.00    -0.268 OA
HETATM   18  H   UNL     1     -34.988  39.992 -54.079  1.00  0.00     0.163 HD
BRANCH  16  19
HETATM   19  C   UNL     1     -36.238  40.850 -52.120  1.00  0.00     0.032 A 
HETATM   20  C   UNL     1     -37.452  40.232 -52.440  1.00  0.00     0.019 A 
HETATM   21  C   UNL     1     -38.121  39.471 -51.477  1.00  0.00     0.024 A 
HETATM   22  C   UNL     1     -37.572  39.279 -50.206  1.00  0.00     0.005 A 
HETATM   23  C   UNL     1     -36.379  39.934 -49.885  1.00  0.00     0.024 A 
HETATM   24  C   UNL     1     -35.696  40.692 -50.842  1.00  0.00     0.019 A 
BRANCH  22  25
HETATM   25  N   UNL     1     -38.314  38.641 -49.212  1.00  0.00    -0.303 NA
HETATM   26  H   UNL     1     -39.275  38.958 -49.124  1.00  0.00     0.124 HD
HETATM   27  H   UNL     1     -38.247  37.627 -49.215  1.00  0.00     0.124 HD
ENDBRANCH  22  25
ENDBRANCH  16  19
ENDBRANCH   5  15
TORSDOF 3
ENDMDL
MODEL 9
REMARK VINA RESULT:      -6.6      3.253      5.425
REMARK  3 active torsions:
REMARK  status: ('A' for Active; 'I' for Inactive)
REMARK    1  A    between atoms: C_5  and  N_6 
REMARK       I    between atoms: N_6  and  C_7 
REMARK    2  A    between atoms: C_7  and  C_8 
REMARK    3  A    between atoms: C_11  and  N_12 
ROOT
HETATM    1  C   UNL     1     -40.365  54.308 -49.861  1.00  0.00     0.001 A 
HETATM    2  C   UNL     1     -40.116  53.893 -51.172  1.00  0.00     0.008 A 
HETATM    3  C   UNL     1     -41.083  54.141 -52.130  1.00  0.00    -0.043 A 
HETATM    4  C   UNL     1     -42.283  54.792 -51.797  1.00  0.00    -0.028 A 
HETATM    5  C   UNL     1     -43.107  55.071 -53.039  1.00  0.00     0.125 C 
HETATM    6  C   UNL     1     -42.567  53.901 -53.915  1.00  0.00     0.049 C 
HETATM    7  C   UNL     1     -41.075  53.752 -53.571  1.00  0.00     0.053 C 
HETATM    8  C   UNL     1     -42.549  53.959 -55.417  1.00  0.00     0.239 C 
HETATM    9  N   UNL     1     -41.335  54.771 -55.736  1.00  0.00    -0.074 N 
HETATM   10  H   UNL     1     -40.910  54.507 -56.632  1.00  0.00     0.277 HD
HETATM   11  H   UNL     1     -41.685  55.741 -55.860  1.00  0.00     0.277 HD
HETATM   12  C   UNL     1     -40.387  54.687 -54.565  1.00  0.00     0.242 C 
HETATM   13  C   UNL     1     -42.536  55.205 -50.497  1.00  0.00     0.010 A 
HETATM   14  C   UNL     1     -41.566  54.954 -49.526  1.00  0.00     0.001 A 
ENDROOT
BRANCH   5  15
HETATM   15  N   UNL     1     -42.841  56.478 -53.341  1.00  0.00    -0.348 N 
HETATM   16  C   UNL     1     -43.490  57.301 -54.221  1.00  0.00     0.252 C 
HETATM   17  O   UNL     1     -44.159  56.891 -55.159  1.00  0.00    -0.268 OA
HETATM   18  H   UNL     1     -42.437  56.967 -52.546  1.00  0.00     0.163 HD
BRANCH  16  19
HETATM   19  C   UNL     1     -43.276  58.761 -54.034  1.00  0.00     0.032 A 
HETATM   20  C   UNL     1     -42.847  59.289 -52.811  1.00  0.00     0.019 A 
HETATM   21  C   UNL     1     -42.665  60.669 -52.675  1.00  0.00     0.024 A 
HETATM   22  C   UNL     1     -42.861  61.529 -53.760  1.00  0.00     0.005 A 
HETATM   23  C   UNL     1     -43.328  60.993 -54.964  1.00  0.00     0.024 A 
HETATM   24  C   UNL     1     -43.508  59.615 -55.115  1.00  0.00     0.019 A 
BRANCH  22  25
HETATM   25  N   UNL     1     -42.816  62.911 -53.574  1.00  0.00    -0.303 NA
HETATM   26  H   UNL     1     -41.902  63.332 -53.713  1.00  0.00     0.124 HD
HETATM   27  H   UNL     1     -43.549  63.428 -54.049  1.00  0.00     0.124 HD
ENDBRANCH  22  25
ENDBRANCH  16  19
ENDBRANCH   5  15
TORSDOF 3
ENDMDL
MODEL 10
REMARK VINA RESULT:      -6.6     15.614     18.811
REMARK  3 active torsions:
REMARK  status: ('A' for Active; 'I' for Inactive)
REMARK    1  A    between atoms: C_5  and  N_6 
REMARK       I    between atoms: N_6  and  C_7 
REMARK    2  A    between atoms: C_7  and  C_8 
REMARK    3  A    between atoms: C_11  and  N_12 
ROOT
HETATM    1  C   UNL     1     -38.075  39.454 -58.310  1.00  0.00     0.001 A 
HETATM    2  C   UNL     1     -38.009  40.570 -57.474  1.00  0.00     0.008 A 
HETATM    3  C   UNL     1     -37.349  40.443 -56.264  1.00  0.00    -0.043 A 
HETATM    4  C   UNL     1     -36.761  39.225 -55.886  1.00  0.00    -0.028 A 
HETATM    5  C   UNL     1     -35.981  39.381 -54.594  1.00  0.00     0.125 C 
HETATM    6  C   UNL     1     -36.799  40.567 -54.000  1.00  0.00     0.049 C 
HETATM    7  C   UNL     1     -37.192  41.463 -55.187  1.00  0.00     0.053 C 
HETATM    8  C   UNL     1     -36.205  41.553 -53.033  1.00  0.00     0.239 C 
HETATM    9  N   UNL     1     -35.442  42.500 -53.900  1.00  0.00    -0.074 N 
HETATM   10  H   UNL     1     -35.401  43.447 -53.506  1.00  0.00     0.277 HD
HETATM   11  H   UNL     1     -34.466  42.145 -53.893  1.00  0.00     0.277 HD
HETATM   12  C   UNL     1     -36.025  42.445 -55.291  1.00  0.00     0.242 C 
HETATM   13  C   UNL     1     -36.824  38.112 -56.712  1.00  0.00     0.010 A 
HETATM   14  C   UNL     1     -37.492  38.234 -57.930  1.00  0.00     0.001 A 
ENDROOT
BRANCH   5  15
HETATM   15  N   UNL     1     -34.590  39.513 -55.025  1.00  0.00    -0.348 N 
HETATM   16  C   UNL     1     -33.457  39.548 -54.258  1.00  0.00     0.252 C 
HETATM   17  O   UNL     1     -33.455  39.843 -53.071  1.00  0.00    -0.268 OA
HETATM   18  H   UNL     1     -34.442  39.127 -55.954  1.00  0.00     0.163 HD
BRANCH  16  19
HETATM   19  C   UNL     1     -32.176  39.286 -54.967  1.00  0.00     0.032 A 
HETATM   20  C   UNL     1     -31.758  40.075 -56.044  1.00  0.00     0.019 A 
HETATM   21  C   UNL     1     -30.550  39.790 -56.688  1.00  0.00     0.024 A 
HETATM   22  C   UNL     1     -29.727  38.753 -56.242  1.00  0.00     0.005 A 
HETATM   23  C   UNL     1     -30.174  37.947 -55.190  1.00  0.00     0.024 A 
HETATM   24  C   UNL     1     -31.376  38.226 -54.533  1.00  0.00     0.019 A 
BRANCH  22  25
HETATM   25  N   UNL     1     -28.599  38.389 -56.977  1.00  0.00    -0.303 NA
HETATM   26  H   UNL     1     -28.597  37.430 -57.313  1.00  0.00     0.124 HD
HETATM   27  H   UNL     1     -28.334  39.046 -57.705  1.00  0.00     0.124 HD
ENDBRANCH  22  25
ENDBRANCH  16  19
ENDBRANCH   5  15
TORSDOF 3
ENDMDL
