MODEL 1
REMARK VINA RESULT:      -8.2      0.000      0.000
REMARK  7 active torsions:
REMARK  status: ('A' for Active; 'I' for Inactive)
REMARK    1  A    between atoms: C_2  and  N_3 
REMARK    2  A    between atoms: C_2  and  C_12 
REMARK       I    between atoms: N_3  and  C_4 
REMARK    3  A    between atoms: C_4  and  C_5 
REMARK    4  A    between atoms: N_17  and  C_19 
REMARK    5  A    between atoms: C_19  and  C_20 
REMARK    6  A    between atoms: C_22  and  C_23 
REMARK    7  A    between atoms: C_23  and  N_24 
ROOT
HETATM    1  C   UNL     1     -40.689  53.901 -50.754  1.00  0.00     0.152 A 
HETATM    2  N   UNL     1     -40.580  53.967 -52.127  1.00  0.00    -0.317 N 
HETATM    3  C   UNL     1     -40.134  52.733 -52.527  1.00  0.00     0.131 A 
HETATM    4  C   UNL     1     -40.015  52.251 -53.926  1.00  0.00     0.108 C 
HETATM    5  C   UNL     1     -41.300  52.528 -54.697  1.00  0.00     0.243 C 
HETATM    6  N   UNL     1     -41.393  53.963 -55.218  1.00  0.00    -0.065 N 
HETATM    7  H   UNL     1     -40.936  53.943 -56.140  1.00  0.00     0.280 HD
HETATM    8  C   UNL     1     -40.614  55.019 -54.434  1.00  0.00     0.255 C 
HETATM    9  C   UNL     1     -40.962  55.096 -52.945  1.00  0.00     0.159 C 
HETATM   10  N   UNL     1     -39.919  51.994 -51.464  1.00  0.00    -0.135 NA
HETATM   11  N   UNL     1     -40.260  52.720 -50.360  1.00  0.00    -0.133 NA
ENDROOT
BRANCH   6  12
HETATM   12  C   UNL     1     -42.829  54.390 -55.502  1.00  0.00     0.280 C 
BRANCH  12  13
HETATM   13  C   UNL     1     -42.953  55.566 -56.432  1.00  0.00     0.009 A 
HETATM   14  S   UNL     1     -43.153  57.150 -55.799  1.00  0.00    -0.096 SA
HETATM   15  C   UNL     1     -43.197  57.863 -57.357  1.00  0.00     0.009 A 
HETATM   16  C   UNL     1     -43.051  56.907 -58.343  1.00  0.00     0.017 A 
HETATM   17  C   UNL     1     -42.898  55.588 -57.812  1.00  0.00     0.017 A 
BRANCH  15  18
HETATM   18  C   UNL     1     -43.395  59.346 -57.514  1.00  0.00     0.280 C 
BRANCH  18  19
HETATM   19  N   UNL     1     -42.348  60.014 -58.382  1.00  0.00    -0.067 N 
HETATM   20  H   UNL     1     -41.592  59.328 -58.506  1.00  0.00     0.280 HD
HETATM   21  C   UNL     1     -42.869  60.378 -59.755  1.00  0.00     0.235 C 
HETATM   22  C   UNL     1     -41.737  60.947 -60.599  1.00  0.00     0.028 C 
HETATM   23  C   UNL     1     -41.076  62.142 -59.924  1.00  0.00     0.003 C 
HETATM   24  C   UNL     1     -40.612  61.787 -58.517  1.00  0.00     0.028 C 
HETATM   25  C   UNL     1     -41.746  61.215 -57.679  1.00  0.00     0.235 C 
ENDBRANCH  18  19
ENDBRANCH  15  18
ENDBRANCH  12  13
ENDBRANCH   6  12
BRANCH   1  26
HETATM   26  C   UNL     1     -41.255  54.970 -49.873  1.00  0.00     0.152 C 
HETATM   27  C   UNL     1     -40.982  54.657 -48.403  1.00  0.00     0.040 C 
BRANCH  26  28
HETATM   28  N   UNL     1     -40.666  56.235 -50.255  1.00  0.00    -0.349 N 
HETATM   29  C   UNL     1     -41.465  57.318 -50.547  1.00  0.00     0.222 C 
HETATM   30  O   UNL     1     -42.681  57.202 -50.666  1.00  0.00    -0.273 OA
HETATM   31  H   UNL     1     -39.692  56.387 -50.007  1.00  0.00     0.163 HD
BRANCH  29  32
HETATM   32  C   UNL     1     -40.713  58.639 -50.696  1.00  0.00     0.082 C 
HETATM   33  C   UNL     1     -39.790  58.628 -51.918  1.00  0.00     0.040 C 
HETATM   34  C   UNL     1     -40.581  58.794 -53.210  1.00  0.00     0.168 C 
HETATM   35  O   UNL     1     -41.363  59.983 -53.165  1.00  0.00    -0.391 OA
HETATM   36  C   UNL     1     -42.340  59.954 -52.127  1.00  0.00     0.168 C 
HETATM   37  C   UNL     1     -41.674  59.832 -50.761  1.00  0.00     0.040 C 
ENDBRANCH  29  32
ENDBRANCH  26  28
ENDBRANCH   1  26
TORSDOF 7
ENDMDL
MODEL 2
REMARK VINA RESULT:      -8.0      3.023      8.450
REMARK  7 active torsions:
REMARK  status: ('A' for Active; 'I' for Inactive)
REMARK    1  A    between atoms: C_2  and  N_3 
REMARK    2  A    between atoms: C_2  and  C_12 
REMARK       I    between atoms: N_3  and  C_4 
REMARK    3  A    between atoms: C_4  and  C_5 
REMARK    4  A    between atoms: N_17  and  C_19 
REMARK    5  A    between atoms: C_19  and  C_20 
REMARK    6  A    between atoms: C_22  and  C_23 
REMARK    7  A    between atoms: C_23  and  N_24 
ROOT
HETATM    1  C   UNL     1     -43.066  56.737 -55.110  1.00  0.00     0.152 A 
HETATM    2  N   UNL     1     -42.979  57.535 -53.990  1.00  0.00    -0.317 N 
HETATM    3  C   UNL     1     -44.256  57.627 -53.495  1.00  0.00     0.131 A 
HETATM    4  C   UNL     1     -44.658  58.242 -52.205  1.00  0.00     0.108 C 
HETATM    5  C   UNL     1     -43.780  57.728 -51.071  1.00  0.00     0.243 C 
HETATM    6  N   UNL     1     -42.435  58.449 -50.975  1.00  0.00    -0.065 N 
HETATM    7  H   UNL     1     -42.610  59.261 -50.367  1.00  0.00     0.280 HD
HETATM    8  C   UNL     1     -41.900  59.056 -52.272  1.00  0.00     0.255 C 
HETATM    9  C   UNL     1     -41.757  58.067 -53.430  1.00  0.00     0.159 C 
HETATM   10  N   UNL     1     -45.070  56.987 -54.300  1.00  0.00    -0.135 NA
HETATM   11  N   UNL     1     -44.333  56.436 -55.308  1.00  0.00    -0.133 NA
ENDROOT
BRANCH   6  12
HETATM   12  C   UNL     1     -41.382  57.628 -50.238  1.00  0.00     0.280 C 
BRANCH  12  13
HETATM   13  C   UNL     1     -41.475  56.145 -50.477  1.00  0.00     0.009 A 
HETATM   14  S   UNL     1     -40.192  55.111 -49.992  1.00  0.00    -0.096 SA
HETATM   15  C   UNL     1     -40.997  53.704 -50.550  1.00  0.00     0.009 A 
HETATM   16  C   UNL     1     -42.230  54.020 -51.089  1.00  0.00     0.017 A 
HETATM   17  C   UNL     1     -42.510  55.421 -51.035  1.00  0.00     0.017 A 
BRANCH  15  18
HETATM   18  C   UNL     1     -40.344  52.354 -50.437  1.00  0.00     0.280 C 
BRANCH  18  19
HETATM   19  N   UNL     1     -40.389  51.544 -51.718  1.00  0.00    -0.067 N 
HETATM   20  H   UNL     1     -41.357  51.215 -51.819  1.00  0.00     0.280 HD
HETATM   21  C   UNL     1     -40.051  52.365 -52.943  1.00  0.00     0.235 C 
HETATM   22  C   UNL     1     -40.217  51.511 -54.193  1.00  0.00     0.028 C 
HETATM   23  C   UNL     1     -39.375  50.243 -54.127  1.00  0.00     0.003 C 
HETATM   24  C   UNL     1     -39.674  49.455 -52.858  1.00  0.00     0.028 C 
HETATM   25  C   UNL     1     -39.510  50.314 -51.611  1.00  0.00     0.235 C 
ENDBRANCH  18  19
ENDBRANCH  15  18
ENDBRANCH  12  13
ENDBRANCH   6  12
BRANCH   1  26
HETATM   26  C   UNL     1     -41.908  56.250 -55.924  1.00  0.00     0.152 C 
HETATM   27  C   UNL     1     -41.369  54.936 -55.360  1.00  0.00     0.040 C 
BRANCH  26  28
HETATM   28  N   UNL     1     -42.348  56.088 -57.292  1.00  0.00    -0.349 N 
HETATM   29  C   UNL     1     -42.280  57.141 -58.177  1.00  0.00     0.222 C 
HETATM   30  O   UNL     1     -42.018  58.279 -57.798  1.00  0.00    -0.273 OA
HETATM   31  H   UNL     1     -42.409  55.139 -57.651  1.00  0.00     0.163 HD
BRANCH  29  32
HETATM   32  C   UNL     1     -42.547  56.764 -59.633  1.00  0.00     0.082 C 
HETATM   33  C   UNL     1     -43.598  55.655 -59.745  1.00  0.00     0.040 C 
HETATM   34  C   UNL     1     -45.001  56.197 -59.502  1.00  0.00     0.168 C 
HETATM   35  O   UNL     1     -45.284  57.266 -60.397  1.00  0.00    -0.391 OA
HETATM   36  C   UNL     1     -44.413  58.381 -60.208  1.00  0.00     0.168 C 
HETATM   37  C   UNL     1     -42.964  57.983 -60.464  1.00  0.00     0.040 C 
ENDBRANCH  29  32
ENDBRANCH  26  28
ENDBRANCH   1  26
TORSDOF 7
ENDMDL
MODEL 3
REMARK VINA RESULT:      -8.0      3.753      7.516
REMARK  7 active torsions:
REMARK  status: ('A' for Active; 'I' for Inactive)
REMARK    1  A    between atoms: C_2  and  N_3 
REMARK    2  A    between atoms: C_2  and  C_12 
REMARK       I    between atoms: N_3  and  C_4 
REMARK    3  A    between atoms: C_4  and  C_5 
REMARK    4  A    between atoms: N_17  and  C_19 
REMARK    5  A    between atoms: C_19  and  C_20 
REMARK    6  A    between atoms: C_22  and  C_23 
REMARK    7  A    between atoms: C_23  and  N_24 
ROOT
HETATM    1  C   UNL     1     -42.649  60.188 -50.731  1.00  0.00     0.152 A 
HETATM    2  N   UNL     1     -42.168  59.994 -52.009  1.00  0.00    -0.317 N 
HETATM    3  C   UNL     1     -40.904  59.481 -51.859  1.00  0.00     0.131 A 
HETATM    4  C   UNL     1     -40.036  58.951 -52.941  1.00  0.00     0.108 C 
HETATM    5  C   UNL     1     -40.810  57.973 -53.816  1.00  0.00     0.243 C 
HETATM    6  N   UNL     1     -41.674  58.663 -54.872  1.00  0.00    -0.065 N 
HETATM    7  H   UNL     1     -41.056  58.782 -55.687  1.00  0.00     0.280 HD
HETATM    8  C   UNL     1     -42.142  60.080 -54.542  1.00  0.00     0.255 C 
HETATM    9  C   UNL     1     -42.914  60.209 -53.228  1.00  0.00     0.159 C 
HETATM   10  N   UNL     1     -40.613  59.435 -50.581  1.00  0.00    -0.135 NA
HETATM   11  N   UNL     1     -41.695  59.878 -49.877  1.00  0.00    -0.133 NA
ENDROOT
BRANCH   6  12
HETATM   12  C   UNL     1     -42.810  57.775 -55.369  1.00  0.00     0.280 C 
BRANCH  12  13
HETATM   13  C   UNL     1     -42.901  56.442 -54.678  1.00  0.00     0.009 A 
HETATM   14  S   UNL     1     -43.303  56.362 -53.009  1.00  0.00    -0.096 SA
HETATM   15  C   UNL     1     -43.224  54.650 -52.982  1.00  0.00     0.009 A 
HETATM   16  C   UNL     1     -42.906  54.149 -54.230  1.00  0.00     0.017 A 
HETATM   17  C   UNL     1     -42.734  55.177 -55.207  1.00  0.00     0.017 A 
BRANCH  15  18
HETATM   18  C   UNL     1     -43.466  53.894 -51.704  1.00  0.00     0.280 C 
BRANCH  18  19
HETATM   19  N   UNL     1     -42.226  53.721 -50.851  1.00  0.00    -0.067 N 
HETATM   20  H   UNL     1     -42.345  52.837 -50.341  1.00  0.00     0.280 HD
HETATM   21  C   UNL     1     -40.960  53.611 -51.673  1.00  0.00     0.235 C 
HETATM   22  C   UNL     1     -39.776  53.338 -50.755  1.00  0.00     0.028 C 
HETATM   23  C   UNL     1     -39.642  54.401 -49.673  1.00  0.00     0.003 C 
HETATM   24  C   UNL     1     -40.942  54.551 -48.892  1.00  0.00     0.028 C 
HETATM   25  C   UNL     1     -42.123  54.822 -49.814  1.00  0.00     0.235 C 
ENDBRANCH  18  19
ENDBRANCH  15  18
ENDBRANCH  12  13
ENDBRANCH   6  12
BRANCH   1  26
HETATM   26  C   UNL     1     -44.038  60.620 -50.380  1.00  0.00     0.152 C 
HETATM   27  C   UNL     1     -45.032  59.486 -50.625  1.00  0.00     0.040 C 
BRANCH  26  28
HETATM   28  N   UNL     1     -44.050  61.034 -48.994  1.00  0.00    -0.349 N 
HETATM   29  C   UNL     1     -44.696  62.190 -48.616  1.00  0.00     0.222 C 
HETATM   30  O   UNL     1     -45.121  62.987 -49.446  1.00  0.00    -0.273 OA
HETATM   31  H   UNL     1     -43.852  60.322 -48.295  1.00  0.00     0.163 HD
BRANCH  29  32
HETATM   32  C   UNL     1     -44.834  62.373 -47.105  1.00  0.00     0.082 C 
HETATM   33  C   UNL     1     -46.090  63.174 -46.747  1.00  0.00     0.040 C 
HETATM   34  C   UNL     1     -47.346  62.322 -46.879  1.00  0.00     0.168 C 
HETATM   35  O   UNL     1     -47.238  61.149 -46.080  1.00  0.00    -0.391 OA
HETATM   36  C   UNL     1     -46.166  60.304 -46.495  1.00  0.00     0.168 C 
HETATM   37  C   UNL     1     -44.830  61.028 -46.370  1.00  0.00     0.040 C 
ENDBRANCH  29  32
ENDBRANCH  26  28
ENDBRANCH   1  26
TORSDOF 7
ENDMDL
MODEL 4
REMARK VINA RESULT:      -7.9      3.143      5.229
REMARK  7 active torsions:
REMARK  status: ('A' for Active; 'I' for Inactive)
REMARK    1  A    between atoms: C_2  and  N_3 
REMARK    2  A    between atoms: C_2  and  C_12 
REMARK       I    between atoms: N_3  and  C_4 
REMARK    3  A    between atoms: C_4  and  C_5 
REMARK    4  A    between atoms: N_17  and  C_19 
REMARK    5  A    between atoms: C_19  and  C_20 
REMARK    6  A    between atoms: C_22  and  C_23 
REMARK    7  A    between atoms: C_23  and  N_24 
ROOT
HETATM    1  C   UNL     1     -43.570  58.301 -51.707  1.00  0.00     0.152 A 
HETATM    2  N   UNL     1     -42.946  57.128 -51.338  1.00  0.00    -0.317 N 
HETATM    3  C   UNL     1     -43.947  56.288 -50.918  1.00  0.00     0.131 A 
HETATM    4  C   UNL     1     -43.803  54.851 -50.575  1.00  0.00     0.108 C 
HETATM    5  C   UNL     1     -43.038  54.115 -51.668  1.00  0.00     0.243 C 
HETATM    6  N   UNL     1     -41.521  54.276 -51.554  1.00  0.00    -0.065 N 
HETATM    7  H   UNL     1     -41.218  53.511 -50.935  1.00  0.00     0.280 HD
HETATM    8  C   UNL     1     -41.026  55.544 -50.859  1.00  0.00     0.255 C 
HETATM    9  C   UNL     1     -41.535  56.850 -51.474  1.00  0.00     0.159 C 
HETATM   10  N   UNL     1     -45.089  56.933 -50.963  1.00  0.00    -0.135 NA
HETATM   11  N   UNL     1     -44.857  58.186 -51.449  1.00  0.00    -0.133 NA
ENDROOT
BRANCH   6  12
HETATM   12  C   UNL     1     -40.805  54.017 -52.876  1.00  0.00     0.280 C 
BRANCH  12  13
HETATM   13  C   UNL     1     -41.608  54.378 -54.095  1.00  0.00     0.009 A 
HETATM   14  S   UNL     1     -41.366  55.891 -54.871  1.00  0.00    -0.096 SA
HETATM   15  C   UNL     1     -42.542  55.562 -56.075  1.00  0.00     0.009 A 
HETATM   16  C   UNL     1     -43.101  54.313 -55.892  1.00  0.00     0.017 A 
HETATM   17  C   UNL     1     -42.556  53.627 -54.762  1.00  0.00     0.017 A 
BRANCH  15  18
HETATM   18  C   UNL     1     -42.858  56.583 -57.134  1.00  0.00     0.280 C 
BRANCH  18  19
HETATM   19  N   UNL     1     -44.018  56.196 -58.028  1.00  0.00    -0.067 N 
HETATM   20  H   UNL     1     -44.619  55.575 -57.473  1.00  0.00     0.280 HD
HETATM   21  C   UNL     1     -44.853  57.385 -58.453  1.00  0.00     0.235 C 
HETATM   22  C   UNL     1     -46.052  56.907 -59.260  1.00  0.00     0.028 C 
HETATM   23  C   UNL     1     -45.628  56.072 -60.461  1.00  0.00     0.003 C 
HETATM   24  C   UNL     1     -44.734  54.915 -60.033  1.00  0.00     0.028 C 
HETATM   25  C   UNL     1     -43.538  55.397 -59.224  1.00  0.00     0.235 C 
ENDBRANCH  18  19
ENDBRANCH  15  18
ENDBRANCH  12  13
ENDBRANCH   6  12
BRANCH   1  26
HETATM   26  C   UNL     1     -42.903  59.478 -52.348  1.00  0.00     0.152 C 
HETATM   27  C   UNL     1     -42.849  59.306 -53.864  1.00  0.00     0.040 C 
BRANCH  26  28
HETATM   28  N   UNL     1     -43.635  60.671 -51.983  1.00  0.00    -0.349 N 
HETATM   29  C   UNL     1     -43.192  61.476 -50.956  1.00  0.00     0.222 C 
HETATM   30  O   UNL     1     -42.283  61.122 -50.212  1.00  0.00    -0.273 OA
HETATM   31  H   UNL     1     -44.275  61.053 -52.674  1.00  0.00     0.163 HD
BRANCH  29  32
HETATM   32  C   UNL     1     -43.919  62.815 -50.843  1.00  0.00     0.082 C 
HETATM   33  C   UNL     1     -45.390  62.695 -51.251  1.00  0.00     0.040 C 
HETATM   34  C   UNL     1     -46.213  62.019 -50.162  1.00  0.00     0.168 C 
HETATM   35  O   UNL     1     -46.076  62.717 -48.929  1.00  0.00    -0.391 OA
HETATM   36  C   UNL     1     -44.735  62.710 -48.445  1.00  0.00     0.168 C 
HETATM   37  C   UNL     1     -43.801  63.402 -49.431  1.00  0.00     0.040 C 
ENDBRANCH  29  32
ENDBRANCH  26  28
ENDBRANCH   1  26
TORSDOF 7
ENDMDL
MODEL 5
REMARK VINA RESULT:      -7.9      3.091      8.928
REMARK  7 active torsions:
REMARK  status: ('A' for Active; 'I' for Inactive)
REMARK    1  A    between atoms: C_2  and  N_3 
REMARK    2  A    between atoms: C_2  and  C_12 
REMARK       I    between atoms: N_3  and  C_4 
REMARK    3  A    between atoms: C_4  and  C_5 
REMARK    4  A    between atoms: N_17  and  C_19 
REMARK    5  A    between atoms: C_19  and  C_20 
REMARK    6  A    between atoms: C_22  and  C_23 
REMARK    7  A    between atoms: C_23  and  N_24 
ROOT
HETATM    1  C   UNL     1     -44.036  59.015 -55.026  1.00  0.00     0.152 A 
HETATM    2  N   UNL     1     -43.059  58.762 -54.086  1.00  0.00    -0.317 N 
HETATM    3  C   UNL     1     -42.868  59.946 -53.417  1.00  0.00     0.131 A 
HETATM    4  C   UNL     1     -42.036  60.146 -52.205  1.00  0.00     0.108 C 
HETATM    5  C   UNL     1     -42.360  59.092 -51.154  1.00  0.00     0.243 C 
HETATM    6  N   UNL     1     -41.651  57.759 -51.398  1.00  0.00    -0.065 N 
HETATM    7  H   UNL     1     -40.744  57.847 -50.918  1.00  0.00     0.280 HD
HETATM    8  C   UNL     1     -41.281  57.446 -52.847  1.00  0.00     0.255 C 
HETATM    9  C   UNL     1     -42.456  57.475 -53.828  1.00  0.00     0.159 C 
HETATM   10  N   UNL     1     -43.625  60.868 -53.962  1.00  0.00    -0.135 NA
HETATM   11  N   UNL     1     -44.350  60.293 -54.965  1.00  0.00    -0.133 NA
ENDROOT
BRANCH   6  12
HETATM   12  C   UNL     1     -42.348  56.591 -50.708  1.00  0.00     0.280 C 
BRANCH  12  13
HETATM   13  C   UNL     1     -41.455  55.412 -50.435  1.00  0.00     0.009 A 
HETATM   14  S   UNL     1     -41.927  53.838 -50.935  1.00  0.00    -0.096 SA
HETATM   15  C   UNL     1     -40.497  53.118 -50.323  1.00  0.00     0.009 A 
HETATM   16  C   UNL     1     -39.669  54.067 -49.756  1.00  0.00     0.017 A 
HETATM   17  C   UNL     1     -40.213  55.387 -49.831  1.00  0.00     0.017 A 
BRANCH  15  18
HETATM   18  C   UNL     1     -40.284  51.633 -50.426  1.00  0.00     0.280 C 
BRANCH  18  19
HETATM   19  N   UNL     1     -39.716  51.187 -51.758  1.00  0.00    -0.067 N 
HETATM   20  H   UNL     1     -38.717  51.425 -51.742  1.00  0.00     0.280 HD
HETATM   21  C   UNL     1     -39.831  49.694 -51.975  1.00  0.00     0.235 C 
HETATM   22  C   UNL     1     -39.150  49.312 -53.282  1.00  0.00     0.028 C 
HETATM   23  C   UNL     1     -39.719  50.088 -54.463  1.00  0.00     0.003 C 
HETATM   24  C   UNL     1     -39.660  51.589 -54.210  1.00  0.00     0.028 C 
HETATM   25  C   UNL     1     -40.339  51.966 -52.901  1.00  0.00     0.235 C 
ENDBRANCH  18  19
ENDBRANCH  15  18
ENDBRANCH  12  13
ENDBRANCH   6  12
BRANCH   1  26
HETATM   26  C   UNL     1     -44.671  57.994 -55.918  1.00  0.00     0.152 C 
HETATM   27  C   UNL     1     -46.172  58.249 -56.044  1.00  0.00     0.040 C 
BRANCH  26  28
HETATM   28  N   UNL     1     -44.022  58.051 -57.209  1.00  0.00    -0.349 N 
HETATM   29  C   UNL     1     -43.320  56.966 -57.686  1.00  0.00     0.222 C 
HETATM   30  O   UNL     1     -43.074  55.999 -56.972  1.00  0.00    -0.273 OA
HETATM   31  H   UNL     1     -44.346  58.761 -57.861  1.00  0.00     0.163 HD
BRANCH  29  32
HETATM   32  C   UNL     1     -42.898  57.079 -59.150  1.00  0.00     0.082 C 
HETATM   33  C   UNL     1     -42.760  55.701 -59.805  1.00  0.00     0.040 C 
HETATM   34  C   UNL     1     -44.124  55.099 -60.120  1.00  0.00     0.168 C 
HETATM   35  O   UNL     1     -44.882  55.984 -60.937  1.00  0.00    -0.391 OA
HETATM   36  C   UNL     1     -45.159  57.224 -60.287  1.00  0.00     0.168 C 
HETATM   37  C   UNL     1     -43.866  57.957 -59.951  1.00  0.00     0.040 C 
ENDBRANCH  29  32
ENDBRANCH  26  28
ENDBRANCH   1  26
TORSDOF 7
ENDMDL
MODEL 6
REMARK VINA RESULT:      -7.8      1.464      2.196
REMARK  7 active torsions:
REMARK  status: ('A' for Active; 'I' for Inactive)
REMARK    1  A    between atoms: C_2  and  N_3 
REMARK    2  A    between atoms: C_2  and  C_12 
REMARK       I    between atoms: N_3  and  C_4 
REMARK    3  A    between atoms: C_4  and  C_5 
REMARK    4  A    between atoms: N_17  and  C_19 
REMARK    5  A    between atoms: C_19  and  C_20 
REMARK    6  A    between atoms: C_22  and  C_23 
REMARK    7  A    between atoms: C_23  and  N_24 
ROOT
HETATM    1  C   UNL     1     -40.677  53.921 -50.779  1.00  0.00     0.152 A 
HETATM    2  N   UNL     1     -40.584  53.984 -52.153  1.00  0.00    -0.317 N 
HETATM    3  C   UNL     1     -40.139  52.749 -52.555  1.00  0.00     0.131 A 
HETATM    4  C   UNL     1     -40.035  52.264 -53.954  1.00  0.00     0.108 C 
HETATM    5  C   UNL     1     -41.329  52.536 -54.711  1.00  0.00     0.243 C 
HETATM    6  N   UNL     1     -41.432  53.969 -55.235  1.00  0.00    -0.065 N 
HETATM    7  H   UNL     1     -40.985  53.947 -56.162  1.00  0.00     0.280 HD
HETATM    8  C   UNL     1     -40.647  55.028 -54.462  1.00  0.00     0.255 C 
HETATM    9  C   UNL     1     -40.978  55.109 -52.970  1.00  0.00     0.159 C 
HETATM   10  N   UNL     1     -39.911  52.013 -51.493  1.00  0.00    -0.135 NA
HETATM   11  N   UNL     1     -40.241  52.742 -50.387  1.00  0.00    -0.133 NA
ENDROOT
BRANCH   6  12
HETATM   12  C   UNL     1     -42.872  54.391 -55.504  1.00  0.00     0.280 C 
BRANCH  12  13
HETATM   13  C   UNL     1     -43.016  55.486 -56.526  1.00  0.00     0.009 A 
HETATM   14  S   UNL     1     -43.302  57.103 -56.023  1.00  0.00    -0.096 SA
HETATM   15  C   UNL     1     -43.327  57.693 -57.633  1.00  0.00     0.009 A 
HETATM   16  C   UNL     1     -43.110  56.671 -58.537  1.00  0.00     0.017 A 
HETATM   17  C   UNL     1     -42.919  55.405 -57.901  1.00  0.00     0.017 A 
BRANCH  15  18
HETATM   18  C   UNL     1     -43.582  59.149 -57.910  1.00  0.00     0.280 C 
BRANCH  18  19
HETATM   19  N   UNL     1     -44.917  59.420 -58.574  1.00  0.00    -0.067 N 
HETATM   20  H   UNL     1     -45.153  60.398 -58.362  1.00  0.00     0.280 HD
HETATM   21  C   UNL     1     -44.864  59.275 -60.079  1.00  0.00     0.235 C 
HETATM   22  C   UNL     1     -46.208  59.662 -60.679  1.00  0.00     0.028 C 
HETATM   23  C   UNL     1     -47.348  58.845 -60.084  1.00  0.00     0.003 C 
HETATM   24  C   UNL     1     -47.355  58.943 -58.564  1.00  0.00     0.028 C 
HETATM   25  C   UNL     1     -46.008  58.559 -57.969  1.00  0.00     0.235 C 
ENDBRANCH  18  19
ENDBRANCH  15  18
ENDBRANCH  12  13
ENDBRANCH   6  12
BRANCH   1  26
HETATM   26  C   UNL     1     -41.237  54.991 -49.894  1.00  0.00     0.152 C 
HETATM   27  C   UNL     1     -40.982  54.662 -48.425  1.00  0.00     0.040 C 
BRANCH  26  28
HETATM   28  N   UNL     1     -40.626  56.250 -50.261  1.00  0.00    -0.349 N 
HETATM   29  C   UNL     1     -41.408  57.336 -50.587  1.00  0.00     0.222 C 
HETATM   30  O   UNL     1     -42.619  57.227 -50.751  1.00  0.00    -0.273 OA
HETATM   31  H   UNL     1     -39.661  56.398 -49.978  1.00  0.00     0.163 HD
BRANCH  29  32
HETATM   32  C   UNL     1     -40.642  58.652 -50.715  1.00  0.00     0.082 C 
HETATM   33  C   UNL     1     -39.858  58.723 -52.029  1.00  0.00     0.040 C 
HETATM   34  C   UNL     1     -40.780  59.006 -53.208  1.00  0.00     0.168 C 
HETATM   35  O   UNL     1     -41.521  60.200 -52.986  1.00  0.00    -0.391 OA
HETATM   36  C   UNL     1     -42.381  60.105 -51.851  1.00  0.00     0.168 C 
HETATM   37  C   UNL     1     -41.574  59.862 -50.581  1.00  0.00     0.040 C 
ENDBRANCH  29  32
ENDBRANCH  26  28
ENDBRANCH   1  26
TORSDOF 7
ENDMDL
MODEL 7
REMARK VINA RESULT:      -7.6      2.983      9.064
REMARK  7 active torsions:
REMARK  status: ('A' for Active; 'I' for Inactive)
REMARK    1  A    between atoms: C_2  and  N_3 
REMARK    2  A    between atoms: C_2  and  C_12 
REMARK       I    between atoms: N_3  and  C_4 
REMARK    3  A    between atoms: C_4  and  C_5 
REMARK    4  A    between atoms: N_17  and  C_19 
REMARK    5  A    between atoms: C_19  and  C_20 
REMARK    6  A    between atoms: C_22  and  C_23 
REMARK    7  A    between atoms: C_23  and  N_24 
ROOT
HETATM    1  C   UNL     1     -44.681  60.506 -56.144  1.00  0.00     0.152 A 
HETATM    2  N   UNL     1     -43.774  60.538 -55.106  1.00  0.00    -0.317 N 
HETATM    3  C   UNL     1     -43.683  61.855 -54.729  1.00  0.00     0.131 A 
HETATM    4  C   UNL     1     -42.960  62.383 -53.545  1.00  0.00     0.108 C 
HETATM    5  C   UNL     1     -43.328  61.590 -52.297  1.00  0.00     0.243 C 
HETATM    6  N   UNL     1     -42.551  60.280 -52.164  1.00  0.00    -0.065 N 
HETATM    7  H   UNL     1     -41.691  60.529 -51.657  1.00  0.00     0.280 HD
HETATM    8  C   UNL     1     -42.054  59.654 -53.466  1.00  0.00     0.255 C 
HETATM    9  C   UNL     1     -43.146  59.384 -54.504  1.00  0.00     0.159 C 
HETATM   10  N   UNL     1     -44.428  62.578 -55.530  1.00  0.00    -0.135 NA
HETATM   11  N   UNL     1     -45.046  61.742 -56.414  1.00  0.00    -0.133 NA
ENDROOT
BRANCH   6  12
HETATM   12  C   UNL     1     -43.257  59.271 -51.264  1.00  0.00     0.280 C 
BRANCH  12  13
HETATM   13  C   UNL     1     -42.473  58.013 -51.010  1.00  0.00     0.009 A 
HETATM   14  S   UNL     1     -43.193  56.477 -51.280  1.00  0.00    -0.096 SA
HETATM   15  C   UNL     1     -41.775  55.632 -50.815  1.00  0.00     0.009 A 
HETATM   16  C   UNL     1     -40.766  56.510 -50.469  1.00  0.00     0.017 A 
HETATM   17  C   UNL     1     -41.162  57.878 -50.593  1.00  0.00     0.017 A 
BRANCH  15  18
HETATM   18  C   UNL     1     -41.752  54.128 -50.802  1.00  0.00     0.280 C 
BRANCH  18  19
HETATM   19  N   UNL     1     -40.825  53.523 -51.837  1.00  0.00    -0.067 N 
HETATM   20  H   UNL     1     -40.019  54.156 -51.911  1.00  0.00     0.280 HD
HETATM   21  C   UNL     1     -40.305  52.161 -51.433  1.00  0.00     0.235 C 
HETATM   22  C   UNL     1     -39.305  51.665 -52.469  1.00  0.00     0.028 C 
HETATM   23  C   UNL     1     -39.910  51.634 -53.867  1.00  0.00     0.003 C 
HETATM   24  C   UNL     1     -40.490  52.992 -54.241  1.00  0.00     0.028 C 
HETATM   25  C   UNL     1     -41.486  53.484 -53.200  1.00  0.00     0.235 C 
ENDBRANCH  18  19
ENDBRANCH  15  18
ENDBRANCH  12  13
ENDBRANCH   6  12
BRANCH   1  26
HETATM   26  C   UNL     1     -45.203  59.269 -56.806  1.00  0.00     0.152 C 
HETATM   27  C   UNL     1     -46.601  59.510 -57.371  1.00  0.00     0.040 C 
BRANCH  26  28
HETATM   28  N   UNL     1     -44.277  58.887 -57.851  1.00  0.00    -0.349 N 
HETATM   29  C   UNL     1     -43.677  57.648 -57.832  1.00  0.00     0.222 C 
HETATM   30  O   UNL     1     -43.764  56.909 -56.856  1.00  0.00    -0.273 OA
HETATM   31  H   UNL     1     -44.322  59.406 -58.723  1.00  0.00     0.163 HD
BRANCH  29  32
HETATM   32  C   UNL     1     -42.921  57.291 -59.111  1.00  0.00     0.082 C 
HETATM   33  C   UNL     1     -42.680  55.782 -59.222  1.00  0.00     0.040 C 
HETATM   34  C   UNL     1     -43.952  55.047 -59.626  1.00  0.00     0.168 C 
HETATM   35  O   UNL     1     -44.468  55.577 -60.842  1.00  0.00    -0.391 OA
HETATM   36  C   UNL     1     -44.848  56.947 -60.722  1.00  0.00     0.168 C 
HETATM   37  C   UNL     1     -43.645  57.810 -60.358  1.00  0.00     0.040 C 
ENDBRANCH  29  32
ENDBRANCH  26  28
ENDBRANCH   1  26
TORSDOF 7
ENDMDL
MODEL 8
REMARK VINA RESULT:      -7.6      3.484      9.343
REMARK  7 active torsions:
REMARK  status: ('A' for Active; 'I' for Inactive)
REMARK    1  A    between atoms: C_2  and  N_3 
REMARK    2  A    between atoms: C_2  and  C_12 
REMARK       I    between atoms: N_3  and  C_4 
REMARK    3  A    between atoms: C_4  and  C_5 
REMARK    4  A    between atoms: N_17  and  C_19 
REMARK    5  A    between atoms: C_19  and  C_20 
REMARK    6  A    between atoms: C_22  and  C_23 
REMARK    7  A    between atoms: C_23  and  N_24 
ROOT
HETATM    1  C   UNL     1     -45.120  60.097 -56.431  1.00  0.00     0.152 A 
HETATM    2  N   UNL     1     -44.139  59.449 -55.710  1.00  0.00    -0.317 N 
HETATM    3  C   UNL     1     -43.524  60.419 -54.959  1.00  0.00     0.131 A 
HETATM    4  C   UNL     1     -42.511  60.198 -53.896  1.00  0.00     0.108 C 
HETATM    5  C   UNL     1     -42.980  59.120 -52.927  1.00  0.00     0.243 C 
HETATM    6  N   UNL     1     -42.728  57.700 -53.437  1.00  0.00    -0.065 N 
HETATM    7  H   UNL     1     -41.778  57.466 -53.116  1.00  0.00     0.280 HD
HETATM    8  C   UNL     1     -42.667  57.528 -54.954  1.00  0.00     0.255 C 
HETATM    9  C   UNL     1     -43.906  58.023 -55.705  1.00  0.00     0.159 C 
HETATM   10  N   UNL     1     -44.048  61.584 -55.258  1.00  0.00    -0.135 NA
HETATM   11  N   UNL     1     -45.039  61.386 -56.176  1.00  0.00    -0.133 NA
ENDROOT
BRANCH   6  12
HETATM   12  C   UNL     1     -43.633  56.670 -52.769  1.00  0.00     0.280 C 
BRANCH  12  13
HETATM   13  C   UNL     1     -42.896  55.540 -52.102  1.00  0.00     0.009 A 
HETATM   14  S   UNL     1     -41.179  55.504 -52.114  1.00  0.00    -0.096 SA
HETATM   15  C   UNL     1     -41.116  54.043 -51.219  1.00  0.00     0.009 A 
HETATM   16  C   UNL     1     -42.386  53.597 -50.909  1.00  0.00     0.017 A 
HETATM   17  C   UNL     1     -43.409  54.464 -51.405  1.00  0.00     0.017 A 
BRANCH  15  18
HETATM   18  C   UNL     1     -39.794  53.406 -50.889  1.00  0.00     0.280 C 
BRANCH  18  19
HETATM   19  N   UNL     1     -39.483  52.177 -51.720  1.00  0.00    -0.067 N 
HETATM   20  H   UNL     1     -38.463  52.158 -51.839  1.00  0.00     0.280 HD
HETATM   21  C   UNL     1     -39.891  50.889 -51.039  1.00  0.00     0.235 C 
HETATM   22  C   UNL     1     -39.455  49.701 -51.885  1.00  0.00     0.028 C 
HETATM   23  C   UNL     1     -40.014  49.780 -53.300  1.00  0.00     0.003 C 
HETATM   24  C   UNL     1     -39.655  51.107 -53.956  1.00  0.00     0.028 C 
HETATM   25  C   UNL     1     -40.090  52.292 -53.104  1.00  0.00     0.235 C 
ENDBRANCH  18  19
ENDBRANCH  15  18
ENDBRANCH  12  13
ENDBRANCH   6  12
BRANCH   1  26
HETATM   26  C   UNL     1     -46.139  59.435 -57.305  1.00  0.00     0.152 C 
HETATM   27  C   UNL     1     -47.187  60.445 -57.769  1.00  0.00     0.040 C 
BRANCH  26  28
HETATM   28  N   UNL     1     -45.455  58.837 -58.430  1.00  0.00    -0.349 N 
HETATM   29  C   UNL     1     -45.994  57.747 -59.076  1.00  0.00     0.222 C 
HETATM   30  O   UNL     1     -46.960  57.145 -58.619  1.00  0.00    -0.273 OA
HETATM   31  H   UNL     1     -44.762  59.407 -58.908  1.00  0.00     0.163 HD
BRANCH  29  32
HETATM   32  C   UNL     1     -45.295  57.376 -60.383  1.00  0.00     0.082 C 
HETATM   33  C   UNL     1     -43.808  57.740 -60.351  1.00  0.00     0.040 C 
HETATM   34  C   UNL     1     -43.014  56.752 -59.506  1.00  0.00     0.168 C 
HETATM   35  O   UNL     1     -43.209  55.424 -59.979  1.00  0.00    -0.391 OA
HETATM   36  C   UNL     1     -44.567  55.001 -59.875  1.00  0.00     0.168 C 
HETATM   37  C   UNL     1     -45.475  55.890 -60.717  1.00  0.00     0.040 C 
ENDBRANCH  29  32
ENDBRANCH  26  28
ENDBRANCH   1  26
TORSDOF 7
ENDMDL
MODEL 9
REMARK VINA RESULT:      -7.4      2.801      7.812
REMARK  7 active torsions:
REMARK  status: ('A' for Active; 'I' for Inactive)
REMARK    1  A    between atoms: C_2  and  N_3 
REMARK    2  A    between atoms: C_2  and  C_12 
REMARK       I    between atoms: N_3  and  C_4 
REMARK    3  A    between atoms: C_4  and  C_5 
REMARK    4  A    between atoms: N_17  and  C_19 
REMARK    5  A    between atoms: C_19  and  C_20 
REMARK    6  A    between atoms: C_22  and  C_23 
REMARK    7  A    between atoms: C_23  and  N_24 
ROOT
HETATM    1  C   UNL     1     -42.592  57.381 -58.201  1.00  0.00     0.152 A 
HETATM    2  N   UNL     1     -42.402  58.700 -57.849  1.00  0.00    -0.317 N 
HETATM    3  C   UNL     1     -42.214  59.379 -59.027  1.00  0.00     0.131 A 
HETATM    4  C   UNL     1     -42.133  60.852 -59.190  1.00  0.00     0.108 C 
HETATM    5  C   UNL     1     -43.286  61.535 -58.465  1.00  0.00     0.243 C 
HETATM    6  N   UNL     1     -43.040  61.705 -56.965  1.00  0.00    -0.065 N 
HETATM    7  H   UNL     1     -42.552  62.607 -56.876  1.00  0.00     0.280 HD
HETATM    8  C   UNL     1     -42.091  60.697 -56.318  1.00  0.00     0.255 C 
HETATM    9  C   UNL     1     -42.489  59.231 -56.507  1.00  0.00     0.159 C 
HETATM   10  N   UNL     1     -42.219  58.519 -60.018  1.00  0.00    -0.135 NA
HETATM   11  N   UNL     1     -42.450  57.275 -59.506  1.00  0.00    -0.133 NA
ENDROOT
BRANCH   6  12
HETATM   12  C   UNL     1     -44.333  61.879 -56.176  1.00  0.00     0.280 C 
BRANCH  12  13
HETATM   13  C   UNL     1     -44.147  61.924 -54.684  1.00  0.00     0.009 A 
HETATM   14  S   UNL     1     -44.687  60.617 -53.708  1.00  0.00    -0.096 SA
HETATM   15  C   UNL     1     -44.145  61.359 -52.261  1.00  0.00     0.009 A 
HETATM   16  C   UNL     1     -43.552  62.580 -52.522  1.00  0.00     0.017 A 
HETATM   17  C   UNL     1     -43.541  62.898 -53.915  1.00  0.00     0.017 A 
BRANCH  15  18
HETATM   18  C   UNL     1     -44.358  60.688 -50.932  1.00  0.00     0.280 C 
BRANCH  18  19
HETATM   19  N   UNL     1     -43.252  59.725 -50.549  1.00  0.00    -0.067 N 
HETATM   20  H   UNL     1     -43.470  59.394 -49.601  1.00  0.00     0.280 HD
HETATM   21  C   UNL     1     -43.189  58.515 -51.456  1.00  0.00     0.235 C 
HETATM   22  C   UNL     1     -42.127  57.549 -50.948  1.00  0.00     0.028 C 
HETATM   23  C   UNL     1     -40.765  58.221 -50.827  1.00  0.00     0.003 C 
HETATM   24  C   UNL     1     -40.850  59.475 -49.966  1.00  0.00     0.028 C 
HETATM   25  C   UNL     1     -41.915  60.436 -50.476  1.00  0.00     0.235 C 
ENDBRANCH  18  19
ENDBRANCH  15  18
ENDBRANCH  12  13
ENDBRANCH   6  12
BRANCH   1  26
HETATM   26  C   UNL     1     -42.958  56.273 -57.263  1.00  0.00     0.152 C 
HETATM   27  C   UNL     1     -43.476  55.062 -58.036  1.00  0.00     0.040 C 
BRANCH  26  28
HETATM   28  N   UNL     1     -41.788  55.933 -56.483  1.00  0.00    -0.349 N 
HETATM   29  C   UNL     1     -41.856  55.884 -55.108  1.00  0.00     0.222 C 
HETATM   30  O   UNL     1     -42.839  56.294 -54.500  1.00  0.00    -0.273 OA
HETATM   31  H   UNL     1     -41.036  55.445 -56.962  1.00  0.00     0.163 HD
BRANCH  29  32
HETATM   32  C   UNL     1     -40.624  55.280 -54.434  1.00  0.00     0.082 C 
HETATM   33  C   UNL     1     -40.852  55.062 -52.935  1.00  0.00     0.040 C 
HETATM   34  C   UNL     1     -41.735  53.848 -52.681  1.00  0.00     0.168 C 
HETATM   35  O   UNL     1     -41.177  52.690 -53.291  1.00  0.00    -0.391 OA
HETATM   36  C   UNL     1     -41.097  52.805 -54.710  1.00  0.00     0.168 C 
HETATM   37  C   UNL     1     -40.198  53.970 -55.107  1.00  0.00     0.040 C 
ENDBRANCH  29  32
ENDBRANCH  26  28
ENDBRANCH   1  26
TORSDOF 7
ENDMDL
MODEL 10
REMARK VINA RESULT:      -7.2      2.986      6.241
REMARK  7 active torsions:
REMARK  status: ('A' for Active; 'I' for Inactive)
REMARK    1  A    between atoms: C_2  and  N_3 
REMARK    2  A    between atoms: C_2  and  C_12 
REMARK       I    between atoms: N_3  and  C_4 
REMARK    3  A    between atoms: C_4  and  C_5 
REMARK    4  A    between atoms: N_17  and  C_19 
REMARK    5  A    between atoms: C_19  and  C_20 
REMARK    6  A    between atoms: C_22  and  C_23 
REMARK    7  A    between atoms: C_23  and  N_24 
ROOT
HETATM    1  C   UNL     1     -43.176  59.708 -51.137  1.00  0.00     0.152 A 
HETATM    2  N   UNL     1     -43.989  59.845 -52.242  1.00  0.00    -0.317 N 
HETATM    3  C   UNL     1     -45.113  60.498 -51.801  1.00  0.00     0.131 A 
HETATM    4  C   UNL     1     -46.213  61.024 -52.648  1.00  0.00     0.108 C 
HETATM    5  C   UNL     1     -45.653  61.840 -53.806  1.00  0.00     0.243 C 
HETATM    6  N   UNL     1     -45.186  60.978 -54.980  1.00  0.00    -0.065 N 
HETATM    7  H   UNL     1     -46.021  60.857 -55.571  1.00  0.00     0.280 HD
HETATM    8  C   UNL     1     -44.753  59.552 -54.641  1.00  0.00     0.255 C 
HETATM    9  C   UNL     1     -43.646  59.453 -53.590  1.00  0.00     0.159 C 
HETATM   10  N   UNL     1     -45.017  60.680 -50.505  1.00  0.00    -0.135 NA
HETATM   11  N   UNL     1     -43.815  60.186 -50.089  1.00  0.00    -0.133 NA
ENDROOT
BRANCH   6  12
HETATM   12  C   UNL     1     -44.178  61.699 -55.869  1.00  0.00     0.280 C 
BRANCH  12  13
HETATM   13  C   UNL     1     -43.469  60.805 -56.850  1.00  0.00     0.009 A 
HETATM   14  S   UNL     1     -44.354  60.003 -58.083  1.00  0.00    -0.096 SA
HETATM   15  C   UNL     1     -42.951  59.260 -58.731  1.00  0.00     0.009 A 
HETATM   16  C   UNL     1     -41.824  59.629 -58.021  1.00  0.00     0.017 A 
HETATM   17  C   UNL     1     -42.119  60.526 -56.948  1.00  0.00     0.017 A 
BRANCH  15  18
HETATM   18  C   UNL     1     -43.053  58.330 -59.908  1.00  0.00     0.280 C 
BRANCH  18  19
HETATM   19  N   UNL     1     -43.906  57.105 -59.647  1.00  0.00    -0.067 N 
HETATM   20  H   UNL     1     -44.255  57.193 -58.684  1.00  0.00     0.280 HD
HETATM   21  C   UNL     1     -45.105  57.018 -60.566  1.00  0.00     0.235 C 
HETATM   22  C   UNL     1     -45.964  55.823 -60.176  1.00  0.00     0.028 C 
HETATM   23  C   UNL     1     -45.165  54.526 -60.186  1.00  0.00     0.003 C 
HETATM   24  C   UNL     1     -43.925  54.643 -59.310  1.00  0.00     0.028 C 
HETATM   25  C   UNL     1     -43.070  55.840 -59.701  1.00  0.00     0.235 C 
ENDBRANCH  18  19
ENDBRANCH  15  18
ENDBRANCH  12  13
ENDBRANCH   6  12
BRANCH   1  26
HETATM   26  C   UNL     1     -41.781  59.164 -51.144  1.00  0.00     0.152 C 
HETATM   27  C   UNL     1     -40.895  59.941 -50.172  1.00  0.00     0.040 C 
BRANCH  26  28
HETATM   28  N   UNL     1     -41.838  57.762 -50.791  1.00  0.00    -0.349 N 
HETATM   29  C   UNL     1     -41.367  56.804 -51.662  1.00  0.00     0.222 C 
HETATM   30  O   UNL     1     -41.057  57.084 -52.815  1.00  0.00    -0.273 OA
HETATM   31  H   UNL     1     -41.936  57.534 -49.806  1.00  0.00     0.163 HD
BRANCH  29  32
HETATM   32  C   UNL     1     -41.266  55.401 -51.065  1.00  0.00     0.082 C 
HETATM   33  C   UNL     1     -42.365  55.149 -50.027  1.00  0.00     0.040 C 
HETATM   34  C   UNL     1     -43.711  54.899 -50.696  1.00  0.00     0.168 C 
HETATM   35  O   UNL     1     -43.615  53.818 -51.617  1.00  0.00    -0.391 OA
HETATM   36  C   UNL     1     -42.710  54.091 -52.686  1.00  0.00     0.168 C 
HETATM   37  C   UNL     1     -41.301  54.321 -52.153  1.00  0.00     0.040 C 
ENDBRANCH  29  32
ENDBRANCH  26  28
ENDBRANCH   1  26
TORSDOF 7
ENDMDL
