MODEL 1
REMARK VINA RESULT:      -9.0      0.000      0.000
REMARK  7 active torsions:
REMARK  status: ('A' for Active; 'I' for Inactive)
REMARK    1  A    between atoms: C_3  and  C_4 
REMARK    2  A    between atoms: C_6  and  O_7 
REMARK    3  A    between atoms: C_9  and  O_10 
REMARK    4  A    between atoms: O_10  and  C_11 
REMARK    5  A    between atoms: C_11  and  C_12 
REMARK       I    between atoms: C_12  and  N_13 
REMARK    6  A    between atoms: N_13  and  N_14 
REMARK       I    between atoms: N_14  and  C_15 
REMARK    7  A    between atoms: C_15  and  C_16 
ROOT
HETATM    1  C   UNL     1     -44.858  59.009 -50.731  1.00  0.00     0.260 C 
HETATM    2  N   UNL     1     -43.496  58.823 -50.870  1.00  0.00    -0.265 N 
HETATM    3  O   UNL     1     -45.676  58.100 -50.875  1.00  0.00    -0.269 OA
HETATM    4  H   UNL     1     -42.835  59.533 -50.553  1.00  0.00     0.190 HD
ENDROOT
BRANCH   2   5
HETATM    5  N   UNL     1     -43.018  57.520 -51.023  1.00  0.00    -0.263 N 
HETATM    6  C   UNL     1     -41.875  57.294 -51.760  1.00  0.00     0.272 C 
HETATM    7  O   UNL     1     -41.320  58.186 -52.401  1.00  0.00    -0.266 OA
HETATM    8  H   UNL     1     -43.500  56.789 -50.513  1.00  0.00     0.190 HD
BRANCH   6   9
HETATM    9  C   UNL     1     -41.419  55.906 -51.779  1.00  0.00     0.061 A 
HETATM   10  C   UNL     1     -41.080  55.040 -52.877  1.00  0.00     0.008 A 
HETATM   11  C   UNL     1     -40.635  53.824 -52.334  1.00  0.00     0.045 A 
HETATM   12  C   UNL     1     -41.118  55.161 -54.287  1.00  0.00     0.015 A 
HETATM   13  C   UNL     1     -40.181  52.768 -53.144  1.00  0.00     0.030 A 
HETATM   14  N   UNL     1     -40.759  53.925 -50.967  1.00  0.00    -0.359 N 
HETATM   15  C   UNL     1     -40.198  52.935 -54.530  1.00  0.00     0.002 A 
HETATM   16  C   UNL     1     -40.669  54.112 -55.097  1.00  0.00     0.001 A 
HETATM   17  C   UNL     1     -40.451  52.903 -49.992  1.00  0.00     0.156 C 
HETATM   18  C   UNL     1     -41.245  55.158 -50.628  1.00  0.00     0.108 A 
ENDBRANCH   6   9
ENDBRANCH   2   5
BRANCH   1  19
HETATM   19  C   UNL     1     -45.262  60.422 -50.320  1.00  0.00     0.280 C 
BRANCH  19  20
HETATM   20  O   UNL     1     -46.179  60.375 -49.231  1.00  0.00    -0.339 OA
BRANCH  20  21
HETATM   21  C   UNL     1     -45.769  61.043 -48.103  1.00  0.00     0.102 A 
HETATM   22  C   UNL     1     -45.973  60.404 -46.868  1.00  0.00     0.102 A 
HETATM   23  C   UNL     1     -45.626  61.069 -45.686  1.00  0.00     0.051 A 
HETATM   24  C   UNL     1     -45.061  62.351 -45.727  1.00  0.00    -0.034 A 
HETATM   25  C   UNL     1     -44.868  62.977 -46.963  1.00  0.00     0.014 A 
HETATM   26  C   UNL     1     -45.227  62.330 -48.147  1.00  0.00     0.040 A 
BRANCH  22  27
HETATM   27  O   UNL     1     -46.517  59.144 -46.921  1.00  0.00    -0.353 OA
HETATM   28  C   UNL     1     -47.002  58.596 -45.703  1.00  0.00     0.210 C 
ENDBRANCH  22  27
BRANCH  24  29
HETATM   29  C   UNL     1     -44.735  63.028 -44.468  1.00  0.00     0.007 C 
HETATM   30  C   UNL     1     -43.971  62.470 -43.517  1.00  0.00    -0.030 C 
HETATM   31  C   UNL     1     -43.641  63.141 -42.222  1.00  0.00     0.036 C 
ENDBRANCH  24  29
ENDBRANCH  20  21
ENDBRANCH  19  20
ENDBRANCH   1  19
TORSDOF 7
ENDMDL
MODEL 2
REMARK VINA RESULT:      -8.4      1.956     10.303
REMARK  7 active torsions:
REMARK  status: ('A' for Active; 'I' for Inactive)
REMARK    1  A    between atoms: C_3  and  C_4 
REMARK    2  A    between atoms: C_6  and  O_7 
REMARK    3  A    between atoms: C_9  and  O_10 
REMARK    4  A    between atoms: O_10  and  C_11 
REMARK    5  A    between atoms: C_11  and  C_12 
REMARK       I    between atoms: C_12  and  N_13 
REMARK    6  A    between atoms: N_13  and  N_14 
REMARK       I    between atoms: N_14  and  C_15 
REMARK    7  A    between atoms: C_15  and  C_16 
ROOT
HETATM    1  C   UNL     1     -42.423  59.213 -51.828  1.00  0.00     0.260 C 
HETATM    2  N   UNL     1     -43.345  59.000 -50.822  1.00  0.00    -0.265 N 
HETATM    3  O   UNL     1     -42.179  60.330 -52.287  1.00  0.00    -0.269 OA
HETATM    4  H   UNL     1     -43.384  58.109 -50.326  1.00  0.00     0.190 HD
ENDROOT
BRANCH   2   5
HETATM    5  N   UNL     1     -43.904  60.113 -50.190  1.00  0.00    -0.263 N 
HETATM    6  C   UNL     1     -45.209  60.062 -49.746  1.00  0.00     0.272 C 
HETATM    7  O   UNL     1     -45.950  59.112 -49.996  1.00  0.00    -0.266 OA
HETATM    8  H   UNL     1     -43.292  60.901 -50.015  1.00  0.00     0.190 HD
BRANCH   6   9
HETATM    9  C   UNL     1     -45.661  61.249 -49.023  1.00  0.00     0.061 A 
HETATM   10  C   UNL     1     -45.474  61.645 -47.652  1.00  0.00     0.008 A 
HETATM   11  C   UNL     1     -46.057  62.913 -47.497  1.00  0.00     0.045 A 
HETATM   12  C   UNL     1     -44.877  61.046 -46.517  1.00  0.00     0.015 A 
HETATM   13  C   UNL     1     -46.010  63.610 -46.276  1.00  0.00     0.030 A 
HETATM   14  N   UNL     1     -46.629  63.244 -48.704  1.00  0.00    -0.359 N 
HETATM   15  C   UNL     1     -45.380  63.006 -45.186  1.00  0.00     0.002 A 
HETATM   16  C   UNL     1     -44.829  61.736 -45.300  1.00  0.00     0.001 A 
HETATM   17  C   UNL     1     -47.371  64.446 -49.010  1.00  0.00     0.156 C 
HETATM   18  C   UNL     1     -46.413  62.247 -49.616  1.00  0.00     0.108 A 
ENDBRANCH   6   9
ENDBRANCH   2   5
BRANCH   1  19
HETATM   19  C   UNL     1     -41.685  57.958 -52.281  1.00  0.00     0.280 C 
BRANCH  19  20
HETATM   20  O   UNL     1     -42.462  56.799 -51.994  1.00  0.00    -0.339 OA
BRANCH  20  21
HETATM   21  C   UNL     1     -41.880  55.610 -52.360  1.00  0.00     0.102 A 
HETATM   22  C   UNL     1     -41.674  54.656 -51.348  1.00  0.00     0.102 A 
HETATM   23  C   UNL     1     -41.031  53.453 -51.659  1.00  0.00     0.051 A 
HETATM   24  C   UNL     1     -40.611  53.185 -52.968  1.00  0.00    -0.034 A 
HETATM   25  C   UNL     1     -40.816  54.145 -53.965  1.00  0.00     0.014 A 
HETATM   26  C   UNL     1     -41.441  55.356 -53.662  1.00  0.00     0.040 A 
BRANCH  22  27
HETATM   27  O   UNL     1     -42.132  54.994 -50.097  1.00  0.00    -0.353 OA
HETATM   28  C   UNL     1     -41.181  55.003 -49.041  1.00  0.00     0.210 C 
ENDBRANCH  22  27
BRANCH  24  29
HETATM   29  C   UNL     1     -39.916  51.926 -53.253  1.00  0.00     0.007 C 
HETATM   30  C   UNL     1     -40.267  51.111 -54.259  1.00  0.00    -0.030 C 
HETATM   31  C   UNL     1     -39.579  49.817 -54.553  1.00  0.00     0.036 C 
ENDBRANCH  24  29
ENDBRANCH  20  21
ENDBRANCH  19  20
ENDBRANCH   1  19
TORSDOF 7
ENDMDL
MODEL 3
REMARK VINA RESULT:      -8.2      2.016     10.456
REMARK  7 active torsions:
REMARK  status: ('A' for Active; 'I' for Inactive)
REMARK    1  A    between atoms: C_3  and  C_4 
REMARK    2  A    between atoms: C_6  and  O_7 
REMARK    3  A    between atoms: C_9  and  O_10 
REMARK    4  A    between atoms: O_10  and  C_11 
REMARK    5  A    between atoms: C_11  and  C_12 
REMARK       I    between atoms: C_12  and  N_13 
REMARK    6  A    between atoms: N_13  and  N_14 
REMARK       I    between atoms: N_14  and  C_15 
REMARK    7  A    between atoms: C_15  and  C_16 
ROOT
HETATM    1  C   UNL     1     -41.858  58.972 -50.851  1.00  0.00     0.260 C 
HETATM    2  N   UNL     1     -43.238  59.031 -50.831  1.00  0.00    -0.265 N 
HETATM    3  O   UNL     1     -41.142  59.906 -50.487  1.00  0.00    -0.269 OA
HETATM    4  H   UNL     1     -43.801  58.188 -50.944  1.00  0.00     0.190 HD
ENDROOT
BRANCH   2   5
HETATM    5  N   UNL     1     -43.844  60.133 -50.224  1.00  0.00    -0.263 N 
HETATM    6  C   UNL     1     -45.154  60.046 -49.801  1.00  0.00     0.272 C 
HETATM    7  O   UNL     1     -45.860  59.070 -50.051  1.00  0.00    -0.266 OA
HETATM    8  H   UNL     1     -43.260  60.943 -50.049  1.00  0.00     0.190 HD
BRANCH   6   9
HETATM    9  C   UNL     1     -45.656  61.227 -49.102  1.00  0.00     0.061 A 
HETATM   10  C   UNL     1     -45.508  61.645 -47.733  1.00  0.00     0.008 A 
HETATM   11  C   UNL     1     -46.133  62.896 -47.604  1.00  0.00     0.045 A 
HETATM   12  C   UNL     1     -44.915  61.079 -46.579  1.00  0.00     0.015 A 
HETATM   13  C   UNL     1     -46.131  63.609 -46.392  1.00  0.00     0.030 A 
HETATM   14  N   UNL     1     -46.691  63.194 -48.827  1.00  0.00    -0.359 N 
HETATM   15  C   UNL     1     -45.504  63.037 -45.283  1.00  0.00     0.002 A 
HETATM   16  C   UNL     1     -44.911  61.784 -45.371  1.00  0.00     0.001 A 
HETATM   17  C   UNL     1     -47.465  64.369 -49.162  1.00  0.00     0.156 C 
HETATM   18  C   UNL     1     -46.427  62.194 -49.722  1.00  0.00     0.108 A 
ENDBRANCH   6   9
ENDBRANCH   2   5
BRANCH   1  19
HETATM   19  C   UNL     1     -41.292  57.629 -51.302  1.00  0.00     0.280 C 
BRANCH  19  20
HETATM   20  O   UNL     1     -42.351  56.745 -51.662  1.00  0.00    -0.339 OA
BRANCH  20  21
HETATM   21  C   UNL     1     -41.948  55.586 -52.279  1.00  0.00     0.102 A 
HETATM   22  C   UNL     1     -42.597  55.237 -53.477  1.00  0.00     0.102 A 
HETATM   23  C   UNL     1     -42.263  54.036 -54.113  1.00  0.00     0.051 A 
HETATM   24  C   UNL     1     -41.279  53.193 -53.579  1.00  0.00    -0.034 A 
HETATM   25  C   UNL     1     -40.645  53.550 -52.383  1.00  0.00     0.014 A 
HETATM   26  C   UNL     1     -40.982  54.738 -51.731  1.00  0.00     0.040 A 
BRANCH  22  27
HETATM   27  O   UNL     1     -43.536  56.127 -53.937  1.00  0.00    -0.353 OA
HETATM   28  C   UNL     1     -43.269  56.765 -55.179  1.00  0.00     0.210 C 
ENDBRANCH  22  27
BRANCH  24  29
HETATM   29  C   UNL     1     -40.974  51.930 -54.256  1.00  0.00     0.007 C 
HETATM   30  C   UNL     1     -39.953  51.137 -53.897  1.00  0.00    -0.030 C 
HETATM   31  C   UNL     1     -39.620  49.853 -54.586  1.00  0.00     0.036 C 
ENDBRANCH  24  29
ENDBRANCH  20  21
ENDBRANCH  19  20
ENDBRANCH   1  19
TORSDOF 7
ENDMDL
MODEL 4
REMARK VINA RESULT:      -8.2      6.317      9.672
REMARK  7 active torsions:
REMARK  status: ('A' for Active; 'I' for Inactive)
REMARK    1  A    between atoms: C_3  and  C_4 
REMARK    2  A    between atoms: C_6  and  O_7 
REMARK    3  A    between atoms: C_9  and  O_10 
REMARK    4  A    between atoms: O_10  and  C_11 
REMARK    5  A    between atoms: C_11  and  C_12 
REMARK       I    between atoms: C_12  and  N_13 
REMARK    6  A    between atoms: N_13  and  N_14 
REMARK       I    between atoms: N_14  and  C_15 
REMARK    7  A    between atoms: C_15  and  C_16 
ROOT
HETATM    1  C   UNL     1     -44.142  57.336 -54.388  1.00  0.00     0.260 C 
HETATM    2  N   UNL     1     -43.302  56.406 -54.968  1.00  0.00    -0.265 N 
HETATM    3  O   UNL     1     -44.531  57.253 -53.222  1.00  0.00    -0.269 OA
HETATM    4  H   UNL     1     -42.840  56.599 -55.857  1.00  0.00     0.190 HD
ENDROOT
BRANCH   2   5
HETATM    5  N   UNL     1     -42.743  55.420 -54.153  1.00  0.00    -0.263 N 
HETATM    6  C   UNL     1     -41.475  55.596 -53.639  1.00  0.00     0.272 C 
HETATM    7  O   UNL     1     -40.758  56.538 -53.973  1.00  0.00    -0.266 OA
HETATM    8  H   UNL     1     -43.334  54.635 -53.907  1.00  0.00     0.190 HD
BRANCH   6   9
HETATM    9  C   UNL     1     -41.028  54.544 -52.729  1.00  0.00     0.061 A 
HETATM   10  C   UNL     1     -40.570  53.204 -52.990  1.00  0.00     0.008 A 
HETATM   11  C   UNL     1     -40.197  52.640 -51.760  1.00  0.00     0.045 A 
HETATM   12  C   UNL     1     -40.448  52.404 -54.151  1.00  0.00     0.015 A 
HETATM   13  C   UNL     1     -39.660  51.343 -51.668  1.00  0.00     0.030 A 
HETATM   14  N   UNL     1     -40.475  53.573 -50.788  1.00  0.00    -0.359 N 
HETATM   15  C   UNL     1     -39.518  50.595 -52.838  1.00  0.00     0.002 A 
HETATM   16  C   UNL     1     -39.915  51.113 -54.064  1.00  0.00     0.001 A 
HETATM   17  C   UNL     1     -40.286  53.422 -49.362  1.00  0.00     0.156 C 
HETATM   18  C   UNL     1     -40.990  54.707 -51.356  1.00  0.00     0.108 A 
ENDBRANCH   6   9
ENDBRANCH   2   5
BRANCH   1  19
HETATM   19  C   UNL     1     -44.501  58.511 -55.293  1.00  0.00     0.280 C 
BRANCH  19  20
HETATM   20  O   UNL     1     -43.939  58.324 -56.589  1.00  0.00    -0.339 OA
BRANCH  20  21
HETATM   21  C   UNL     1     -44.817  57.851 -57.534  1.00  0.00     0.102 A 
HETATM   22  C   UNL     1     -44.276  57.108 -58.598  1.00  0.00     0.102 A 
HETATM   23  C   UNL     1     -45.122  56.654 -59.617  1.00  0.00     0.051 A 
HETATM   24  C   UNL     1     -46.498  56.916 -59.574  1.00  0.00    -0.034 A 
HETATM   25  C   UNL     1     -47.022  57.661 -58.512  1.00  0.00     0.014 A 
HETATM   26  C   UNL     1     -46.185  58.134 -57.499  1.00  0.00     0.040 A 
BRANCH  22  27
HETATM   27  O   UNL     1     -42.922  56.885 -58.553  1.00  0.00    -0.353 OA
HETATM   28  C   UNL     1     -42.193  57.082 -59.757  1.00  0.00     0.210 C 
ENDBRANCH  22  27
BRANCH  24  29
HETATM   29  C   UNL     1     -47.349  56.450 -60.672  1.00  0.00     0.007 C 
HETATM   30  C   UNL     1     -47.851  57.273 -61.605  1.00  0.00    -0.030 C 
HETATM   31  C   UNL     1     -48.732  56.816 -62.723  1.00  0.00     0.036 C 
ENDBRANCH  24  29
ENDBRANCH  20  21
ENDBRANCH  19  20
ENDBRANCH   1  19
TORSDOF 7
ENDMDL
MODEL 5
REMARK VINA RESULT:      -8.2      6.255      9.474
REMARK  7 active torsions:
REMARK  status: ('A' for Active; 'I' for Inactive)
REMARK    1  A    between atoms: C_3  and  C_4 
REMARK    2  A    between atoms: C_6  and  O_7 
REMARK    3  A    between atoms: C_9  and  O_10 
REMARK    4  A    between atoms: O_10  and  C_11 
REMARK    5  A    between atoms: C_11  and  C_12 
REMARK       I    between atoms: C_12  and  N_13 
REMARK    6  A    between atoms: N_13  and  N_14 
REMARK       I    between atoms: N_14  and  C_15 
REMARK    7  A    between atoms: C_15  and  C_16 
ROOT
HETATM    1  C   UNL     1     -41.676  59.254 -54.143  1.00  0.00     0.260 C 
HETATM    2  N   UNL     1     -42.458  58.171 -53.794  1.00  0.00    -0.265 N 
HETATM    3  O   UNL     1     -40.534  59.422 -53.712  1.00  0.00    -0.269 OA
HETATM    4  H   UNL     1     -43.310  57.951 -54.311  1.00  0.00     0.190 HD
ENDROOT
BRANCH   2   5
HETATM    5  N   UNL     1     -41.873  57.144 -53.051  1.00  0.00    -0.263 N 
HETATM    6  C   UNL     1     -42.295  55.843 -53.233  1.00  0.00     0.272 C 
HETATM    7  O   UNL     1     -43.263  55.561 -53.939  1.00  0.00    -0.266 OA
HETATM    8  H   UNL     1     -41.095  57.393 -52.452  1.00  0.00     0.190 HD
BRANCH   6   9
HETATM    9  C   UNL     1     -41.554  54.842 -52.470  1.00  0.00     0.061 A 
HETATM   10  C   UNL     1     -40.958  53.597 -52.877  1.00  0.00     0.008 A 
HETATM   11  C   UNL     1     -40.305  53.056 -51.758  1.00  0.00     0.045 A 
HETATM   12  C   UNL     1     -40.917  52.863 -54.087  1.00  0.00     0.015 A 
HETATM   13  C   UNL     1     -39.578  51.854 -51.828  1.00  0.00     0.030 A 
HETATM   14  N   UNL     1     -40.548  53.904 -50.702  1.00  0.00    -0.359 N 
HETATM   15  C   UNL     1     -39.528  51.175 -53.047  1.00  0.00     0.002 A 
HETATM   16  C   UNL     1     -40.196  51.666 -54.161  1.00  0.00     0.001 A 
HETATM   17  C   UNL     1     -40.102  53.737 -49.336  1.00  0.00     0.156 C 
HETATM   18  C   UNL     1     -41.309  54.964 -51.113  1.00  0.00     0.108 A 
ENDBRANCH   6   9
ENDBRANCH   2   5
BRANCH   1  19
HETATM   19  C   UNL     1     -42.319  60.196 -55.156  1.00  0.00     0.280 C 
BRANCH  19  20
HETATM   20  O   UNL     1     -41.570  60.202 -56.368  1.00  0.00    -0.339 OA
BRANCH  20  21
HETATM   21  C   UNL     1     -42.051  59.366 -57.345  1.00  0.00     0.102 A 
HETATM   22  C   UNL     1     -42.445  59.956 -58.559  1.00  0.00     0.102 A 
HETATM   23  C   UNL     1     -42.997  59.154 -59.565  1.00  0.00     0.051 A 
HETATM   24  C   UNL     1     -43.139  57.772 -59.379  1.00  0.00    -0.034 A 
HETATM   25  C   UNL     1     -42.748  57.198 -58.165  1.00  0.00     0.014 A 
HETATM   26  C   UNL     1     -42.212  57.992 -57.148  1.00  0.00     0.040 A 
BRANCH  22  27
HETATM   27  O   UNL     1     -42.256  61.312 -58.661  1.00  0.00    -0.353 OA
HETATM   28  C   UNL     1     -41.203  61.757 -59.506  1.00  0.00     0.210 C 
ENDBRANCH  22  27
BRANCH  24  29
HETATM   29  C   UNL     1     -43.746  56.967 -60.443  1.00  0.00     0.007 C 
HETATM   30  C   UNL     1     -44.416  55.829 -60.204  1.00  0.00    -0.030 C 
HETATM   31  C   UNL     1     -45.029  54.989 -61.278  1.00  0.00     0.036 C 
ENDBRANCH  24  29
ENDBRANCH  20  21
ENDBRANCH  19  20
ENDBRANCH   1  19
TORSDOF 7
ENDMDL
MODEL 6
REMARK VINA RESULT:      -8.1      5.562      9.277
REMARK  7 active torsions:
REMARK  status: ('A' for Active; 'I' for Inactive)
REMARK    1  A    between atoms: C_3  and  C_4 
REMARK    2  A    between atoms: C_6  and  O_7 
REMARK    3  A    between atoms: C_9  and  O_10 
REMARK    4  A    between atoms: O_10  and  C_11 
REMARK    5  A    between atoms: C_11  and  C_12 
REMARK       I    between atoms: C_12  and  N_13 
REMARK    6  A    between atoms: N_13  and  N_14 
REMARK       I    between atoms: N_14  and  C_15 
REMARK    7  A    between atoms: C_15  and  C_16 
ROOT
HETATM    1  C   UNL     1     -42.980  57.880 -53.127  1.00  0.00     0.260 C 
HETATM    2  N   UNL     1     -42.305  58.343 -54.239  1.00  0.00    -0.265 N 
HETATM    3  O   UNL     1     -44.195  57.677 -53.117  1.00  0.00    -0.269 OA
HETATM    4  H   UNL     1     -41.286  58.313 -54.285  1.00  0.00     0.190 HD
ENDROOT
BRANCH   2   5
HETATM    5  N   UNL     1     -43.001  58.431 -55.447  1.00  0.00    -0.263 N 
HETATM    6  C   UNL     1     -42.899  57.411 -56.370  1.00  0.00     0.272 C 
HETATM    7  O   UNL     1     -42.115  56.474 -56.228  1.00  0.00    -0.266 OA
HETATM    8  H   UNL     1     -43.623  59.222 -55.564  1.00  0.00     0.190 HD
BRANCH   6   9
HETATM    9  C   UNL     1     -43.738  57.568 -57.556  1.00  0.00     0.061 A 
HETATM   10  C   UNL     1     -44.100  56.630 -58.585  1.00  0.00     0.008 A 
HETATM   11  C   UNL     1     -44.987  57.281 -59.457  1.00  0.00     0.045 A 
HETATM   12  C   UNL     1     -43.752  55.288 -58.875  1.00  0.00     0.015 A 
HETATM   13  C   UNL     1     -45.569  56.624 -60.556  1.00  0.00     0.030 A 
HETATM   14  N   UNL     1     -45.108  58.578 -59.012  1.00  0.00    -0.359 N 
HETATM   15  C   UNL     1     -45.232  55.290 -60.791  1.00  0.00     0.002 A 
HETATM   16  C   UNL     1     -44.328  54.631 -59.968  1.00  0.00     0.001 A 
HETATM   17  C   UNL     1     -45.893  59.631 -59.617  1.00  0.00     0.156 C 
HETATM   18  C   UNL     1     -44.350  58.763 -57.888  1.00  0.00     0.108 A 
ENDBRANCH   6   9
ENDBRANCH   2   5
BRANCH   1  19
HETATM   19  C   UNL     1     -42.087  57.581 -51.927  1.00  0.00     0.280 C 
BRANCH  19  20
HETATM   20  O   UNL     1     -42.515  56.386 -51.280  1.00  0.00    -0.339 OA
BRANCH  20  21
HETATM   21  C   UNL     1     -41.925  55.236 -51.746  1.00  0.00     0.102 A 
HETATM   22  C   UNL     1     -40.924  54.658 -50.946  1.00  0.00     0.102 A 
HETATM   23  C   UNL     1     -40.252  53.518 -51.405  1.00  0.00     0.051 A 
HETATM   24  C   UNL     1     -40.581  52.943 -52.639  1.00  0.00    -0.034 A 
HETATM   25  C   UNL     1     -41.575  53.533 -53.429  1.00  0.00     0.014 A 
HETATM   26  C   UNL     1     -42.240  54.679 -52.989  1.00  0.00     0.040 A 
BRANCH  22  27
HETATM   27  O   UNL     1     -40.678  55.277 -49.745  1.00  0.00    -0.353 OA
HETATM   28  C   UNL     1     -40.602  54.447 -48.593  1.00  0.00     0.210 C 
ENDBRANCH  22  27
BRANCH  24  29
HETATM   29  C   UNL     1     -39.838  51.767 -53.101  1.00  0.00     0.007 C 
HETATM   30  C   UNL     1     -40.243  51.005 -54.128  1.00  0.00    -0.030 C 
HETATM   31  C   UNL     1     -39.505  49.795 -54.602  1.00  0.00     0.036 C 
ENDBRANCH  24  29
ENDBRANCH  20  21
ENDBRANCH  19  20
ENDBRANCH   1  19
TORSDOF 7
ENDMDL
MODEL 7
REMARK VINA RESULT:      -8.1      6.386      9.181
REMARK  7 active torsions:
REMARK  status: ('A' for Active; 'I' for Inactive)
REMARK    1  A    between atoms: C_3  and  C_4 
REMARK    2  A    between atoms: C_6  and  O_7 
REMARK    3  A    between atoms: C_9  and  O_10 
REMARK    4  A    between atoms: O_10  and  C_11 
REMARK    5  A    between atoms: C_11  and  C_12 
REMARK       I    between atoms: C_12  and  N_13 
REMARK    6  A    between atoms: N_13  and  N_14 
REMARK       I    between atoms: N_14  and  C_15 
REMARK    7  A    between atoms: C_15  and  C_16 
ROOT
HETATM    1  C   UNL     1     -44.642  57.283 -54.488  1.00  0.00     0.260 C 
HETATM    2  N   UNL     1     -44.048  56.171 -55.051  1.00  0.00    -0.265 N 
HETATM    3  O   UNL     1     -44.685  57.477 -53.272  1.00  0.00    -0.269 OA
HETATM    4  H   UNL     1     -43.849  56.131 -56.051  1.00  0.00     0.190 HD
ENDROOT
BRANCH   2   5
HETATM    5  N   UNL     1     -43.327  55.313 -54.218  1.00  0.00    -0.263 N 
HETATM    6  C   UNL     1     -41.952  55.261 -54.315  1.00  0.00     0.272 C 
HETATM    7  O   UNL     1     -41.335  55.853 -55.199  1.00  0.00    -0.266 OA
HETATM    8  H   UNL     1     -43.850  54.809 -53.511  1.00  0.00     0.190 HD
BRANCH   6   9
HETATM    9  C   UNL     1     -41.298  54.396 -53.336  1.00  0.00     0.061 A 
HETATM   10  C   UNL     1     -40.807  53.048 -53.448  1.00  0.00     0.008 A 
HETATM   11  C   UNL     1     -40.203  52.715 -52.225  1.00  0.00     0.045 A 
HETATM   12  C   UNL     1     -40.826  52.065 -54.467  1.00  0.00     0.015 A 
HETATM   13  C   UNL     1     -39.579  51.472 -52.016  1.00  0.00     0.030 A 
HETATM   14  N   UNL     1     -40.377  53.792 -51.385  1.00  0.00    -0.359 N 
HETATM   15  C   UNL     1     -39.584  50.540 -53.054  1.00  0.00     0.002 A 
HETATM   16  C   UNL     1     -40.207  50.827 -54.262  1.00  0.00     0.001 A 
HETATM   17  C   UNL     1     -39.949  53.893 -50.008  1.00  0.00     0.156 C 
HETATM   18  C   UNL     1     -41.047  54.793 -52.034  1.00  0.00     0.108 A 
ENDBRANCH   6   9
ENDBRANCH   2   5
BRANCH   1  19
HETATM   19  C   UNL     1     -45.187  58.286 -55.501  1.00  0.00     0.280 C 
BRANCH  19  20
HETATM   20  O   UNL     1     -45.211  57.707 -56.803  1.00  0.00    -0.339 OA
BRANCH  20  21
HETATM   21  C   UNL     1     -44.458  58.370 -57.741  1.00  0.00     0.102 A 
HETATM   22  C   UNL     1     -43.472  57.628 -58.415  1.00  0.00     0.102 A 
HETATM   23  C   UNL     1     -42.640  58.272 -59.338  1.00  0.00     0.051 A 
HETATM   24  C   UNL     1     -42.794  59.638 -59.607  1.00  0.00    -0.034 A 
HETATM   25  C   UNL     1     -43.775  60.366 -58.925  1.00  0.00     0.014 A 
HETATM   26  C   UNL     1     -44.600  59.738 -57.990  1.00  0.00     0.040 A 
BRANCH  22  27
HETATM   27  O   UNL     1     -43.401  56.293 -58.102  1.00  0.00    -0.353 OA
HETATM   28  C   UNL     1     -43.712  55.368 -59.135  1.00  0.00     0.210 C 
ENDBRANCH  22  27
BRANCH  24  29
HETATM   29  C   UNL     1     -41.886  60.285 -60.559  1.00  0.00     0.007 C 
HETATM   30  C   UNL     1     -41.698  61.613 -60.598  1.00  0.00    -0.030 C 
HETATM   31  C   UNL     1     -40.787  62.291 -61.571  1.00  0.00     0.036 C 
ENDBRANCH  24  29
ENDBRANCH  20  21
ENDBRANCH  19  20
ENDBRANCH   1  19
TORSDOF 7
ENDMDL
MODEL 8
REMARK VINA RESULT:      -7.8      6.490     10.902
REMARK  7 active torsions:
REMARK  status: ('A' for Active; 'I' for Inactive)
REMARK    1  A    between atoms: C_3  and  C_4 
REMARK    2  A    between atoms: C_6  and  O_7 
REMARK    3  A    between atoms: C_9  and  O_10 
REMARK    4  A    between atoms: O_10  and  C_11 
REMARK    5  A    between atoms: C_11  and  C_12 
REMARK       I    between atoms: C_12  and  N_13 
REMARK    6  A    between atoms: N_13  and  N_14 
REMARK       I    between atoms: N_14  and  C_15 
REMARK    7  A    between atoms: C_15  and  C_16 
ROOT
HETATM    1  C   UNL     1     -42.854  56.280 -57.657  1.00  0.00     0.260 C 
HETATM    2  N   UNL     1     -42.091  57.415 -57.474  1.00  0.00    -0.265 N 
HETATM    3  O   UNL     1     -43.493  56.060 -58.688  1.00  0.00    -0.269 OA
HETATM    4  H   UNL     1     -41.421  57.480 -56.707  1.00  0.00     0.190 HD
ENDROOT
BRANCH   2   5
HETATM    5  N   UNL     1     -41.906  58.271 -58.562  1.00  0.00    -0.263 N 
HETATM    6  C   UNL     1     -42.549  59.492 -58.587  1.00  0.00     0.272 C 
HETATM    7  O   UNL     1     -43.385  59.810 -57.743  1.00  0.00    -0.266 OA
HETATM    8  H   UNL     1     -41.236  57.986 -59.266  1.00  0.00     0.190 HD
BRANCH   6   9
HETATM    9  C   UNL     1     -42.214  60.340 -59.729  1.00  0.00     0.061 A 
HETATM   10  C   UNL     1     -41.258  61.408 -59.861  1.00  0.00     0.008 A 
HETATM   11  C   UNL     1     -41.293  61.843 -61.195  1.00  0.00     0.045 A 
HETATM   12  C   UNL     1     -40.369  62.062 -58.974  1.00  0.00     0.015 A 
HETATM   13  C   UNL     1     -40.441  62.854 -61.673  1.00  0.00     0.030 A 
HETATM   14  N   UNL     1     -42.274  61.114 -61.830  1.00  0.00    -0.359 N 
HETATM   15  C   UNL     1     -39.550  63.453 -60.779  1.00  0.00     0.002 A 
HETATM   16  C   UNL     1     -39.520  63.070 -59.445  1.00  0.00     0.001 A 
HETATM   17  C   UNL     1     -42.691  61.241 -63.208  1.00  0.00     0.156 C 
HETATM   18  C   UNL     1     -42.842  60.228 -60.956  1.00  0.00     0.108 A 
ENDBRANCH   6   9
ENDBRANCH   2   5
BRANCH   1  19
HETATM   19  C   UNL     1     -42.793  55.286 -56.501  1.00  0.00     0.280 C 
BRANCH  19  20
HETATM   20  O   UNL     1     -41.952  55.787 -55.466  1.00  0.00    -0.339 OA
BRANCH  20  21
HETATM   21  C   UNL     1     -41.447  54.830 -54.620  1.00  0.00     0.102 A 
HETATM   22  C   UNL     1     -41.784  54.933 -53.259  1.00  0.00     0.102 A 
HETATM   23  C   UNL     1     -41.247  54.015 -52.348  1.00  0.00     0.051 A 
HETATM   24  C   UNL     1     -40.397  52.990 -52.784  1.00  0.00    -0.034 A 
HETATM   25  C   UNL     1     -40.066  52.902 -54.140  1.00  0.00     0.014 A 
HETATM   26  C   UNL     1     -40.582  53.822 -55.055  1.00  0.00     0.040 A 
BRANCH  22  27
HETATM   27  O   UNL     1     -42.635  55.957 -52.923  1.00  0.00    -0.353 OA
HETATM   28  C   UNL     1     -42.077  57.054 -52.212  1.00  0.00     0.210 C 
ENDBRANCH  22  27
BRANCH  24  29
HETATM   29  C   UNL     1     -39.832  52.064 -51.798  1.00  0.00     0.007 C 
HETATM   30  C   UNL     1     -39.806  50.734 -51.977  1.00  0.00    -0.030 C 
HETATM   31  C   UNL     1     -39.247  49.775 -50.977  1.00  0.00     0.036 C 
ENDBRANCH  24  29
ENDBRANCH  20  21
ENDBRANCH  19  20
ENDBRANCH   1  19
TORSDOF 7
ENDMDL
MODEL 9
REMARK VINA RESULT:      -7.5     19.217     21.732
REMARK  7 active torsions:
REMARK  status: ('A' for Active; 'I' for Inactive)
REMARK    1  A    between atoms: C_3  and  C_4 
REMARK    2  A    between atoms: C_6  and  O_7 
REMARK    3  A    between atoms: C_9  and  O_10 
REMARK    4  A    between atoms: O_10  and  C_11 
REMARK    5  A    between atoms: C_11  and  C_12 
REMARK       I    between atoms: C_12  and  N_13 
REMARK    6  A    between atoms: N_13  and  N_14 
REMARK       I    between atoms: N_14  and  C_15 
REMARK    7  A    between atoms: C_15  and  C_16 
ROOT
HETATM    1  C   UNL     1     -37.449  41.460 -56.818  1.00  0.00     0.260 C 
HETATM    2  N   UNL     1     -36.689  41.605 -57.962  1.00  0.00    -0.265 N 
HETATM    3  O   UNL     1     -38.544  40.895 -56.809  1.00  0.00    -0.269 OA
HETATM    4  H   UNL     1     -35.712  41.893 -57.910  1.00  0.00     0.190 HD
ENDROOT
BRANCH   2   5
HETATM    5  N   UNL     1     -37.104  40.945 -59.121  1.00  0.00    -0.263 N 
HETATM    6  C   UNL     1     -36.587  39.701 -59.421  1.00  0.00     0.272 C 
HETATM    7  O   UNL     1     -35.674  39.197 -58.770  1.00  0.00    -0.266 OA
HETATM    8  H   UNL     1     -37.838  41.384 -59.664  1.00  0.00     0.190 HD
BRANCH   6   9
HETATM    9  C   UNL     1     -37.158  39.068 -60.607  1.00  0.00     0.061 A 
HETATM   10  C   UNL     1     -38.484  38.571 -60.866  1.00  0.00     0.008 A 
HETATM   11  C   UNL     1     -38.514  38.121 -62.195  1.00  0.00     0.045 A 
HETATM   12  C   UNL     1     -39.665  38.445 -60.096  1.00  0.00     0.015 A 
HETATM   13  C   UNL     1     -39.686  37.612 -62.783  1.00  0.00     0.030 A 
HETATM   14  N   UNL     1     -37.244  38.279 -62.702  1.00  0.00    -0.359 N 
HETATM   15  C   UNL     1     -40.843  37.536 -62.006  1.00  0.00     0.002 A 
HETATM   16  C   UNL     1     -40.833  37.938 -60.677  1.00  0.00     0.001 A 
HETATM   17  C   UNL     1     -36.790  37.920 -64.027  1.00  0.00     0.156 C 
HETATM   18  C   UNL     1     -36.423  38.826 -61.755  1.00  0.00     0.108 A 
ENDBRANCH   6   9
ENDBRANCH   2   5
BRANCH   1  19
HETATM   19  C   UNL     1     -36.792  42.002 -55.553  1.00  0.00     0.280 C 
BRANCH  19  20
HETATM   20  O   UNL     1     -35.447  41.542 -55.460  1.00  0.00    -0.339 OA
BRANCH  20  21
HETATM   21  C   UNL     1     -34.979  41.385 -54.178  1.00  0.00     0.102 A 
HETATM   22  C   UNL     1     -33.897  40.508 -53.992  1.00  0.00     0.102 A 
HETATM   23  C   UNL     1     -33.422  40.270 -52.697  1.00  0.00     0.051 A 
HETATM   24  C   UNL     1     -34.001  40.912 -51.594  1.00  0.00    -0.034 A 
HETATM   25  C   UNL     1     -35.081  41.778 -51.793  1.00  0.00     0.014 A 
HETATM   26  C   UNL     1     -35.574  42.010 -53.079  1.00  0.00     0.040 A 
BRANCH  22  27
HETATM   27  O   UNL     1     -33.380  39.935 -55.128  1.00  0.00    -0.353 OA
HETATM   28  C   UNL     1     -31.970  39.770 -55.186  1.00  0.00     0.210 C 
ENDBRANCH  22  27
BRANCH  24  29
HETATM   29  C   UNL     1     -33.496  40.617 -50.250  1.00  0.00     0.007 C 
HETATM   30  C   UNL     1     -32.307  40.037 -50.029  1.00  0.00    -0.030 C 
HETATM   31  C   UNL     1     -31.783  39.717 -48.666  1.00  0.00     0.036 C 
ENDBRANCH  24  29
ENDBRANCH  20  21
ENDBRANCH  19  20
ENDBRANCH   1  19
TORSDOF 7
ENDMDL
MODEL 10
REMARK VINA RESULT:      -7.4     19.300     22.162
REMARK  7 active torsions:
REMARK  status: ('A' for Active; 'I' for Inactive)
REMARK    1  A    between atoms: C_3  and  C_4 
REMARK    2  A    between atoms: C_6  and  O_7 
REMARK    3  A    between atoms: C_9  and  O_10 
REMARK    4  A    between atoms: O_10  and  C_11 
REMARK    5  A    between atoms: C_11  and  C_12 
REMARK       I    between atoms: C_12  and  N_13 
REMARK    6  A    between atoms: N_13  and  N_14 
REMARK       I    between atoms: N_14  and  C_15 
REMARK    7  A    between atoms: C_15  and  C_16 
ROOT
HETATM    1  C   UNL     1     -35.650  41.480 -54.448  1.00  0.00     0.260 C 
HETATM    2  N   UNL     1     -34.405  41.192 -53.924  1.00  0.00    -0.265 N 
HETATM    3  O   UNL     1     -36.676  40.899 -54.093  1.00  0.00    -0.269 OA
HETATM    4  H   UNL     1     -33.612  41.814 -54.083  1.00  0.00     0.190 HD
ENDROOT
BRANCH   2   5
HETATM    5  N   UNL     1     -34.330  40.320 -52.836  1.00  0.00    -0.263 N 
HETATM    6  C   UNL     1     -34.313  40.829 -51.553  1.00  0.00     0.272 C 
HETATM    7  O   UNL     1     -34.233  42.035 -51.327  1.00  0.00    -0.266 OA
HETATM    8  H   UNL     1     -34.369  39.328 -53.036  1.00  0.00     0.190 HD
BRANCH   6   9
HETATM    9  C   UNL     1     -34.323  39.824 -50.492  1.00  0.00     0.061 A 
HETATM   10  C   UNL     1     -33.357  39.523 -49.469  1.00  0.00     0.008 A 
HETATM   11  C   UNL     1     -33.895  38.506 -48.666  1.00  0.00     0.045 A 
HETATM   12  C   UNL     1     -32.065  40.007 -49.149  1.00  0.00     0.015 A 
HETATM   13  C   UNL     1     -33.216  38.008 -47.539  1.00  0.00     0.030 A 
HETATM   14  N   UNL     1     -35.108  38.159 -49.216  1.00  0.00    -0.359 N 
HETATM   15  C   UNL     1     -31.960  38.533 -47.231  1.00  0.00     0.002 A 
HETATM   16  C   UNL     1     -31.386  39.513 -48.030  1.00  0.00     0.001 A 
HETATM   17  C   UNL     1     -36.009  37.131 -48.746  1.00  0.00     0.156 C 
HETATM   18  C   UNL     1     -35.363  38.928 -50.318  1.00  0.00     0.108 A 
ENDBRANCH   6   9
ENDBRANCH   2   5
BRANCH   1  19
HETATM   19  C   UNL     1     -35.658  42.623 -55.459  1.00  0.00     0.280 C 
BRANCH  19  20
HETATM   20  O   UNL     1     -34.969  42.237 -56.644  1.00  0.00    -0.339 OA
BRANCH  20  21
HETATM   21  C   UNL     1     -35.732  41.551 -57.557  1.00  0.00     0.102 A 
HETATM   22  C   UNL     1     -35.432  40.191 -57.752  1.00  0.00     0.102 A 
HETATM   23  C   UNL     1     -36.143  39.463 -58.713  1.00  0.00     0.051 A 
HETATM   24  C   UNL     1     -37.158  40.071 -59.464  1.00  0.00    -0.034 A 
HETATM   25  C   UNL     1     -37.442  41.426 -59.264  1.00  0.00     0.014 A 
HETATM   26  C   UNL     1     -36.727  42.167 -58.320  1.00  0.00     0.040 A 
BRANCH  22  27
HETATM   27  O   UNL     1     -34.436  39.672 -56.962  1.00  0.00    -0.353 OA
HETATM   28  C   UNL     1     -34.678  38.407 -56.362  1.00  0.00     0.210 C 
ENDBRANCH  22  27
BRANCH  24  29
HETATM   29  C   UNL     1     -37.862  39.286 -60.482  1.00  0.00     0.007 C 
HETATM   30  C   UNL     1     -38.911  38.498 -60.198  1.00  0.00    -0.030 C 
HETATM   31  C   UNL     1     -39.631  37.680 -61.220  1.00  0.00     0.036 C 
ENDBRANCH  24  29
ENDBRANCH  20  21
ENDBRANCH  19  20
ENDBRANCH   1  19
TORSDOF 7
ENDMDL
