MODEL 1
REMARK VINA RESULT:      -9.6      0.000      0.000
REMARK  5 active torsions:
REMARK  status: ('A' for Active; 'I' for Inactive)
REMARK    1  A    between atoms: C_4  and  C_5 
REMARK    2  A    between atoms: C_5  and  N_6 
REMARK    3  A    between atoms: C_7  and  N_8 
REMARK    4  A    between atoms: N_8  and  N_9 
REMARK       I    between atoms: N_9  and  C_10 
REMARK    5  A    between atoms: C_10  and  C_11 
ROOT
HETATM    1  N   UNL     1     -43.628  58.492 -55.758  1.00  0.00    -0.282 N 
HETATM    2  C   UNL     1     -42.815  57.390 -56.095  1.00  0.00     0.204 A 
HETATM    3  N   UNL     1     -43.016  56.625 -57.145  1.00  0.00    -0.217 NA
HETATM    4  C   UNL     1     -44.133  56.935 -57.912  1.00  0.00     0.090 A 
HETATM    5  C   UNL     1     -44.974  57.975 -57.622  1.00  0.00     0.103 A 
HETATM    6  S   UNL     1     -46.274  58.108 -58.728  1.00  0.00    -0.086 SA
HETATM    7  C   UNL     1     -45.700  56.772 -59.565  1.00  0.00    -0.008 A 
HETATM    8  C   UNL     1     -44.557  56.227 -59.042  1.00  0.00    -0.015 A 
HETATM    9  C   UNL     1     -44.119  55.047 -59.818  1.00  0.00     0.042 C 
HETATM   10  C   UNL     1     -44.991  55.159 -61.111  1.00  0.00     0.010 C 
HETATM   11  C   UNL     1     -46.212  56.066 -60.761  1.00  0.00     0.047 C 
HETATM   12  C   UNL     1     -44.763  58.841 -56.506  1.00  0.00     0.269 A 
HETATM   13  O   UNL     1     -45.495  59.788 -56.221  1.00  0.00    -0.266 OA
ENDROOT
BRANCH   2  14
HETATM   14  N   UNL     1     -41.738  57.107 -55.269  1.00  0.00    -0.170 NA
HETATM   15  H   UNL     1     -41.652  57.676 -54.426  1.00  0.00     0.156 HD
BRANCH  14  16
HETATM   16  N   UNL     1     -41.493  55.754 -54.990  1.00  0.00    -0.279 N 
HETATM   17  C   UNL     1     -41.043  55.422 -53.728  1.00  0.00     0.289 C 
HETATM   18  O   UNL     1     -40.993  56.264 -52.828  1.00  0.00    -0.264 OA
HETATM   19  H   UNL     1     -41.597  55.087 -55.751  1.00  0.00     0.184 HD
BRANCH  17  20
HETATM   20  C   UNL     1     -40.621  54.050 -53.576  1.00  0.00     0.145 A 
HETATM   21  O   UNL     1     -40.323  53.569 -52.328  1.00  0.00    -0.304 OA
HETATM   22  C   UNL     1     -40.044  52.244 -52.463  1.00  0.00     0.086 A 
HETATM   23  C   UNL     1     -40.132  51.863 -53.798  1.00  0.00     0.001 A 
HETATM   24  C   UNL     1     -39.726  51.373 -51.423  1.00  0.00     0.038 A 
HETATM   25  C   UNL     1     -40.496  53.035 -54.507  1.00  0.00     0.057 A 
HETATM   26  C   UNL     1     -39.881  50.522 -54.132  1.00  0.00     0.014 A 
HETATM   27  C   UNL     1     -39.562  49.621 -53.107  1.00  0.00     0.001 A 
HETATM   28  C   UNL     1     -39.488  50.041 -51.775  1.00  0.00     0.003 A 
ENDBRANCH  17  20
ENDBRANCH  14  16
ENDBRANCH   2  14
BRANCH   1  29
HETATM   29  C   UNL     1     -43.274  59.411 -54.675  1.00  0.00     0.173 C 
BRANCH  29  30
HETATM   30  C   UNL     1     -44.077  59.154 -53.415  1.00  0.00    -0.040 A 
HETATM   31  C   UNL     1     -44.796  60.196 -52.810  1.00  0.00     0.009 A 
HETATM   32  C   UNL     1     -45.520  59.974 -51.637  1.00  0.00     0.001 A 
HETATM   33  C   UNL     1     -45.531  58.709 -51.053  1.00  0.00     0.000 A 
HETATM   34  C   UNL     1     -44.823  57.665 -51.643  1.00  0.00     0.001 A 
HETATM   35  C   UNL     1     -44.101  57.885 -52.818  1.00  0.00     0.009 A 
ENDBRANCH  29  30
ENDBRANCH   1  29
TORSDOF 5
ENDMDL
MODEL 2
REMARK VINA RESULT:      -9.6      1.410      5.236
REMARK  5 active torsions:
REMARK  status: ('A' for Active; 'I' for Inactive)
REMARK    1  A    between atoms: C_4  and  C_5 
REMARK    2  A    between atoms: C_5  and  N_6 
REMARK    3  A    between atoms: C_7  and  N_8 
REMARK    4  A    between atoms: N_8  and  N_9 
REMARK       I    between atoms: N_9  and  C_10 
REMARK    5  A    between atoms: C_10  and  C_11 
ROOT
HETATM    1  N   UNL     1     -42.986  57.587 -56.837  1.00  0.00    -0.282 N 
HETATM    2  C   UNL     1     -42.739  56.544 -55.921  1.00  0.00     0.204 A 
HETATM    3  N   UNL     1     -43.141  56.557 -54.670  1.00  0.00    -0.217 NA
HETATM    4  C   UNL     1     -43.807  57.707 -54.261  1.00  0.00     0.090 A 
HETATM    5  C   UNL     1     -44.055  58.763 -55.095  1.00  0.00     0.103 A 
HETATM    6  S   UNL     1     -44.876  60.048 -54.318  1.00  0.00    -0.086 SA
HETATM    7  C   UNL     1     -44.876  59.180 -52.882  1.00  0.00    -0.008 A 
HETATM    8  C   UNL     1     -44.280  57.949 -52.967  1.00  0.00    -0.015 A 
HETATM    9  C   UNL     1     -44.302  57.249 -51.664  1.00  0.00     0.042 C 
HETATM   10  C   UNL     1     -45.316  58.110 -50.843  1.00  0.00     0.010 C 
HETATM   11  C   UNL     1     -45.393  59.507 -51.534  1.00  0.00     0.047 C 
HETATM   12  C   UNL     1     -43.656  58.764 -56.468  1.00  0.00     0.269 A 
HETATM   13  O   UNL     1     -43.869  59.693 -57.246  1.00  0.00    -0.266 OA
ENDROOT
BRANCH   2  14
HETATM   14  N   UNL     1     -42.035  55.440 -56.377  1.00  0.00    -0.170 NA
HETATM   15  H   UNL     1     -41.213  55.632 -56.951  1.00  0.00     0.156 HD
BRANCH  14  16
HETATM   16  N   UNL     1     -41.770  54.429 -55.441  1.00  0.00    -0.279 N 
HETATM   17  C   UNL     1     -40.518  54.392 -54.861  1.00  0.00     0.289 C 
HETATM   18  O   UNL     1     -39.704  55.299 -55.048  1.00  0.00    -0.264 OA
HETATM   19  H   UNL     1     -42.493  53.730 -55.282  1.00  0.00     0.184 HD
BRANCH  17  20
HETATM   20  C   UNL     1     -40.251  53.215 -54.069  1.00  0.00     0.145 A 
HETATM   21  O   UNL     1     -40.251  53.307 -52.702  1.00  0.00    -0.304 OA
HETATM   22  C   UNL     1     -40.062  52.050 -52.214  1.00  0.00     0.086 A 
HETATM   23  C   UNL     1     -39.911  51.143 -53.257  1.00  0.00     0.001 A 
HETATM   24  C   UNL     1     -40.034  51.701 -50.865  1.00  0.00     0.038 A 
HETATM   25  C   UNL     1     -40.026  51.904 -54.447  1.00  0.00     0.057 A 
HETATM   26  C   UNL     1     -39.711  49.787 -52.944  1.00  0.00     0.014 A 
HETATM   27  C   UNL     1     -39.681  49.404 -51.596  1.00  0.00     0.001 A 
HETATM   28  C   UNL     1     -39.842  50.346 -50.575  1.00  0.00     0.003 A 
ENDBRANCH  17  20
ENDBRANCH  14  16
ENDBRANCH   2  14
BRANCH   1  29
HETATM   29  C   UNL     1     -42.662  57.461 -58.259  1.00  0.00     0.173 C 
BRANCH  29  30
HETATM   30  C   UNL     1     -43.738  56.725 -59.032  1.00  0.00    -0.040 A 
HETATM   31  C   UNL     1     -43.477  55.461 -59.581  1.00  0.00     0.009 A 
HETATM   32  C   UNL     1     -44.454  54.787 -60.314  1.00  0.00     0.001 A 
HETATM   33  C   UNL     1     -45.705  55.368 -60.510  1.00  0.00     0.000 A 
HETATM   34  C   UNL     1     -45.979  56.622 -59.971  1.00  0.00     0.001 A 
HETATM   35  C   UNL     1     -45.003  57.297 -59.235  1.00  0.00     0.009 A 
ENDBRANCH  29  30
ENDBRANCH   1  29
TORSDOF 5
ENDMDL
MODEL 3
REMARK VINA RESULT:      -9.3      2.335      2.974
REMARK  5 active torsions:
REMARK  status: ('A' for Active; 'I' for Inactive)
REMARK    1  A    between atoms: C_4  and  C_5 
REMARK    2  A    between atoms: C_5  and  N_6 
REMARK    3  A    between atoms: C_7  and  N_8 
REMARK    4  A    between atoms: N_8  and  N_9 
REMARK       I    between atoms: N_9  and  C_10 
REMARK    5  A    between atoms: C_10  and  C_11 
ROOT
HETATM    1  N   UNL     1     -43.227  58.823 -53.922  1.00  0.00    -0.282 N 
HETATM    2  C   UNL     1     -43.296  57.415 -53.962  1.00  0.00     0.204 A 
HETATM    3  N   UNL     1     -43.240  56.711 -55.070  1.00  0.00    -0.217 NA
HETATM    4  C   UNL     1     -43.151  57.444 -56.249  1.00  0.00     0.090 A 
HETATM    5  C   UNL     1     -43.106  58.812 -56.276  1.00  0.00     0.103 A 
HETATM    6  S   UNL     1     -43.015  59.443 -57.864  1.00  0.00    -0.086 SA
HETATM    7  C   UNL     1     -43.049  57.886 -58.487  1.00  0.00    -0.008 A 
HETATM    8  C   UNL     1     -43.124  56.900 -57.537  1.00  0.00    -0.015 A 
HETATM    9  C   UNL     1     -43.167  55.558 -58.156  1.00  0.00     0.042 C 
HETATM   10  C   UNL     1     -42.759  55.862 -59.635  1.00  0.00     0.010 C 
HETATM   11  C   UNL     1     -43.026  57.381 -59.878  1.00  0.00     0.047 C 
HETATM   12  C   UNL     1     -43.135  59.602 -55.086  1.00  0.00     0.269 A 
HETATM   13  O   UNL     1     -43.089  60.832 -55.075  1.00  0.00    -0.266 OA
ENDROOT
BRANCH   2  14
HETATM   14  N   UNL     1     -43.424  56.742 -52.758  1.00  0.00    -0.170 NA
HETATM   15  H   UNL     1     -44.329  56.815 -52.291  1.00  0.00     0.156 HD
BRANCH  14  16
HETATM   16  N   UNL     1     -42.940  55.426 -52.714  1.00  0.00    -0.279 N 
HETATM   17  C   UNL     1     -41.739  55.196 -52.074  1.00  0.00     0.289 C 
HETATM   18  O   UNL     1     -41.177  56.089 -51.436  1.00  0.00    -0.264 OA
HETATM   19  H   UNL     1     -43.466  54.711 -53.213  1.00  0.00     0.184 HD
BRANCH  17  20
HETATM   20  C   UNL     1     -41.207  53.865 -52.243  1.00  0.00     0.145 A 
HETATM   21  O   UNL     1     -41.218  53.285 -53.485  1.00  0.00    -0.304 OA
HETATM   22  C   UNL     1     -40.585  52.085 -53.375  1.00  0.00     0.086 A 
HETATM   23  C   UNL     1     -40.184  51.867 -52.062  1.00  0.00     0.001 A 
HETATM   24  C   UNL     1     -40.351  51.195 -54.421  1.00  0.00     0.038 A 
HETATM   25  C   UNL     1     -40.596  53.015 -51.339  1.00  0.00     0.057 A 
HETATM   26  C   UNL     1     -39.505  50.675 -51.755  1.00  0.00     0.014 A 
HETATM   27  C   UNL     1     -39.252  49.761 -52.787  1.00  0.00     0.001 A 
HETATM   28  C   UNL     1     -39.666  50.019 -54.097  1.00  0.00     0.003 A 
ENDBRANCH  17  20
ENDBRANCH  14  16
ENDBRANCH   2  14
BRANCH   1  29
HETATM   29  C   UNL     1     -43.131  59.557 -52.659  1.00  0.00     0.173 C 
BRANCH  29  30
HETATM   30  C   UNL     1     -41.754  59.450 -52.033  1.00  0.00    -0.040 A 
HETATM   31  C   UNL     1     -41.583  59.669 -50.658  1.00  0.00     0.009 A 
HETATM   32  C   UNL     1     -40.315  59.596 -50.078  1.00  0.00     0.001 A 
HETATM   33  C   UNL     1     -39.204  59.305 -50.865  1.00  0.00     0.000 A 
HETATM   34  C   UNL     1     -39.359  59.084 -52.231  1.00  0.00     0.001 A 
HETATM   35  C   UNL     1     -40.626  59.154 -52.813  1.00  0.00     0.009 A 
ENDBRANCH  29  30
ENDBRANCH   1  29
TORSDOF 5
ENDMDL
MODEL 4
REMARK VINA RESULT:      -9.2      3.132      7.779
REMARK  5 active torsions:
REMARK  status: ('A' for Active; 'I' for Inactive)
REMARK    1  A    between atoms: C_4  and  C_5 
REMARK    2  A    between atoms: C_5  and  N_6 
REMARK    3  A    between atoms: C_7  and  N_8 
REMARK    4  A    between atoms: N_8  and  N_9 
REMARK       I    between atoms: N_9  and  C_10 
REMARK    5  A    between atoms: C_10  and  C_11 
ROOT
HETATM    1  N   UNL     1     -41.398  55.916 -52.383  1.00  0.00    -0.282 N 
HETATM    2  C   UNL     1     -41.075  55.567 -53.710  1.00  0.00     0.204 A 
HETATM    3  N   UNL     1     -40.672  54.371 -54.075  1.00  0.00    -0.217 NA
HETATM    4  C   UNL     1     -40.529  53.442 -53.050  1.00  0.00     0.090 A 
HETATM    5  C   UNL     1     -40.802  53.728 -51.740  1.00  0.00     0.103 A 
HETATM    6  S   UNL     1     -40.520  52.401 -50.696  1.00  0.00    -0.086 SA
HETATM    7  C   UNL     1     -40.028  51.474 -52.005  1.00  0.00    -0.008 A 
HETATM    8  C   UNL     1     -40.071  52.130 -53.208  1.00  0.00    -0.015 A 
HETATM    9  C   UNL     1     -39.610  51.260 -54.312  1.00  0.00     0.042 C 
HETATM   10  C   UNL     1     -39.600  49.849 -53.639  1.00  0.00     0.010 C 
HETATM   11  C   UNL     1     -39.543  50.079 -52.096  1.00  0.00     0.047 C 
HETATM   12  C   UNL     1     -41.271  55.010 -51.318  1.00  0.00     0.269 A 
HETATM   13  O   UNL     1     -41.532  55.298 -50.151  1.00  0.00    -0.266 OA
ENDROOT
BRANCH   2  14
HETATM   14  N   UNL     1     -41.200  56.547 -54.682  1.00  0.00    -0.170 NA
HETATM   15  H   UNL     1     -40.356  57.078 -54.901  1.00  0.00     0.156 HD
BRANCH  14  16
HETATM   16  N   UNL     1     -41.890  56.194 -55.852  1.00  0.00    -0.279 N 
HETATM   17  C   UNL     1     -42.477  57.202 -56.589  1.00  0.00     0.289 C 
HETATM   18  O   UNL     1     -42.283  58.388 -56.313  1.00  0.00    -0.264 OA
HETATM   19  H   UNL     1     -41.981  55.204 -56.067  1.00  0.00     0.184 HD
BRANCH  17  20
HETATM   20  C   UNL     1     -43.335  56.751 -57.659  1.00  0.00     0.145 A 
HETATM   21  O   UNL     1     -44.569  57.325 -57.823  1.00  0.00    -0.304 OA
HETATM   22  C   UNL     1     -45.120  56.780 -58.942  1.00  0.00     0.086 A 
HETATM   23  C   UNL     1     -44.264  55.834 -59.493  1.00  0.00     0.001 A 
HETATM   24  C   UNL     1     -46.359  57.120 -59.481  1.00  0.00     0.038 A 
HETATM   25  C   UNL     1     -43.121  55.816 -58.655  1.00  0.00     0.057 A 
HETATM   26  C   UNL     1     -44.664  55.166 -60.663  1.00  0.00     0.014 A 
HETATM   27  C   UNL     1     -45.904  55.488 -61.231  1.00  0.00     0.001 A 
HETATM   28  C   UNL     1     -46.736  56.451 -60.650  1.00  0.00     0.003 A 
ENDBRANCH  17  20
ENDBRANCH  14  16
ENDBRANCH   2  14
BRANCH   1  29
HETATM   29  C   UNL     1     -41.997  57.209 -52.047  1.00  0.00     0.173 C 
BRANCH  29  30
HETATM   30  C   UNL     1     -40.991  58.175 -51.454  1.00  0.00    -0.040 A 
HETATM   31  C   UNL     1     -39.760  58.394 -52.091  1.00  0.00     0.009 A 
HETATM   32  C   UNL     1     -38.818  59.264 -51.539  1.00  0.00     0.001 A 
HETATM   33  C   UNL     1     -39.093  59.923 -50.343  1.00  0.00     0.000 A 
HETATM   34  C   UNL     1     -40.310  59.715 -49.700  1.00  0.00     0.001 A 
HETATM   35  C   UNL     1     -41.255  58.848 -50.252  1.00  0.00     0.009 A 
ENDBRANCH  29  30
ENDBRANCH   1  29
TORSDOF 5
ENDMDL
MODEL 5
REMARK VINA RESULT:      -9.1      3.238      7.595
REMARK  5 active torsions:
REMARK  status: ('A' for Active; 'I' for Inactive)
REMARK    1  A    between atoms: C_4  and  C_5 
REMARK    2  A    between atoms: C_5  and  N_6 
REMARK    3  A    between atoms: C_7  and  N_8 
REMARK    4  A    between atoms: N_8  and  N_9 
REMARK       I    between atoms: N_9  and  C_10 
REMARK    5  A    between atoms: C_10  and  C_11 
ROOT
HETATM    1  N   UNL     1     -43.404  55.950 -52.673  1.00  0.00    -0.282 N 
HETATM    2  C   UNL     1     -43.459  55.249 -53.895  1.00  0.00     0.204 A 
HETATM    3  N   UNL     1     -42.717  54.201 -54.173  1.00  0.00    -0.217 NA
HETATM    4  C   UNL     1     -41.810  53.825 -53.188  1.00  0.00     0.090 A 
HETATM    5  C   UNL     1     -41.691  54.480 -51.992  1.00  0.00     0.103 A 
HETATM    6  S   UNL     1     -40.482  53.810 -50.983  1.00  0.00    -0.086 SA
HETATM    7  C   UNL     1     -40.131  52.668 -52.160  1.00  0.00    -0.008 A 
HETATM    8  C   UNL     1     -40.897  52.771 -53.292  1.00  0.00    -0.015 A 
HETATM    9  C   UNL     1     -40.522  51.746 -54.291  1.00  0.00     0.042 C 
HETATM   10  C   UNL     1     -39.630  50.776 -53.450  1.00  0.00     0.010 C 
HETATM   11  C   UNL     1     -39.133  51.575 -52.205  1.00  0.00     0.047 C 
HETATM   12  C   UNL     1     -42.506  55.604 -51.651  1.00  0.00     0.269 A 
HETATM   13  O   UNL     1     -42.430  56.210 -50.584  1.00  0.00    -0.266 OA
ENDROOT
BRANCH   2  14
HETATM   14  N   UNL     1     -44.356  55.695 -54.853  1.00  0.00    -0.170 NA
HETATM   15  H   UNL     1     -45.328  55.790 -54.555  1.00  0.00     0.156 HD
BRANCH  14  16
HETATM   16  N   UNL     1     -43.958  56.795 -55.629  1.00  0.00    -0.279 N 
HETATM   17  C   UNL     1     -43.299  56.548 -56.816  1.00  0.00     0.289 C 
HETATM   18  O   UNL     1     -43.187  55.401 -57.255  1.00  0.00    -0.264 OA
HETATM   19  H   UNL     1     -44.118  57.725 -55.248  1.00  0.00     0.184 HD
BRANCH  17  20
HETATM   20  C   UNL     1     -42.744  57.717 -57.456  1.00  0.00     0.145 A 
HETATM   21  O   UNL     1     -42.802  57.831 -58.821  1.00  0.00    -0.304 OA
HETATM   22  C   UNL     1     -42.294  59.051 -59.144  1.00  0.00     0.086 A 
HETATM   23  C   UNL     1     -41.880  59.723 -58.000  1.00  0.00     0.001 A 
HETATM   24  C   UNL     1     -42.204  59.576 -60.432  1.00  0.00     0.038 A 
HETATM   25  C   UNL     1     -42.167  58.852 -56.919  1.00  0.00     0.057 A 
HETATM   26  C   UNL     1     -41.330  61.009 -58.137  1.00  0.00     0.014 A 
HETATM   27  C   UNL     1     -41.230  61.565 -59.420  1.00  0.00     0.001 A 
HETATM   28  C   UNL     1     -41.663  60.860 -60.547  1.00  0.00     0.003 A 
ENDBRANCH  17  20
ENDBRANCH  14  16
ENDBRANCH   2  14
BRANCH   1  29
HETATM   29  C   UNL     1     -44.360  57.009 -52.345  1.00  0.00     0.173 C 
BRANCH  29  30
HETATM   30  C   UNL     1     -43.712  58.379 -52.305  1.00  0.00    -0.040 A 
HETATM   31  C   UNL     1     -44.090  59.313 -51.329  1.00  0.00     0.009 A 
HETATM   32  C   UNL     1     -43.515  60.584 -51.299  1.00  0.00     0.001 A 
HETATM   33  C   UNL     1     -42.557  60.939 -52.246  1.00  0.00     0.000 A 
HETATM   34  C   UNL     1     -42.172  60.022 -53.221  1.00  0.00     0.001 A 
HETATM   35  C   UNL     1     -42.744  58.749 -53.251  1.00  0.00     0.009 A 
ENDBRANCH  29  30
ENDBRANCH   1  29
TORSDOF 5
ENDMDL
MODEL 6
REMARK VINA RESULT:      -8.9      2.673      7.400
REMARK  5 active torsions:
REMARK  status: ('A' for Active; 'I' for Inactive)
REMARK    1  A    between atoms: C_4  and  C_5 
REMARK    2  A    between atoms: C_5  and  N_6 
REMARK    3  A    between atoms: C_7  and  N_8 
REMARK    4  A    between atoms: N_8  and  N_9 
REMARK       I    between atoms: N_9  and  C_10 
REMARK    5  A    between atoms: C_10  and  C_11 
ROOT
HETATM    1  N   UNL     1     -42.528  55.230 -54.499  1.00  0.00    -0.282 N 
HETATM    2  C   UNL     1     -41.923  56.482 -54.265  1.00  0.00     0.204 A 
HETATM    3  N   UNL     1     -41.822  57.428 -55.172  1.00  0.00    -0.217 NA
HETATM    4  C   UNL     1     -42.316  57.110 -56.433  1.00  0.00     0.090 A 
HETATM    5  C   UNL     1     -42.890  55.904 -56.728  1.00  0.00     0.103 A 
HETATM    6  S   UNL     1     -43.391  55.786 -58.361  1.00  0.00    -0.086 SA
HETATM    7  C   UNL     1     -42.824  57.339 -58.648  1.00  0.00    -0.008 A 
HETATM    8  C   UNL     1     -42.269  57.948 -57.552  1.00  0.00    -0.015 A 
HETATM    9  C   UNL     1     -41.777  59.303 -57.881  1.00  0.00     0.042 C 
HETATM   10  C   UNL     1     -42.428  59.562 -59.279  1.00  0.00     0.010 C 
HETATM   11  C   UNL     1     -42.800  58.167 -59.874  1.00  0.00     0.047 C 
HETATM   12  C   UNL     1     -43.041  54.869 -55.754  1.00  0.00     0.269 A 
HETATM   13  O   UNL     1     -43.559  53.777 -55.984  1.00  0.00    -0.266 OA
ENDROOT
BRANCH   2  14
HETATM   14  N   UNL     1     -41.413  56.725 -52.999  1.00  0.00    -0.170 NA
HETATM   15  H   UNL     1     -40.447  56.440 -52.837  1.00  0.00     0.156 HD
BRANCH  14  16
HETATM   16  N   UNL     1     -41.663  57.991 -52.449  1.00  0.00    -0.279 N 
HETATM   17  C   UNL     1     -42.664  58.103 -51.504  1.00  0.00     0.289 C 
HETATM   18  O   UNL     1     -43.225  57.103 -51.051  1.00  0.00    -0.264 OA
HETATM   19  H   UNL     1     -41.138  58.780 -52.819  1.00  0.00     0.184 HD
BRANCH  17  20
HETATM   20  C   UNL     1     -43.000  59.457 -51.135  1.00  0.00     0.145 A 
HETATM   21  O   UNL     1     -44.274  59.748 -50.720  1.00  0.00    -0.304 OA
HETATM   22  C   UNL     1     -44.289  61.059 -50.355  1.00  0.00     0.086 A 
HETATM   23  C   UNL     1     -43.038  61.632 -50.554  1.00  0.00     0.001 A 
HETATM   24  C   UNL     1     -45.388  61.743 -49.840  1.00  0.00     0.038 A 
HETATM   25  C   UNL     1     -42.218  60.595 -51.064  1.00  0.00     0.057 A 
HETATM   26  C   UNL     1     -42.860  62.987 -50.226  1.00  0.00     0.014 A 
HETATM   27  C   UNL     1     -43.946  63.702 -49.702  1.00  0.00     0.001 A 
HETATM   28  C   UNL     1     -45.188  63.088 -49.511  1.00  0.00     0.003 A 
ENDBRANCH  17  20
ENDBRANCH  14  16
ENDBRANCH   2  14
BRANCH   1  29
HETATM   29  C   UNL     1     -42.763  54.271 -53.418  1.00  0.00     0.173 C 
BRANCH  29  30
HETATM   30  C   UNL     1     -41.560  53.387 -53.158  1.00  0.00    -0.040 A 
HETATM   31  C   UNL     1     -41.051  52.567 -54.177  1.00  0.00     0.009 A 
HETATM   32  C   UNL     1     -39.958  51.733 -53.940  1.00  0.00     0.001 A 
HETATM   33  C   UNL     1     -39.360  51.705 -52.683  1.00  0.00     0.000 A 
HETATM   34  C   UNL     1     -39.854  52.514 -51.662  1.00  0.00     0.001 A 
HETATM   35  C   UNL     1     -40.946  53.352 -51.898  1.00  0.00     0.009 A 
ENDBRANCH  29  30
ENDBRANCH   1  29
TORSDOF 5
ENDMDL
MODEL 7
REMARK VINA RESULT:      -8.8      2.585      7.317
REMARK  5 active torsions:
REMARK  status: ('A' for Active; 'I' for Inactive)
REMARK    1  A    between atoms: C_4  and  C_5 
REMARK    2  A    between atoms: C_5  and  N_6 
REMARK    3  A    between atoms: C_7  and  N_8 
REMARK    4  A    between atoms: N_8  and  N_9 
REMARK       I    between atoms: N_9  and  C_10 
REMARK    5  A    between atoms: C_10  and  C_11 
ROOT
HETATM    1  N   UNL     1     -41.050  56.495 -52.046  1.00  0.00    -0.282 N 
HETATM    2  C   UNL     1     -41.117  56.185 -53.421  1.00  0.00     0.204 A 
HETATM    3  N   UNL     1     -40.932  54.980 -53.910  1.00  0.00    -0.217 NA
HETATM    4  C   UNL     1     -40.609  53.995 -52.983  1.00  0.00     0.090 A 
HETATM    5  C   UNL     1     -40.504  54.238 -51.640  1.00  0.00     0.103 A 
HETATM    6  S   UNL     1     -40.078  52.844 -50.742  1.00  0.00    -0.086 SA
HETATM    7  C   UNL     1     -40.030  51.945 -52.158  1.00  0.00    -0.008 A 
HETATM    8  C   UNL     1     -40.327  52.660 -53.289  1.00  0.00    -0.015 A 
HETATM    9  C   UNL     1     -40.250  51.810 -54.498  1.00  0.00     0.042 C 
HETATM   10  C   UNL     1     -40.190  50.372 -53.888  1.00  0.00     0.010 C 
HETATM   11  C   UNL     1     -39.712  50.522 -52.409  1.00  0.00     0.047 C 
HETATM   12  C   UNL     1     -40.731  55.531 -51.077  1.00  0.00     0.269 A 
HETATM   13  O   UNL     1     -40.651  55.783 -49.875  1.00  0.00    -0.266 OA
ENDROOT
BRANCH   2  14
HETATM   14  N   UNL     1     -41.404  57.218 -54.300  1.00  0.00    -0.170 NA
HETATM   15  H   UNL     1     -40.642  57.866 -54.502  1.00  0.00     0.156 HD
BRANCH  14  16
HETATM   16  N   UNL     1     -42.099  56.877 -55.470  1.00  0.00    -0.279 N 
HETATM   17  C   UNL     1     -42.507  57.899 -56.304  1.00  0.00     0.289 C 
HETATM   18  O   UNL     1     -42.152  59.063 -56.105  1.00  0.00    -0.264 OA
HETATM   19  H   UNL     1     -42.325  55.896 -55.618  1.00  0.00     0.184 HD
BRANCH  17  20
HETATM   20  C   UNL     1     -43.386  57.493 -57.375  1.00  0.00     0.145 A 
HETATM   21  O   UNL     1     -42.986  56.506 -58.239  1.00  0.00    -0.304 OA
HETATM   22  C   UNL     1     -44.027  56.265 -59.083  1.00  0.00     0.086 A 
HETATM   23  C   UNL     1     -45.093  57.108 -58.791  1.00  0.00     0.001 A 
HETATM   24  C   UNL     1     -44.045  55.305 -60.092  1.00  0.00     0.038 A 
HETATM   25  C   UNL     1     -44.667  57.901 -57.696  1.00  0.00     0.057 A 
HETATM   26  C   UNL     1     -46.265  57.000 -59.559  1.00  0.00     0.014 A 
HETATM   27  C   UNL     1     -46.314  56.041 -60.581  1.00  0.00     0.001 A 
HETATM   28  C   UNL     1     -45.222  55.207 -60.840  1.00  0.00     0.003 A 
ENDBRANCH  17  20
ENDBRANCH  14  16
ENDBRANCH   2  14
BRANCH   1  29
HETATM   29  C   UNL     1     -41.423  57.814 -51.532  1.00  0.00     0.173 C 
BRANCH  29  30
HETATM   30  C   UNL     1     -42.922  58.037 -51.548  1.00  0.00    -0.040 A 
HETATM   31  C   UNL     1     -43.455  59.223 -52.074  1.00  0.00     0.009 A 
HETATM   32  C   UNL     1     -44.833  59.447 -52.072  1.00  0.00     0.001 A 
HETATM   33  C   UNL     1     -45.695  58.489 -51.544  1.00  0.00     0.000 A 
HETATM   34  C   UNL     1     -45.180  57.306 -51.019  1.00  0.00     0.001 A 
HETATM   35  C   UNL     1     -43.802  57.079 -51.022  1.00  0.00     0.009 A 
ENDBRANCH  29  30
ENDBRANCH   1  29
TORSDOF 5
ENDMDL
MODEL 8
REMARK VINA RESULT:      -8.8      2.492      5.828
REMARK  5 active torsions:
REMARK  status: ('A' for Active; 'I' for Inactive)
REMARK    1  A    between atoms: C_4  and  C_5 
REMARK    2  A    between atoms: C_5  and  N_6 
REMARK    3  A    between atoms: C_7  and  N_8 
REMARK    4  A    between atoms: N_8  and  N_9 
REMARK       I    between atoms: N_9  and  C_10 
REMARK    5  A    between atoms: C_10  and  C_11 
ROOT
HETATM    1  N   UNL     1     -43.379  58.118 -55.761  1.00  0.00    -0.282 N 
HETATM    2  C   UNL     1     -42.238  57.449 -55.272  1.00  0.00     0.204 A 
HETATM    3  N   UNL     1     -41.670  57.716 -54.118  1.00  0.00    -0.217 NA
HETATM    4  C   UNL     1     -42.239  58.757 -53.391  1.00  0.00     0.090 A 
HETATM    5  C   UNL     1     -43.331  59.460 -53.824  1.00  0.00     0.103 A 
HETATM    6  S   UNL     1     -43.802  60.694 -52.735  1.00  0.00    -0.086 SA
HETATM    7  C   UNL     1     -42.537  60.278 -51.714  1.00  0.00    -0.008 A 
HETATM    8  C   UNL     1     -41.770  59.235 -52.164  1.00  0.00    -0.015 A 
HETATM    9  C   UNL     1     -40.667  58.934 -51.225  1.00  0.00     0.042 C 
HETATM   10  C   UNL     1     -41.086  59.741 -49.953  1.00  0.00     0.010 C 
HETATM   11  C   UNL     1     -42.091  60.840 -50.420  1.00  0.00     0.047 C 
HETATM   12  C   UNL     1     -43.987  59.171 -55.060  1.00  0.00     0.269 A 
HETATM   13  O   UNL     1     -44.974  59.779 -55.474  1.00  0.00    -0.266 OA
ENDROOT
BRANCH   2  14
HETATM   14  N   UNL     1     -41.692  56.448 -56.060  1.00  0.00    -0.170 NA
HETATM   15  H   UNL     1     -41.094  56.751 -56.829  1.00  0.00     0.156 HD
BRANCH  14  16
HETATM   16  N   UNL     1     -41.132  55.350 -55.389  1.00  0.00    -0.279 N 
HETATM   17  C   UNL     1     -41.950  54.272 -55.111  1.00  0.00     0.289 C 
HETATM   18  O   UNL     1     -43.096  54.211 -55.561  1.00  0.00    -0.264 OA
HETATM   19  H   UNL     1     -40.165  55.425 -55.082  1.00  0.00     0.184 HD
BRANCH  17  20
HETATM   20  C   UNL     1     -41.365  53.274 -54.248  1.00  0.00     0.145 A 
HETATM   21  O   UNL     1     -41.117  52.019 -54.738  1.00  0.00    -0.304 OA
HETATM   22  C   UNL     1     -40.492  51.319 -53.752  1.00  0.00     0.086 A 
HETATM   23  C   UNL     1     -40.355  52.102 -52.612  1.00  0.00     0.001 A 
HETATM   24  C   UNL     1     -40.035  50.006 -53.856  1.00  0.00     0.038 A 
HETATM   25  C   UNL     1     -40.928  53.357 -52.938  1.00  0.00     0.057 A 
HETATM   26  C   UNL     1     -39.725  51.547 -51.485  1.00  0.00     0.014 A 
HETATM   27  C   UNL     1     -39.251  50.229 -51.561  1.00  0.00     0.001 A 
HETATM   28  C   UNL     1     -39.403  49.474 -52.728  1.00  0.00     0.003 A 
ENDBRANCH  17  20
ENDBRANCH  14  16
ENDBRANCH   2  14
BRANCH   1  29
HETATM   29  C   UNL     1     -44.073  57.679 -56.973  1.00  0.00     0.173 C 
BRANCH  29  30
HETATM   30  C   UNL     1     -43.342  58.090 -58.236  1.00  0.00    -0.040 A 
HETATM   31  C   UNL     1     -43.013  57.132 -59.207  1.00  0.00     0.009 A 
HETATM   32  C   UNL     1     -42.320  57.497 -60.362  1.00  0.00     0.001 A 
HETATM   33  C   UNL     1     -41.945  58.824 -60.560  1.00  0.00     0.000 A 
HETATM   34  C   UNL     1     -42.265  59.786 -59.606  1.00  0.00     0.001 A 
HETATM   35  C   UNL     1     -42.961  59.423 -58.451  1.00  0.00     0.009 A 
ENDBRANCH  29  30
ENDBRANCH   1  29
TORSDOF 5
ENDMDL
MODEL 9
REMARK VINA RESULT:      -8.6      5.045      8.202
REMARK  5 active torsions:
REMARK  status: ('A' for Active; 'I' for Inactive)
REMARK    1  A    between atoms: C_4  and  C_5 
REMARK    2  A    between atoms: C_5  and  N_6 
REMARK    3  A    between atoms: C_7  and  N_8 
REMARK    4  A    between atoms: N_8  and  N_9 
REMARK       I    between atoms: N_9  and  C_10 
REMARK    5  A    between atoms: C_10  and  C_11 
ROOT
HETATM    1  N   UNL     1     -44.198  61.122 -50.773  1.00  0.00    -0.282 N 
HETATM    2  C   UNL     1     -45.135  60.262 -50.163  1.00  0.00     0.204 A 
HETATM    3  N   UNL     1     -45.821  60.571 -49.086  1.00  0.00    -0.217 NA
HETATM    4  C   UNL     1     -45.539  61.813 -48.526  1.00  0.00     0.090 A 
HETATM    5  C   UNL     1     -44.623  62.680 -49.056  1.00  0.00     0.103 A 
HETATM    6  S   UNL     1     -44.471  64.124 -48.148  1.00  0.00    -0.086 SA
HETATM    7  C   UNL     1     -45.619  63.562 -47.061  1.00  0.00    -0.008 A 
HETATM    8  C   UNL     1     -46.118  62.321 -47.359  1.00  0.00    -0.015 A 
HETATM    9  C   UNL     1     -47.110  61.884 -46.353  1.00  0.00     0.042 C 
HETATM   10  C   UNL     1     -47.393  63.208 -45.570  1.00  0.00     0.010 C 
HETATM   11  C   UNL     1     -46.182  64.159 -45.830  1.00  0.00     0.047 C 
HETATM   12  C   UNL     1     -43.885  62.383 -50.243  1.00  0.00     0.269 A 
HETATM   13  O   UNL     1     -43.059  63.143 -50.748  1.00  0.00    -0.266 OA
ENDROOT
BRANCH   2  14
HETATM   14  N   UNL     1     -45.344  59.021 -50.746  1.00  0.00    -0.170 NA
HETATM   15  H   UNL     1     -45.779  59.021 -51.669  1.00  0.00     0.156 HD
BRANCH  14  16
HETATM   16  N   UNL     1     -44.278  58.110 -50.692  1.00  0.00    -0.279 N 
HETATM   17  C   UNL     1     -44.088  57.268 -51.770  1.00  0.00     0.289 C 
HETATM   18  O   UNL     1     -44.741  57.405 -52.807  1.00  0.00    -0.264 OA
HETATM   19  H   UNL     1     -43.733  58.069 -49.834  1.00  0.00     0.184 HD
BRANCH  17  20
HETATM   20  C   UNL     1     -43.108  56.229 -51.562  1.00  0.00     0.145 A 
HETATM   21  O   UNL     1     -42.902  55.290 -52.539  1.00  0.00    -0.304 OA
HETATM   22  C   UNL     1     -41.878  54.495 -52.123  1.00  0.00     0.086 A 
HETATM   23  C   UNL     1     -41.432  54.895 -50.869  1.00  0.00     0.001 A 
HETATM   24  C   UNL     1     -41.331  53.436 -52.845  1.00  0.00     0.038 A 
HETATM   25  C   UNL     1     -42.236  56.007 -50.512  1.00  0.00     0.057 A 
HETATM   26  C   UNL     1     -40.369  54.191 -50.277  1.00  0.00     0.014 A 
HETATM   27  C   UNL     1     -39.795  53.123 -50.981  1.00  0.00     0.001 A 
HETATM   28  C   UNL     1     -40.269  52.754 -52.244  1.00  0.00     0.003 A 
ENDBRANCH  17  20
ENDBRANCH  14  16
ENDBRANCH   2  14
BRANCH   1  29
HETATM   29  C   UNL     1     -43.577  60.802 -52.059  1.00  0.00     0.173 C 
BRANCH  29  30
HETATM   30  C   UNL     1     -42.219  60.148 -51.898  1.00  0.00    -0.040 A 
HETATM   31  C   UNL     1     -41.580  59.564 -53.002  1.00  0.00     0.009 A 
HETATM   32  C   UNL     1     -40.340  58.939 -52.858  1.00  0.00     0.001 A 
HETATM   33  C   UNL     1     -39.725  58.889 -51.609  1.00  0.00     0.000 A 
HETATM   34  C   UNL     1     -40.347  59.465 -50.505  1.00  0.00     0.001 A 
HETATM   35  C   UNL     1     -41.586  60.093 -50.648  1.00  0.00     0.009 A 
ENDBRANCH  29  30
ENDBRANCH   1  29
TORSDOF 5
ENDMDL
MODEL 10
REMARK VINA RESULT:      -8.6      2.155      5.748
REMARK  5 active torsions:
REMARK  status: ('A' for Active; 'I' for Inactive)
REMARK    1  A    between atoms: C_4  and  C_5 
REMARK    2  A    between atoms: C_5  and  N_6 
REMARK    3  A    between atoms: C_7  and  N_8 
REMARK    4  A    between atoms: N_8  and  N_9 
REMARK       I    between atoms: N_9  and  C_10 
REMARK    5  A    between atoms: C_10  and  C_11 
ROOT
HETATM    1  N   UNL     1     -44.875  58.765 -55.939  1.00  0.00    -0.282 N 
HETATM    2  C   UNL     1     -44.602  57.904 -54.856  1.00  0.00     0.204 A 
HETATM    3  N   UNL     1     -44.267  58.321 -53.656  1.00  0.00    -0.217 NA
HETATM    4  C   UNL     1     -44.143  59.698 -53.507  1.00  0.00     0.090 A 
HETATM    5  C   UNL     1     -44.369  60.583 -54.526  1.00  0.00     0.103 A 
HETATM    6  S   UNL     1     -44.126  62.212 -54.060  1.00  0.00    -0.086 SA
HETATM    7  C   UNL     1     -43.713  61.709 -52.514  1.00  0.00    -0.008 A 
HETATM    8  C   UNL     1     -43.754  60.351 -52.333  1.00  0.00    -0.015 A 
HETATM    9  C   UNL     1     -43.364  59.979 -50.955  1.00  0.00     0.042 C 
HETATM   10  C   UNL     1     -43.406  61.357 -50.217  1.00  0.00     0.010 C 
HETATM   11  C   UNL     1     -43.299  62.465 -51.311  1.00  0.00     0.047 C 
HETATM   12  C   UNL     1     -44.765  60.160 -55.833  1.00  0.00     0.269 A 
HETATM   13  O   UNL     1     -44.982  60.929 -56.769  1.00  0.00    -0.266 OA
ENDROOT
BRANCH   2  14
HETATM   14  N   UNL     1     -44.704  56.540 -55.077  1.00  0.00    -0.170 NA
HETATM   15  H   UNL     1     -44.769  56.242 -56.051  1.00  0.00     0.156 HD
BRANCH  14  16
HETATM   16  N   UNL     1     -43.826  55.715 -54.356  1.00  0.00    -0.279 N 
HETATM   17  C   UNL     1     -42.716  55.220 -55.009  1.00  0.00     0.289 C 
HETATM   18  O   UNL     1     -42.423  55.601 -56.145  1.00  0.00    -0.264 OA
HETATM   19  H   UNL     1     -44.084  55.469 -53.402  1.00  0.00     0.184 HD
BRANCH  17  20
HETATM   20  C   UNL     1     -41.973  54.225 -54.273  1.00  0.00     0.145 A 
HETATM   21  O   UNL     1     -41.589  53.068 -54.901  1.00  0.00    -0.304 OA
HETATM   22  C   UNL     1     -40.839  52.359 -54.013  1.00  0.00     0.086 A 
HETATM   23  C   UNL     1     -40.755  53.035 -52.800  1.00  0.00     0.001 A 
HETATM   24  C   UNL     1     -40.224  51.135 -54.269  1.00  0.00     0.038 A 
HETATM   25  C   UNL     1     -41.495  54.231 -52.976  1.00  0.00     0.057 A 
HETATM   26  C   UNL     1     -40.012  52.455 -51.758  1.00  0.00     0.014 A 
HETATM   27  C   UNL     1     -39.379  51.225 -51.986  1.00  0.00     0.001 A 
HETATM   28  C   UNL     1     -39.482  50.579 -53.222  1.00  0.00     0.003 A 
ENDBRANCH  17  20
ENDBRANCH  14  16
ENDBRANCH   2  14
BRANCH   1  29
HETATM   29  C   UNL     1     -45.401  58.265 -57.210  1.00  0.00     0.173 C 
BRANCH  29  30
HETATM   30  C   UNL     1     -44.307  57.760 -58.129  1.00  0.00    -0.040 A 
HETATM   31  C   UNL     1     -44.480  56.565 -58.845  1.00  0.00     0.009 A 
HETATM   32  C   UNL     1     -43.468  56.081 -59.675  1.00  0.00     0.001 A 
HETATM   33  C   UNL     1     -42.271  56.782 -59.800  1.00  0.00     0.000 A 
HETATM   34  C   UNL     1     -42.086  57.969 -59.096  1.00  0.00     0.001 A 
HETATM   35  C   UNL     1     -43.098  58.457 -58.267  1.00  0.00     0.009 A 
ENDBRANCH  29  30
ENDBRANCH   1  29
TORSDOF 5
ENDMDL
