MODEL 1
REMARK VINA RESULT:      -9.3      0.000      0.000
REMARK  6 active torsions:
REMARK  status: ('A' for Active; 'I' for Inactive)
REMARK    1  A    between atoms: C_3  and  C_4 
REMARK    2  A    between atoms: C_4  and  C_5 
REMARK       I    between atoms: C_5  and  N_6 
REMARK    3  A    between atoms: N_6  and  C_7 
REMARK    4  A    between atoms: C_7  and  C_8 
REMARK    5  A    between atoms: C_8  and  C_9 
REMARK    6  A    between atoms: C_28  and  O_29 
ROOT
HETATM    1  C   UNL     1     -42.655  56.387 -50.893  1.00  0.00     0.222 C 
HETATM    2  N   UNL     1     -42.944  57.630 -51.411  1.00  0.00    -0.360 N 
HETATM    3  O   UNL     1     -43.504  55.516 -50.719  1.00  0.00    -0.273 OA
HETATM    4  H   UNL     1     -42.186  58.275 -51.622  1.00  0.00     0.162 HD
ENDROOT
BRANCH   1   5
HETATM    5  C   UNL     1     -41.198  56.166 -50.533  1.00  0.00     0.148 C 
BRANCH   5   6
HETATM    6  C   UNL     1     -40.726  54.824 -51.028  1.00  0.00     0.033 C 
HETATM    7  C   UNL     1     -40.711  54.424 -52.316  1.00  0.00    -0.036 C 
HETATM    8  C   UNL     1     -41.113  55.308 -53.470  1.00  0.00     0.050 C 
HETATM    9  C   UNL     1     -40.302  53.039 -52.629  1.00  0.00     0.005 A 
HETATM   10  C   UNL     1     -40.108  52.130 -51.584  1.00  0.00     0.099 A 
HETATM   11  C   UNL     1     -40.146  52.564 -53.937  1.00  0.00     0.017 A 
HETATM   12  O   UNL     1     -40.141  52.582 -50.247  1.00  0.00    -0.274 OA
HETATM   13  C   UNL     1     -39.840  50.762 -51.794  1.00  0.00     0.006 A 
HETATM   14  C   UNL     1     -40.277  53.923 -49.938  1.00  0.00     0.295 C 
HETATM   15  O   UNL     1     -40.079  54.343 -48.800  1.00  0.00    -0.259 OA
HETATM   16  C   UNL     1     -39.703  49.815 -50.636  1.00  0.00     0.054 C 
HETATM   17  C   UNL     1     -39.678  50.337 -53.116  1.00  0.00     0.074 A 
HETATM   18  C   UNL     1     -39.826  51.225 -54.177  1.00  0.00     0.038 A 
BRANCH  17  19
HETATM   19  O   UNL     1     -39.367  49.053 -53.459  1.00  0.00    -0.360 OA
HETATM   20  H   UNL     1     -39.565  48.459 -52.718  1.00  0.00     0.217 HD
ENDBRANCH  17  19
ENDBRANCH   5   6
ENDBRANCH   1   5
BRANCH   2  21
HETATM   21  C   UNL     1     -44.318  58.010 -51.699  1.00  0.00     0.127 C 
BRANCH  21  22
HETATM   22  C   UNL     1     -44.440  58.705 -53.059  1.00  0.00     0.060 C 
BRANCH  22  23
HETATM   23  C   UNL     1     -44.121  57.803 -54.210  1.00  0.00    -0.029 A 
HETATM   24  C   UNL     1     -43.427  58.134 -55.417  1.00  0.00    -0.000 A 
HETATM   25  C   UNL     1     -43.396  56.984 -56.210  1.00  0.00     0.043 A 
HETATM   26  C   UNL     1     -42.827  59.309 -55.916  1.00  0.00     0.038 A 
HETATM   27  C   UNL     1     -42.803  56.947 -57.477  1.00  0.00     0.032 A 
HETATM   28  N   UNL     1     -44.038  55.991 -55.508  1.00  0.00    -0.365 N 
HETATM   29  C   UNL     1     -42.217  58.124 -57.950  1.00  0.00     0.026 A 
HETATM   30  C   UNL     1     -42.229  59.284 -57.179  1.00  0.00     0.035 A 
HETATM   31 CL   UNL     1     -41.495  60.717 -57.794  1.00  0.00    -0.084 Cl
HETATM   32  H   UNL     1     -44.170  55.046 -55.839  1.00  0.00     0.165 HD
HETATM   33  C   UNL     1     -44.476  56.472 -54.306  1.00  0.00     0.096 A 
ENDBRANCH  22  23
ENDBRANCH  21  22
ENDBRANCH   2  21
TORSDOF 6
ENDMDL
MODEL 2
REMARK VINA RESULT:      -9.2      1.917      2.527
REMARK  6 active torsions:
REMARK  status: ('A' for Active; 'I' for Inactive)
REMARK    1  A    between atoms: C_3  and  C_4 
REMARK    2  A    between atoms: C_4  and  C_5 
REMARK       I    between atoms: C_5  and  N_6 
REMARK    3  A    between atoms: N_6  and  C_7 
REMARK    4  A    between atoms: C_7  and  C_8 
REMARK    5  A    between atoms: C_8  and  C_9 
REMARK    6  A    between atoms: C_28  and  O_29 
ROOT
HETATM    1  C   UNL     1     -42.854  56.284 -52.964  1.00  0.00     0.222 C 
HETATM    2  N   UNL     1     -43.259  56.770 -54.187  1.00  0.00    -0.360 N 
HETATM    3  O   UNL     1     -43.639  55.899 -52.100  1.00  0.00    -0.273 OA
HETATM    4  H   UNL     1     -42.562  56.983 -54.898  1.00  0.00     0.162 HD
ENDROOT
BRANCH   1   5
HETATM    5  C   UNL     1     -41.353  56.269 -52.744  1.00  0.00     0.148 C 
BRANCH   5   6
HETATM    6  C   UNL     1     -40.846  54.856 -52.634  1.00  0.00     0.033 C 
HETATM    7  C   UNL     1     -40.638  54.014 -53.667  1.00  0.00    -0.036 C 
HETATM    8  C   UNL     1     -40.826  54.403 -55.112  1.00  0.00     0.050 C 
HETATM    9  C   UNL     1     -40.223  52.624 -53.384  1.00  0.00     0.005 A 
HETATM   10  C   UNL     1     -40.224  52.165 -52.063  1.00  0.00     0.099 A 
HETATM   11  C   UNL     1     -39.875  51.710 -54.386  1.00  0.00     0.017 A 
HETATM   12  O   UNL     1     -40.455  53.073 -51.007  1.00  0.00    -0.274 OA
HETATM   13  C   UNL     1     -39.963  50.825 -51.714  1.00  0.00     0.006 A 
HETATM   14  C   UNL     1     -40.602  54.429 -51.234  1.00  0.00     0.295 C 
HETATM   15  O   UNL     1     -40.575  55.241 -50.312  1.00  0.00    -0.259 OA
HETATM   16  C   UNL     1     -40.039  50.370 -50.284  1.00  0.00     0.054 C 
HETATM   17  C   UNL     1     -39.606  49.952 -52.746  1.00  0.00     0.074 A 
HETATM   18  C   UNL     1     -39.558  50.387 -54.067  1.00  0.00     0.038 A 
BRANCH  17  19
HETATM   19  O   UNL     1     -39.280  48.642 -52.543  1.00  0.00    -0.360 OA
HETATM   20  H   UNL     1     -40.088  48.108 -52.492  1.00  0.00     0.217 HD
ENDBRANCH  17  19
ENDBRANCH   5   6
ENDBRANCH   1   5
BRANCH   2  21
HETATM   21  C   UNL     1     -44.671  56.938 -54.486  1.00  0.00     0.127 C 
BRANCH  21  22
HETATM   22  C   UNL     1     -44.927  58.192 -55.330  1.00  0.00     0.060 C 
BRANCH  22  23
HETATM   23  C   UNL     1     -43.833  58.472 -56.312  1.00  0.00    -0.029 A 
HETATM   24  C   UNL     1     -43.532  57.762 -57.517  1.00  0.00    -0.000 A 
HETATM   25  C   UNL     1     -42.408  58.363 -58.088  1.00  0.00     0.043 A 
HETATM   26  C   UNL     1     -44.107  56.655 -58.175  1.00  0.00     0.038 A 
HETATM   27  C   UNL     1     -41.823  57.914 -59.277  1.00  0.00     0.032 A 
HETATM   28  N   UNL     1     -42.045  59.404 -57.265  1.00  0.00    -0.365 N 
HETATM   29  C   UNL     1     -42.410  56.814 -59.910  1.00  0.00     0.026 A 
HETATM   30  C   UNL     1     -43.534  56.198 -59.366  1.00  0.00     0.035 A 
HETATM   31 CL   UNL     1     -44.233  54.846 -60.174  1.00  0.00    -0.084 Cl
HETATM   32  H   UNL     1     -41.259  60.018 -57.427  1.00  0.00     0.165 HD
HETATM   33  C   UNL     1     -42.894  59.479 -56.197  1.00  0.00     0.096 A 
ENDBRANCH  22  23
ENDBRANCH  21  22
ENDBRANCH   2  21
TORSDOF 6
ENDMDL
MODEL 3
REMARK VINA RESULT:      -9.2      2.303      3.370
REMARK  6 active torsions:
REMARK  status: ('A' for Active; 'I' for Inactive)
REMARK    1  A    between atoms: C_3  and  C_4 
REMARK    2  A    between atoms: C_4  and  C_5 
REMARK       I    between atoms: C_5  and  N_6 
REMARK    3  A    between atoms: N_6  and  C_7 
REMARK    4  A    between atoms: C_7  and  C_8 
REMARK    5  A    between atoms: C_8  and  C_9 
REMARK    6  A    between atoms: C_28  and  O_29 
ROOT
HETATM    1  C   UNL     1     -42.558  56.598 -53.314  1.00  0.00     0.222 C 
HETATM    2  N   UNL     1     -43.129  56.785 -54.553  1.00  0.00    -0.360 N 
HETATM    3  O   UNL     1     -43.184  56.698 -52.262  1.00  0.00    -0.273 OA
HETATM    4  H   UNL     1     -42.585  56.595 -55.391  1.00  0.00     0.162 HD
ENDROOT
BRANCH   1   5
HETATM    5  C   UNL     1     -41.077  56.270 -53.334  1.00  0.00     0.148 C 
BRANCH   5   6
HETATM    6  C   UNL     1     -40.858  54.789 -53.174  1.00  0.00     0.033 C 
HETATM    7  C   UNL     1     -40.628  54.152 -52.008  1.00  0.00    -0.036 C 
HETATM    8  C   UNL     1     -40.624  54.840 -50.666  1.00  0.00     0.050 C 
HETATM    9  C   UNL     1     -40.341  52.702 -52.031  1.00  0.00     0.005 A 
HETATM   10  C   UNL     1     -40.143  52.063 -53.259  1.00  0.00     0.099 A 
HETATM   11  C   UNL     1     -40.201  51.931 -50.870  1.00  0.00     0.017 A 
HETATM   12  O   UNL     1     -40.384  52.764 -54.460  1.00  0.00    -0.274 OA
HETATM   13  C   UNL     1     -39.745  50.716 -53.370  1.00  0.00     0.006 A 
HETATM   14  C   UNL     1     -40.892  54.050 -54.460  1.00  0.00     0.295 C 
HETATM   15  O   UNL     1     -41.313  54.574 -55.489  1.00  0.00    -0.259 OA
HETATM   16  C   UNL     1     -39.485  50.095 -54.712  1.00  0.00     0.054 C 
HETATM   17  C   UNL     1     -39.632  49.982 -52.185  1.00  0.00     0.074 A 
HETATM   18  C   UNL     1     -39.860  50.579 -50.948  1.00  0.00     0.038 A 
BRANCH  17  19
HETATM   19  O   UNL     1     -39.303  48.658 -52.151  1.00  0.00    -0.360 OA
HETATM   20  H   UNL     1     -38.756  48.436 -52.921  1.00  0.00     0.217 HD
ENDBRANCH  17  19
ENDBRANCH   5   6
ENDBRANCH   1   5
BRANCH   2  21
HETATM   21  C   UNL     1     -44.515  57.208 -54.672  1.00  0.00     0.127 C 
BRANCH  21  22
HETATM   22  C   UNL     1     -44.649  58.482 -55.513  1.00  0.00     0.060 C 
BRANCH  22  23
HETATM   23  C   UNL     1     -43.590  58.607 -56.563  1.00  0.00    -0.029 A 
HETATM   24  C   UNL     1     -43.384  57.769 -57.705  1.00  0.00    -0.000 A 
HETATM   25  C   UNL     1     -42.258  58.249 -58.379  1.00  0.00     0.043 A 
HETATM   26  C   UNL     1     -44.045  56.638 -58.227  1.00  0.00     0.038 A 
HETATM   27  C   UNL     1     -41.755  57.657 -59.542  1.00  0.00     0.032 A 
HETATM   28  N   UNL     1     -41.803  59.342 -57.678  1.00  0.00    -0.365 N 
HETATM   29  C   UNL     1     -42.427  56.537 -60.039  1.00  0.00     0.026 A 
HETATM   30  C   UNL     1     -43.554  56.040 -59.391  1.00  0.00     0.035 A 
HETATM   31 CL   UNL     1     -44.359  54.657 -60.033  1.00  0.00    -0.084 Cl
HETATM   32  H   UNL     1     -40.995  59.894 -57.932  1.00  0.00     0.165 HD
HETATM   33  C   UNL     1     -42.596  59.566 -56.588  1.00  0.00     0.096 A 
ENDBRANCH  22  23
ENDBRANCH  21  22
ENDBRANCH   2  21
TORSDOF 6
ENDMDL
MODEL 4
REMARK VINA RESULT:      -9.1      1.370      1.726
REMARK  6 active torsions:
REMARK  status: ('A' for Active; 'I' for Inactive)
REMARK    1  A    between atoms: C_3  and  C_4 
REMARK    2  A    between atoms: C_4  and  C_5 
REMARK       I    between atoms: C_5  and  N_6 
REMARK    3  A    between atoms: N_6  and  C_7 
REMARK    4  A    between atoms: C_7  and  C_8 
REMARK    5  A    between atoms: C_8  and  C_9 
REMARK    6  A    between atoms: C_28  and  O_29 
ROOT
HETATM    1  C   UNL     1     -42.664  56.225 -50.622  1.00  0.00     0.222 C 
HETATM    2  N   UNL     1     -42.971  57.492 -51.067  1.00  0.00    -0.360 N 
HETATM    3  O   UNL     1     -43.505  55.340 -50.481  1.00  0.00    -0.273 OA
HETATM    4  H   UNL     1     -42.220  58.153 -51.257  1.00  0.00     0.162 HD
ENDROOT
BRANCH   1   5
HETATM    5  C   UNL     1     -41.200  55.995 -50.300  1.00  0.00     0.148 C 
BRANCH   5   6
HETATM    6  C   UNL     1     -40.720  54.701 -50.902  1.00  0.00     0.033 C 
HETATM    7  C   UNL     1     -40.769  54.379 -52.210  1.00  0.00    -0.036 C 
HETATM    8  C   UNL     1     -41.263  55.316 -53.283  1.00  0.00     0.050 C 
HETATM    9  C   UNL     1     -40.340  53.029 -52.631  1.00  0.00     0.005 A 
HETATM   10  C   UNL     1     -40.059  52.066 -51.656  1.00  0.00     0.099 A 
HETATM   11  C   UNL     1     -40.248  52.637 -53.972  1.00  0.00     0.017 A 
HETATM   12  O   UNL     1     -40.025  52.437 -50.294  1.00  0.00    -0.274 OA
HETATM   13  C   UNL     1     -39.764  50.723 -51.964  1.00  0.00     0.006 A 
HETATM   14  C   UNL     1     -40.182  53.752 -49.897  1.00  0.00     0.295 C 
HETATM   15  O   UNL     1     -39.929  54.110 -48.748  1.00  0.00    -0.259 OA
HETATM   16  C   UNL     1     -39.532  49.714 -50.876  1.00  0.00     0.054 C 
HETATM   17  C   UNL     1     -39.669  50.382 -53.316  1.00  0.00     0.074 A 
HETATM   18  C   UNL     1     -39.905  51.326 -54.311  1.00  0.00     0.038 A 
BRANCH  17  19
HETATM   19  O   UNL     1     -39.342  49.131 -53.754  1.00  0.00    -0.360 OA
HETATM   20  H   UNL     1     -39.852  48.919 -54.551  1.00  0.00     0.217 HD
ENDBRANCH  17  19
ENDBRANCH   5   6
ENDBRANCH   1   5
BRANCH   2  21
HETATM   21  C   UNL     1     -44.351  57.877 -51.310  1.00  0.00     0.127 C 
BRANCH  21  22
HETATM   22  C   UNL     1     -44.752  57.655 -52.773  1.00  0.00     0.060 C 
BRANCH  22  23
HETATM   23  C   UNL     1     -43.985  58.511 -53.730  1.00  0.00    -0.029 A 
HETATM   24  C   UNL     1     -43.515  58.163 -55.036  1.00  0.00    -0.000 A 
HETATM   25  C   UNL     1     -42.822  59.267 -55.539  1.00  0.00     0.043 A 
HETATM   26  C   UNL     1     -43.608  57.007 -55.838  1.00  0.00     0.038 A 
HETATM   27  C   UNL     1     -42.211  59.276 -56.798  1.00  0.00     0.032 A 
HETATM   28  N   UNL     1     -42.876  60.250 -54.579  1.00  0.00    -0.365 N 
HETATM   29  C   UNL     1     -42.315  58.118 -57.574  1.00  0.00     0.026 A 
HETATM   30  C   UNL     1     -43.005  57.004 -57.100  1.00  0.00     0.035 A 
HETATM   31 CL   UNL     1     -43.115  55.594 -58.084  1.00  0.00    -0.084 Cl
HETATM   32  H   UNL     1     -42.455  61.165 -54.667  1.00  0.00     0.165 HD
HETATM   33  C   UNL     1     -43.572  59.808 -53.489  1.00  0.00     0.096 A 
ENDBRANCH  22  23
ENDBRANCH  21  22
ENDBRANCH   2  21
TORSDOF 6
ENDMDL
MODEL 5
REMARK VINA RESULT:      -8.9      3.238      4.837
REMARK  6 active torsions:
REMARK  status: ('A' for Active; 'I' for Inactive)
REMARK    1  A    between atoms: C_3  and  C_4 
REMARK    2  A    between atoms: C_4  and  C_5 
REMARK       I    between atoms: C_5  and  N_6 
REMARK    3  A    between atoms: N_6  and  C_7 
REMARK    4  A    between atoms: C_7  and  C_8 
REMARK    5  A    between atoms: C_8  and  C_9 
REMARK    6  A    between atoms: C_28  and  O_29 
ROOT
HETATM    1  C   UNL     1     -42.713  56.134 -50.594  1.00  0.00     0.222 C 
HETATM    2  N   UNL     1     -43.239  57.333 -51.023  1.00  0.00    -0.360 N 
HETATM    3  O   UNL     1     -43.405  55.183 -50.242  1.00  0.00    -0.273 OA
HETATM    4  H   UNL     1     -42.619  58.049 -51.394  1.00  0.00     0.162 HD
ENDROOT
BRANCH   1   5
HETATM    5  C   UNL     1     -41.197  56.071 -50.572  1.00  0.00     0.148 C 
BRANCH   5   6
HETATM    6  C   UNL     1     -40.712  54.752 -51.111  1.00  0.00     0.033 C 
HETATM    7  C   UNL     1     -40.754  54.369 -52.403  1.00  0.00    -0.036 C 
HETATM    8  C   UNL     1     -41.244  55.254 -53.521  1.00  0.00     0.050 C 
HETATM    9  C   UNL     1     -40.321  53.001 -52.758  1.00  0.00     0.005 A 
HETATM   10  C   UNL     1     -40.044  52.085 -51.738  1.00  0.00     0.099 A 
HETATM   11  C   UNL     1     -40.221  52.547 -54.079  1.00  0.00     0.017 A 
HETATM   12  O   UNL     1     -40.018  52.519 -50.395  1.00  0.00    -0.274 OA
HETATM   13  C   UNL     1     -39.746  50.729 -51.981  1.00  0.00     0.006 A 
HETATM   14  C   UNL     1     -40.178  53.851 -50.060  1.00  0.00     0.295 C 
HETATM   15  O   UNL     1     -39.932  54.262 -48.928  1.00  0.00    -0.259 OA
HETATM   16  C   UNL     1     -39.518  49.772 -50.847  1.00  0.00     0.054 C 
HETATM   17  C   UNL     1     -39.643  50.326 -53.317  1.00  0.00     0.074 A 
HETATM   18  C   UNL     1     -39.875  51.223 -54.355  1.00  0.00     0.038 A 
BRANCH  17  19
HETATM   19  O   UNL     1     -39.312  49.057 -53.694  1.00  0.00    -0.360 OA
HETATM   20  H   UNL     1     -39.346  48.467 -52.925  1.00  0.00     0.217 HD
ENDBRANCH  17  19
ENDBRANCH   5   6
ENDBRANCH   1   5
BRANCH   2  21
HETATM   21  C   UNL     1     -44.674  57.563 -50.992  1.00  0.00     0.127 C 
BRANCH  21  22
HETATM   22  C   UNL     1     -45.081  58.727 -51.902  1.00  0.00     0.060 C 
BRANCH  22  23
HETATM   23  C   UNL     1     -44.447  60.026 -51.514  1.00  0.00    -0.029 A 
HETATM   24  C   UNL     1     -44.677  60.795 -50.329  1.00  0.00    -0.000 A 
HETATM   25  C   UNL     1     -43.889  61.945 -50.417  1.00  0.00     0.043 A 
HETATM   26  C   UNL     1     -45.489  60.624 -49.189  1.00  0.00     0.038 A 
HETATM   27  C   UNL     1     -43.874  62.937 -49.430  1.00  0.00     0.032 A 
HETATM   28  N   UNL     1     -43.201  61.874 -51.605  1.00  0.00    -0.365 N 
HETATM   29  C   UNL     1     -44.689  62.746 -48.311  1.00  0.00     0.026 A 
HETATM   30  C   UNL     1     -45.480  61.607 -48.194  1.00  0.00     0.035 A 
HETATM   31 CL   UNL     1     -46.472  61.404 -46.799  1.00  0.00    -0.084 Cl
HETATM   32  H   UNL     1     -42.552  62.574 -51.938  1.00  0.00     0.165 HD
HETATM   33  C   UNL     1     -43.527  60.726 -52.271  1.00  0.00     0.096 A 
ENDBRANCH  22  23
ENDBRANCH  21  22
ENDBRANCH   2  21
TORSDOF 6
ENDMDL
MODEL 6
REMARK VINA RESULT:      -8.8      3.289      4.785
REMARK  6 active torsions:
REMARK  status: ('A' for Active; 'I' for Inactive)
REMARK    1  A    between atoms: C_3  and  C_4 
REMARK    2  A    between atoms: C_4  and  C_5 
REMARK       I    between atoms: C_5  and  N_6 
REMARK    3  A    between atoms: N_6  and  C_7 
REMARK    4  A    between atoms: C_7  and  C_8 
REMARK    5  A    between atoms: C_8  and  C_9 
REMARK    6  A    between atoms: C_28  and  O_29 
ROOT
HETATM    1  C   UNL     1     -42.916  57.227 -55.542  1.00  0.00     0.222 C 
HETATM    2  N   UNL     1     -43.292  57.076 -56.858  1.00  0.00    -0.360 N 
HETATM    3  O   UNL     1     -41.981  57.941 -55.188  1.00  0.00    -0.273 OA
HETATM    4  H   UNL     1     -44.134  56.549 -57.082  1.00  0.00     0.162 HD
ENDROOT
BRANCH   1   5
HETATM    5  C   UNL     1     -43.736  56.431 -54.545  1.00  0.00     0.148 C 
BRANCH   5   6
HETATM    6  C   UNL     1     -42.933  55.285 -53.990  1.00  0.00     0.033 C 
HETATM    7  C   UNL     1     -42.348  55.252 -52.775  1.00  0.00    -0.036 C 
HETATM    8  C   UNL     1     -42.474  56.358 -51.757  1.00  0.00     0.050 C 
HETATM    9  C   UNL     1     -41.514  54.087 -52.414  1.00  0.00     0.005 A 
HETATM   10  C   UNL     1     -41.211  53.134 -53.392  1.00  0.00     0.099 A 
HETATM   11  C   UNL     1     -40.958  53.907 -51.142  1.00  0.00     0.017 A 
HETATM   12  O   UNL     1     -41.835  53.204 -54.656  1.00  0.00    -0.274 OA
HETATM   13  C   UNL     1     -40.326  52.060 -53.171  1.00  0.00     0.006 A 
HETATM   14  C   UNL     1     -42.807  54.147 -54.934  1.00  0.00     0.295 C 
HETATM   15  O   UNL     1     -43.508  54.070 -55.941  1.00  0.00    -0.259 OA
HETATM   16  C   UNL     1     -39.985  51.100 -54.275  1.00  0.00     0.054 C 
HETATM   17  C   UNL     1     -39.807  51.913 -51.881  1.00  0.00     0.074 A 
HETATM   18  C   UNL     1     -40.120  52.822 -50.875  1.00  0.00     0.038 A 
BRANCH  17  19
HETATM   19  O   UNL     1     -38.979  50.890 -51.517  1.00  0.00    -0.360 OA
HETATM   20  H   UNL     1     -38.458  50.602 -52.283  1.00  0.00     0.217 HD
ENDBRANCH  17  19
ENDBRANCH   5   6
ENDBRANCH   1   5
BRANCH   2  21
HETATM   21  C   UNL     1     -42.524  57.698 -57.924  1.00  0.00     0.127 C 
BRANCH  21  22
HETATM   22  C   UNL     1     -42.465  56.812 -59.172  1.00  0.00     0.060 C 
BRANCH  22  23
HETATM   23  C   UNL     1     -43.795  56.239 -59.550  1.00  0.00    -0.029 A 
HETATM   24  C   UNL     1     -44.960  56.944 -59.990  1.00  0.00    -0.000 A 
HETATM   25  C   UNL     1     -45.969  55.998 -60.194  1.00  0.00     0.043 A 
HETATM   26  C   UNL     1     -45.257  58.302 -60.227  1.00  0.00     0.038 A 
HETATM   27  C   UNL     1     -47.259  56.337 -60.616  1.00  0.00     0.032 A 
HETATM   28  N   UNL     1     -45.434  54.766 -59.898  1.00  0.00    -0.365 N 
HETATM   29  C   UNL     1     -47.529  57.690 -60.843  1.00  0.00     0.026 A 
HETATM   30  C   UNL     1     -46.542  58.653 -60.652  1.00  0.00     0.035 A 
HETATM   31 CL   UNL     1     -46.910  60.312 -60.943  1.00  0.00    -0.084 Cl
HETATM   32  H   UNL     1     -45.937  53.892 -59.953  1.00  0.00     0.165 HD
HETATM   33  C   UNL     1     -44.129  54.899 -59.512  1.00  0.00     0.096 A 
ENDBRANCH  22  23
ENDBRANCH  21  22
ENDBRANCH   2  21
TORSDOF 6
ENDMDL
MODEL 7
REMARK VINA RESULT:      -8.7      2.603      3.805
REMARK  6 active torsions:
REMARK  status: ('A' for Active; 'I' for Inactive)
REMARK    1  A    between atoms: C_3  and  C_4 
REMARK    2  A    between atoms: C_4  and  C_5 
REMARK       I    between atoms: C_5  and  N_6 
REMARK    3  A    between atoms: N_6  and  C_7 
REMARK    4  A    between atoms: C_7  and  C_8 
REMARK    5  A    between atoms: C_8  and  C_9 
REMARK    6  A    between atoms: C_28  and  O_29 
ROOT
HETATM    1  C   UNL     1     -43.445  58.125 -54.332  1.00  0.00     0.222 C 
HETATM    2  N   UNL     1     -44.290  58.875 -55.120  1.00  0.00    -0.360 N 
HETATM    3  O   UNL     1     -42.255  58.391 -54.178  1.00  0.00    -0.273 OA
HETATM    4  H   UNL     1     -45.285  58.662 -55.132  1.00  0.00     0.162 HD
ENDROOT
BRANCH   1   5
HETATM    5  C   UNL     1     -44.087  56.921 -53.669  1.00  0.00     0.148 C 
BRANCH   5   6
HETATM    6  C   UNL     1     -43.043  55.904 -53.289  1.00  0.00     0.033 C 
HETATM    7  C   UNL     1     -42.547  54.949 -54.102  1.00  0.00    -0.036 C 
HETATM    8  C   UNL     1     -42.928  54.806 -55.554  1.00  0.00     0.050 C 
HETATM    9  C   UNL     1     -41.591  53.966 -53.549  1.00  0.00     0.005 A 
HETATM   10  C   UNL     1     -41.358  53.939 -52.171  1.00  0.00     0.099 A 
HETATM   11  C   UNL     1     -40.936  53.009 -54.335  1.00  0.00     0.017 A 
HETATM   12  O   UNL     1     -41.902  54.950 -51.349  1.00  0.00    -0.274 OA
HETATM   13  C   UNL     1     -40.562  52.960 -51.544  1.00  0.00     0.006 A 
HETATM   14  C   UNL     1     -42.597  56.021 -51.879  1.00  0.00     0.295 C 
HETATM   15  O   UNL     1     -42.871  57.008 -51.201  1.00  0.00    -0.259 OA
HETATM   16  C   UNL     1     -40.394  52.939 -50.052  1.00  0.00     0.054 C 
HETATM   17  C   UNL     1     -39.916  52.035 -52.370  1.00  0.00     0.074 A 
HETATM   18  C   UNL     1     -40.097  52.058 -53.750  1.00  0.00     0.038 A 
BRANCH  17  19
HETATM   19  O   UNL     1     -39.078  51.066 -51.900  1.00  0.00    -0.360 OA
HETATM   20  H   UNL     1     -38.317  51.476 -51.460  1.00  0.00     0.217 HD
ENDBRANCH  17  19
ENDBRANCH   5   6
ENDBRANCH   1   5
BRANCH   2  21
HETATM   21  C   UNL     1     -43.779  59.993 -55.897  1.00  0.00     0.127 C 
BRANCH  21  22
HETATM   22  C   UNL     1     -44.068  59.822 -57.392  1.00  0.00     0.060 C 
BRANCH  22  23
HETATM   23  C   UNL     1     -43.505  58.557 -57.959  1.00  0.00    -0.029 A 
HETATM   24  C   UNL     1     -44.181  57.571 -58.746  1.00  0.00    -0.000 A 
HETATM   25  C   UNL     1     -43.265  56.552 -59.017  1.00  0.00     0.043 A 
HETATM   26  C   UNL     1     -45.492  57.446 -59.250  1.00  0.00     0.038 A 
HETATM   27  C   UNL     1     -43.590  55.411 -59.759  1.00  0.00     0.032 A 
HETATM   28  N   UNL     1     -42.076  56.908 -58.424  1.00  0.00    -0.365 N 
HETATM   29  C   UNL     1     -44.897  55.308 -60.245  1.00  0.00     0.026 A 
HETATM   30  C   UNL     1     -45.829  56.311 -59.995  1.00  0.00     0.035 A 
HETATM   31 CL   UNL     1     -47.430  56.153 -60.612  1.00  0.00    -0.084 Cl
HETATM   32  H   UNL     1     -41.230  56.356 -58.453  1.00  0.00     0.165 HD
HETATM   33  C   UNL     1     -42.209  58.110 -57.788  1.00  0.00     0.096 A 
ENDBRANCH  22  23
ENDBRANCH  21  22
ENDBRANCH   2  21
TORSDOF 6
ENDMDL
MODEL 8
REMARK VINA RESULT:      -8.6      2.790      4.602
REMARK  6 active torsions:
REMARK  status: ('A' for Active; 'I' for Inactive)
REMARK    1  A    between atoms: C_3  and  C_4 
REMARK    2  A    between atoms: C_4  and  C_5 
REMARK       I    between atoms: C_5  and  N_6 
REMARK    3  A    between atoms: N_6  and  C_7 
REMARK    4  A    between atoms: C_7  and  C_8 
REMARK    5  A    between atoms: C_8  and  C_9 
REMARK    6  A    between atoms: C_28  and  O_29 
ROOT
HETATM    1  C   UNL     1     -42.765  56.586 -52.371  1.00  0.00     0.222 C 
HETATM    2  N   UNL     1     -43.333  57.196 -53.467  1.00  0.00    -0.360 N 
HETATM    3  O   UNL     1     -43.399  56.291 -51.361  1.00  0.00    -0.273 OA
HETATM    4  H   UNL     1     -42.779  57.329 -54.311  1.00  0.00     0.162 HD
ENDROOT
BRANCH   1   5
HETATM    5  C   UNL     1     -41.278  56.312 -52.488  1.00  0.00     0.148 C 
BRANCH   5   6
HETATM    6  C   UNL     1     -41.011  54.831 -52.524  1.00  0.00     0.033 C 
HETATM    7  C   UNL     1     -40.666  54.070 -51.465  1.00  0.00    -0.036 C 
HETATM    8  C   UNL     1     -40.561  54.597 -50.056  1.00  0.00     0.050 C 
HETATM    9  C   UNL     1     -40.348  52.643 -51.684  1.00  0.00     0.005 A 
HETATM   10  C   UNL     1     -40.243  52.158 -52.991  1.00  0.00     0.099 A 
HETATM   11  C   UNL     1     -40.090  51.747 -50.639  1.00  0.00     0.017 A 
HETATM   12  O   UNL     1     -40.604  52.986 -54.076  1.00  0.00    -0.274 OA
HETATM   13  C   UNL     1     -39.825  50.847 -53.294  1.00  0.00     0.006 A 
HETATM   14  C   UNL     1     -41.140  54.245 -53.881  1.00  0.00     0.295 C 
HETATM   15  O   UNL     1     -41.661  54.871 -54.802  1.00  0.00    -0.259 OA
HETATM   16  C   UNL     1     -39.668  50.395 -54.718  1.00  0.00     0.054 C 
HETATM   17  C   UNL     1     -39.592  49.985 -52.218  1.00  0.00     0.074 A 
HETATM   18  C   UNL     1     -39.725  50.426 -50.905  1.00  0.00     0.038 A 
BRANCH  17  19
HETATM   19  O   UNL     1     -39.231  48.677 -52.369  1.00  0.00    -0.360 OA
HETATM   20  H   UNL     1     -39.810  48.250 -53.020  1.00  0.00     0.217 HD
ENDBRANCH  17  19
ENDBRANCH   5   6
ENDBRANCH   1   5
BRANCH   2  21
HETATM   21  C   UNL     1     -44.726  57.611 -53.444  1.00  0.00     0.127 C 
BRANCH  21  22
HETATM   22  C   UNL     1     -44.864  59.128 -53.282  1.00  0.00     0.060 C 
BRANCH  22  23
HETATM   23  C   UNL     1     -44.962  59.560 -51.852  1.00  0.00    -0.029 A 
HETATM   24  C   UNL     1     -44.534  60.799 -51.279  1.00  0.00    -0.000 A 
HETATM   25  C   UNL     1     -44.798  60.738 -49.908  1.00  0.00     0.043 A 
HETATM   26  C   UNL     1     -43.939  61.968 -51.796  1.00  0.00     0.038 A 
HETATM   27  C   UNL     1     -44.493  61.781 -49.025  1.00  0.00     0.032 A 
HETATM   28  N   UNL     1     -45.371  59.513 -49.660  1.00  0.00    -0.365 N 
HETATM   29  C   UNL     1     -43.901  62.928 -49.561  1.00  0.00     0.026 A 
HETATM   30  C   UNL     1     -43.632  63.018 -50.924  1.00  0.00     0.035 A 
HETATM   31 CL   UNL     1     -42.903  64.448 -51.551  1.00  0.00    -0.084 Cl
HETATM   32  H   UNL     1     -45.666  59.189 -48.749  1.00  0.00     0.165 HD
HETATM   33  C   UNL     1     -45.476  58.798 -50.820  1.00  0.00     0.096 A 
ENDBRANCH  22  23
ENDBRANCH  21  22
ENDBRANCH   2  21
TORSDOF 6
ENDMDL
MODEL 9
REMARK VINA RESULT:      -8.6      2.716      4.042
REMARK  6 active torsions:
REMARK  status: ('A' for Active; 'I' for Inactive)
REMARK    1  A    between atoms: C_3  and  C_4 
REMARK    2  A    between atoms: C_4  and  C_5 
REMARK       I    between atoms: C_5  and  N_6 
REMARK    3  A    between atoms: N_6  and  C_7 
REMARK    4  A    between atoms: C_7  and  C_8 
REMARK    5  A    between atoms: C_8  and  C_9 
REMARK    6  A    between atoms: C_28  and  O_29 
ROOT
HETATM    1  C   UNL     1     -42.738  58.600 -53.608  1.00  0.00     0.222 C 
HETATM    2  N   UNL     1     -43.653  58.933 -54.581  1.00  0.00    -0.360 N 
HETATM    3  O   UNL     1     -41.555  58.928 -53.656  1.00  0.00    -0.273 OA
HETATM    4  H   UNL     1     -44.638  58.717 -54.440  1.00  0.00     0.162 HD
ENDROOT
BRANCH   1   5
HETATM    5  C   UNL     1     -43.292  57.776 -52.461  1.00  0.00     0.148 C 
BRANCH   5   6
HETATM    6  C   UNL     1     -42.642  56.418 -52.418  1.00  0.00     0.033 C 
HETATM    7  C   UNL     1     -41.755  56.002 -51.491  1.00  0.00    -0.036 C 
HETATM    8  C   UNL     1     -41.333  56.835 -50.306  1.00  0.00     0.050 C 
HETATM    9  C   UNL     1     -41.136  54.669 -51.642  1.00  0.00     0.005 A 
HETATM   10  C   UNL     1     -41.348  53.945 -52.820  1.00  0.00     0.099 A 
HETATM   11  C   UNL     1     -40.293  54.102 -50.678  1.00  0.00     0.017 A 
HETATM   12  O   UNL     1     -42.277  54.416 -53.773  1.00  0.00    -0.274 OA
HETATM   13  C   UNL     1     -40.701  52.725 -53.100  1.00  0.00     0.006 A 
HETATM   14  C   UNL     1     -43.051  55.537 -53.539  1.00  0.00     0.295 C 
HETATM   15  O   UNL     1     -44.010  55.816 -54.256  1.00  0.00    -0.259 OA
HETATM   16  C   UNL     1     -40.916  52.020 -54.409  1.00  0.00     0.054 C 
HETATM   17  C   UNL     1     -39.880  52.192 -52.102  1.00  0.00     0.074 A 
HETATM   18  C   UNL     1     -39.679  52.868 -50.903  1.00  0.00     0.038 A 
BRANCH  17  19
HETATM   19  O   UNL     1     -39.233  50.995 -52.222  1.00  0.00    -0.360 OA
HETATM   20  H   UNL     1     -39.642  50.471 -52.928  1.00  0.00     0.217 HD
ENDBRANCH  17  19
ENDBRANCH   5   6
ENDBRANCH   1   5
BRANCH   2  21
HETATM   21  C   UNL     1     -43.232  59.629 -55.786  1.00  0.00     0.127 C 
BRANCH  21  22
HETATM   22  C   UNL     1     -44.066  59.212 -57.002  1.00  0.00     0.060 C 
BRANCH  22  23
HETATM   23  C   UNL     1     -43.660  57.886 -57.566  1.00  0.00    -0.029 A 
HETATM   24  C   UNL     1     -44.369  57.083 -58.515  1.00  0.00    -0.000 A 
HETATM   25  C   UNL     1     -43.624  55.918 -58.715  1.00  0.00     0.043 A 
HETATM   26  C   UNL     1     -45.581  57.233 -59.219  1.00  0.00     0.038 A 
HETATM   27  C   UNL     1     -44.029  54.893 -59.577  1.00  0.00     0.032 A 
HETATM   28  N   UNL     1     -42.502  56.014 -57.925  1.00  0.00    -0.365 N 
HETATM   29  C   UNL     1     -45.235  55.063 -60.262  1.00  0.00     0.026 A 
HETATM   30  C   UNL     1     -45.995  56.216 -60.085  1.00  0.00     0.035 A 
HETATM   31 CL   UNL     1     -47.477  56.395 -60.948  1.00  0.00    -0.084 Cl
HETATM   32  H   UNL     1     -41.779  55.311 -57.864  1.00  0.00     0.165 HD
HETATM   33  C   UNL     1     -42.513  57.192 -57.232  1.00  0.00     0.096 A 
ENDBRANCH  22  23
ENDBRANCH  21  22
ENDBRANCH   2  21
TORSDOF 6
ENDMDL
MODEL 10
REMARK VINA RESULT:      -8.3      3.073      4.538
REMARK  6 active torsions:
REMARK  status: ('A' for Active; 'I' for Inactive)
REMARK    1  A    between atoms: C_3  and  C_4 
REMARK    2  A    between atoms: C_4  and  C_5 
REMARK       I    between atoms: C_5  and  N_6 
REMARK    3  A    between atoms: N_6  and  C_7 
REMARK    4  A    between atoms: C_7  and  C_8 
REMARK    5  A    between atoms: C_8  and  C_9 
REMARK    6  A    between atoms: C_28  and  O_29 
ROOT
HETATM    1  C   UNL     1     -42.658  58.059 -55.666  1.00  0.00     0.222 C 
HETATM    2  N   UNL     1     -42.884  57.671 -56.968  1.00  0.00    -0.360 N 
HETATM    3  O   UNL     1     -41.922  58.994 -55.361  1.00  0.00    -0.273 OA
HETATM    4  H   UNL     1     -43.578  56.952 -57.164  1.00  0.00     0.162 HD
ENDROOT
BRANCH   1   5
HETATM    5  C   UNL     1     -43.376  57.233 -54.616  1.00  0.00     0.148 C 
BRANCH   5   6
HETATM    6  C   UNL     1     -42.465  56.172 -54.058  1.00  0.00     0.033 C 
HETATM    7  C   UNL     1     -42.254  54.955 -54.599  1.00  0.00    -0.036 C 
HETATM    8  C   UNL     1     -42.866  54.503 -55.901  1.00  0.00     0.050 C 
HETATM    9  C   UNL     1     -41.397  53.990 -53.878  1.00  0.00     0.005 A 
HETATM   10  C   UNL     1     -40.969  54.293 -52.581  1.00  0.00     0.099 A 
HETATM   11  C   UNL     1     -41.028  52.748 -54.408  1.00  0.00     0.017 A 
HETATM   12  O   UNL     1     -41.215  55.574 -52.043  1.00  0.00    -0.274 OA
HETATM   13  C   UNL     1     -40.255  53.383 -51.776  1.00  0.00     0.006 A 
HETATM   14  C   UNL     1     -41.801  56.576 -52.794  1.00  0.00     0.295 C 
HETATM   15  O   UNL     1     -41.809  57.744 -52.411  1.00  0.00    -0.259 OA
HETATM   16  C   UNL     1     -39.873  53.734 -50.366  1.00  0.00     0.054 C 
HETATM   17  C   UNL     1     -39.897  52.161 -52.353  1.00  0.00     0.074 A 
HETATM   18  C   UNL     1     -40.275  51.845 -53.655  1.00  0.00     0.038 A 
BRANCH  17  19
HETATM   19  O   UNL     1     -39.164  51.210 -51.703  1.00  0.00    -0.360 OA
HETATM   20  H   UNL     1     -39.541  50.332 -51.873  1.00  0.00     0.217 HD
ENDBRANCH  17  19
ENDBRANCH   5   6
ENDBRANCH   1   5
BRANCH   2  21
HETATM   21  C   UNL     1     -42.175  58.309 -58.064  1.00  0.00     0.127 C 
BRANCH  21  22
HETATM   22  C   UNL     1     -42.169  57.433 -59.322  1.00  0.00     0.060 C 
BRANCH  22  23
HETATM   23  C   UNL     1     -43.464  56.718 -59.546  1.00  0.00    -0.029 A 
HETATM   24  C   UNL     1     -44.721  57.281 -59.936  1.00  0.00    -0.000 A 
HETATM   25  C   UNL     1     -45.649  56.237 -59.988  1.00  0.00     0.043 A 
HETATM   26  C   UNL     1     -45.161  58.585 -60.243  1.00  0.00     0.038 A 
HETATM   27  C   UNL     1     -46.993  56.428 -60.324  1.00  0.00     0.032 A 
HETATM   28  N   UNL     1     -44.979  55.084 -59.651  1.00  0.00    -0.365 N 
HETATM   29  C   UNL     1     -47.406  57.730 -60.622  1.00  0.00     0.026 A 
HETATM   30  C   UNL     1     -46.502  58.788 -60.583  1.00  0.00     0.035 A 
HETATM   31 CL   UNL     1     -47.045  60.380 -60.959  1.00  0.00    -0.084 Cl
HETATM   32  H   UNL     1     -45.401  54.167 -59.603  1.00  0.00     0.165 HD
HETATM   33  C   UNL     1     -43.668  55.361 -59.385  1.00  0.00     0.096 A 
ENDBRANCH  22  23
ENDBRANCH  21  22
ENDBRANCH   2  21
TORSDOF 6
ENDMDL
