MODEL 1
REMARK VINA RESULT:      -7.2      0.000      0.000
REMARK  4 active torsions:
REMARK  status: ('A' for Active; 'I' for Inactive)
REMARK    1  A    between atoms: C_8  and  N_9 
REMARK       I    between atoms: N_9  and  C_10 
REMARK       I    between atoms: C_10  and  N_11 
REMARK    2  A    between atoms: N_11  and  C_12 
REMARK    3  A    between atoms: C_15  and  C_16 
REMARK       I    between atoms: C_16  and  N_17 
REMARK    4  A    between atoms: N_17  and  C_18 
ROOT
HETATM    1  C   UNL     1     -42.561  55.906 -55.932  1.00  0.00     0.036 A 
HETATM    2  C   UNL     1     -42.328  57.277 -56.060  1.00  0.00     0.030 A 
HETATM    3  C   UNL     1     -42.483  57.913 -57.298  1.00  0.00     0.019 A 
HETATM    4  C   UNL     1     -42.858  57.177 -58.425  1.00  0.00     0.032 A 
HETATM    5  C   UNL     1     -43.139  55.814 -58.292  1.00  0.00     0.019 A 
HETATM    6  C   UNL     1     -42.987  55.183 -57.052  1.00  0.00     0.030 A 
ENDROOT
BRANCH   1   7
HETATM    7  N   UNL     1     -42.332  55.182 -54.745  1.00  0.00    -0.309 N 
HETATM    8  C   UNL     1     -41.221  54.414 -54.424  1.00  0.00     0.325 C 
HETATM    9  N   UNL     1     -41.509  53.600 -53.342  1.00  0.00    -0.305 N 
HETATM   10  O   UNL     1     -40.162  54.426 -55.035  1.00  0.00    -0.247 OA
HETATM   11  H   UNL     1     -42.486  53.411 -53.183  1.00  0.00     0.171 HD
HETATM   12  H   UNL     1     -43.009  55.301 -54.007  1.00  0.00     0.170 HD
BRANCH   9  13
HETATM   13  C   UNL     1     -40.628  52.741 -52.705  1.00  0.00     0.086 A 
HETATM   14  C   UNL     1     -40.138  53.004 -51.439  1.00  0.00     0.052 A 
HETATM   15  C   UNL     1     -40.376  54.109 -50.482  1.00  0.00     0.072 C 
HETATM   16  N   UNL     1     -39.324  51.951 -51.130  1.00  0.00    -0.280 N 
HETATM   17  H   UNL     1     -38.806  51.789 -50.273  1.00  0.00     0.189 HD
HETATM   18  N   UNL     1     -39.216  51.046 -52.107  1.00  0.00    -0.177 NA
HETATM   19  C   UNL     1     -40.006  51.515 -53.084  1.00  0.00     0.079 A 
HETATM   20  C   UNL     1     -40.075  50.754 -54.358  1.00  0.00     0.075 C 
ENDBRANCH   9  13
ENDBRANCH   1   7
BRANCH   4  21
HETATM   21  C   UNL     1     -42.944  57.790 -59.778  1.00  0.00     0.252 C 
HETATM   22  N   UNL     1     -43.225  59.141 -59.807  1.00  0.00    -0.352 N 
HETATM   23  H   UNL     1     -43.291  59.648 -58.935  1.00  0.00     0.163 HD
HETATM   24  O   UNL     1     -42.715  57.120 -60.778  1.00  0.00    -0.268 OA
BRANCH  22  25
HETATM   25  C   UNL     1     -43.270  59.902 -61.050  1.00  0.00     0.084 C 
HETATM   26  C   UNL     1     -44.316  61.023 -60.988  1.00  0.00     0.025 C 
HETATM   27  C   UNL     1     -43.903  62.161 -60.056  1.00  0.00     0.002 C 
HETATM   28  C   UNL     1     -42.528  62.713 -60.417  1.00  0.00     0.000 C 
HETATM   29  C   UNL     1     -41.471  61.615 -60.458  1.00  0.00     0.002 C 
HETATM   30  C   UNL     1     -41.881  60.469 -61.383  1.00  0.00     0.025 C 
ENDBRANCH  22  25
ENDBRANCH   4  21
TORSDOF 4
ENDMDL
MODEL 2
REMARK VINA RESULT:      -7.2      1.548      2.416
REMARK  4 active torsions:
REMARK  status: ('A' for Active; 'I' for Inactive)
REMARK    1  A    between atoms: C_8  and  N_9 
REMARK       I    between atoms: N_9  and  C_10 
REMARK       I    between atoms: C_10  and  N_11 
REMARK    2  A    between atoms: N_11  and  C_12 
REMARK    3  A    between atoms: C_15  and  C_16 
REMARK       I    between atoms: C_16  and  N_17 
REMARK    4  A    between atoms: N_17  and  C_18 
ROOT
HETATM    1  C   UNL     1     -41.764  55.434 -55.822  1.00  0.00     0.036 A 
HETATM    2  C   UNL     1     -41.713  56.685 -55.203  1.00  0.00     0.030 A 
HETATM    3  C   UNL     1     -42.422  57.771 -55.731  1.00  0.00     0.019 A 
HETATM    4  C   UNL     1     -43.177  57.618 -56.897  1.00  0.00     0.032 A 
HETATM    5  C   UNL     1     -43.270  56.357 -57.493  1.00  0.00     0.019 A 
HETATM    6  C   UNL     1     -42.564  55.273 -56.960  1.00  0.00     0.030 A 
ENDROOT
BRANCH   1   7
HETATM    7  N   UNL     1     -41.003  54.324 -55.406  1.00  0.00    -0.309 N 
HETATM    8  C   UNL     1     -41.181  53.558 -54.262  1.00  0.00     0.325 C 
HETATM    9  N   UNL     1     -40.053  52.789 -54.030  1.00  0.00    -0.305 N 
HETATM   10  O   UNL     1     -42.171  53.590 -53.545  1.00  0.00    -0.247 OA
HETATM   11  H   UNL     1     -39.200  53.124 -54.451  1.00  0.00     0.171 HD
HETATM   12  H   UNL     1     -40.303  53.991 -56.051  1.00  0.00     0.170 HD
BRANCH   9  13
HETATM   13  C   UNL     1     -39.889  51.859 -53.016  1.00  0.00     0.086 A 
HETATM   14  C   UNL     1     -39.751  50.509 -53.278  1.00  0.00     0.052 A 
HETATM   15  C   UNL     1     -39.715  49.732 -54.539  1.00  0.00     0.072 C 
HETATM   16  N   UNL     1     -39.596  49.908 -52.062  1.00  0.00    -0.280 N 
HETATM   17  H   UNL     1     -39.448  48.925 -51.862  1.00  0.00     0.189 HD
HETATM   18  N   UNL     1     -39.659  50.754 -51.030  1.00  0.00    -0.177 NA
HETATM   19  C   UNL     1     -39.843  51.956 -51.594  1.00  0.00     0.079 A 
HETATM   20  C   UNL     1     -40.006  53.134 -50.704  1.00  0.00     0.075 C 
ENDBRANCH   9  13
ENDBRANCH   1   7
BRANCH   4  21
HETATM   21  C   UNL     1     -43.870  58.763 -57.547  1.00  0.00     0.252 C 
HETATM   22  N   UNL     1     -43.175  59.382 -58.567  1.00  0.00    -0.352 N 
HETATM   23  H   UNL     1     -42.287  59.000 -58.859  1.00  0.00     0.163 HD
HETATM   24  O   UNL     1     -45.008  59.069 -57.213  1.00  0.00    -0.268 OA
BRANCH  22  25
HETATM   25  C   UNL     1     -43.748  60.470 -59.351  1.00  0.00     0.084 C 
HETATM   26  C   UNL     1     -43.096  61.817 -59.009  1.00  0.00     0.025 C 
HETATM   27  C   UNL     1     -41.659  61.919 -59.518  1.00  0.00     0.002 C 
HETATM   28  C   UNL     1     -41.570  61.631 -61.013  1.00  0.00     0.000 C 
HETATM   29  C   UNL     1     -42.192  60.284 -61.367  1.00  0.00     0.002 C 
HETATM   30  C   UNL     1     -43.627  60.171 -60.853  1.00  0.00     0.025 C 
ENDBRANCH  22  25
ENDBRANCH   4  21
TORSDOF 4
ENDMDL
MODEL 3
REMARK VINA RESULT:      -7.0      0.206      1.606
REMARK  4 active torsions:
REMARK  status: ('A' for Active; 'I' for Inactive)
REMARK    1  A    between atoms: C_8  and  N_9 
REMARK       I    between atoms: N_9  and  C_10 
REMARK       I    between atoms: C_10  and  N_11 
REMARK    2  A    between atoms: N_11  and  C_12 
REMARK    3  A    between atoms: C_15  and  C_16 
REMARK       I    between atoms: C_16  and  N_17 
REMARK    4  A    between atoms: N_17  and  C_18 
ROOT
HETATM    1  C   UNL     1     -42.628  55.906 -56.046  1.00  0.00     0.036 A 
HETATM    2  C   UNL     1     -42.389  57.280 -56.128  1.00  0.00     0.030 A 
HETATM    3  C   UNL     1     -42.488  57.949 -57.354  1.00  0.00     0.019 A 
HETATM    4  C   UNL     1     -42.812  57.243 -58.516  1.00  0.00     0.032 A 
HETATM    5  C   UNL     1     -43.099  55.877 -58.431  1.00  0.00     0.019 A 
HETATM    6  C   UNL     1     -43.003  55.213 -57.204  1.00  0.00     0.030 A 
ENDROOT
BRANCH   1   7
HETATM    7  N   UNL     1     -42.452  55.150 -54.869  1.00  0.00    -0.309 N 
HETATM    8  C   UNL     1     -41.273  54.599 -54.387  1.00  0.00     0.325 C 
HETATM    9  N   UNL     1     -41.560  53.660 -53.410  1.00  0.00    -0.305 N 
HETATM   10  O   UNL     1     -40.154  54.873 -54.795  1.00  0.00    -0.247 OA
HETATM   11  H   UNL     1     -42.487  53.266 -53.439  1.00  0.00     0.171 HD
HETATM   12  H   UNL     1     -43.253  55.072 -54.262  1.00  0.00     0.170 HD
BRANCH   9  13
HETATM   13  C   UNL     1     -40.635  52.949 -52.662  1.00  0.00     0.086 A 
HETATM   14  C   UNL     1     -40.075  51.771 -53.121  1.00  0.00     0.052 A 
HETATM   15  C   UNL     1     -40.235  51.010 -54.382  1.00  0.00     0.072 C 
HETATM   16  N   UNL     1     -39.211  51.366 -52.144  1.00  0.00    -0.280 N 
HETATM   17  H   UNL     1     -38.606  50.551 -52.140  1.00  0.00     0.189 HD
HETATM   18  N   UNL     1     -39.193  52.164 -51.073  1.00  0.00    -0.177 NA
HETATM   19  C   UNL     1     -40.063  53.139 -51.370  1.00  0.00     0.079 A 
HETATM   20  C   UNL     1     -40.321  54.187 -50.349  1.00  0.00     0.075 C 
ENDBRANCH   9  13
ENDBRANCH   1   7
BRANCH   4  21
HETATM   21  C   UNL     1     -42.837  57.891 -59.855  1.00  0.00     0.252 C 
HETATM   22  N   UNL     1     -43.182  59.228 -59.867  1.00  0.00    -0.352 N 
HETATM   23  H   UNL     1     -43.330  59.705 -58.988  1.00  0.00     0.163 HD
HETATM   24  O   UNL     1     -42.509  57.263 -60.854  1.00  0.00    -0.268 OA
BRANCH  22  25
HETATM   25  C   UNL     1     -43.180  60.023 -61.089  1.00  0.00     0.084 C 
HETATM   26  C   UNL     1     -44.243  61.129 -61.045  1.00  0.00     0.025 C 
HETATM   27  C   UNL     1     -43.887  62.245 -60.064  1.00  0.00     0.002 C 
HETATM   28  C   UNL     1     -42.505  62.823 -60.347  1.00  0.00     0.000 C 
HETATM   29  C   UNL     1     -41.432  61.739 -60.369  1.00  0.00     0.002 C 
HETATM   30  C   UNL     1     -41.785  60.615 -61.343  1.00  0.00     0.025 C 
ENDBRANCH  22  25
ENDBRANCH   4  21
TORSDOF 4
ENDMDL
MODEL 4
REMARK VINA RESULT:      -7.0      0.834      1.343
REMARK  4 active torsions:
REMARK  status: ('A' for Active; 'I' for Inactive)
REMARK    1  A    between atoms: C_8  and  N_9 
REMARK       I    between atoms: N_9  and  C_10 
REMARK       I    between atoms: C_10  and  N_11 
REMARK    2  A    between atoms: N_11  and  C_12 
REMARK    3  A    between atoms: C_15  and  C_16 
REMARK       I    between atoms: C_16  and  N_17 
REMARK    4  A    between atoms: N_17  and  C_18 
ROOT
HETATM    1  C   UNL     1     -42.610  55.944 -56.337  1.00  0.00     0.036 A 
HETATM    2  C   UNL     1     -42.986  55.478 -57.599  1.00  0.00     0.030 A 
HETATM    3  C   UNL     1     -43.174  56.370 -58.662  1.00  0.00     0.019 A 
HETATM    4  C   UNL     1     -43.003  57.743 -58.466  1.00  0.00     0.032 A 
HETATM    5  C   UNL     1     -42.581  58.210 -57.218  1.00  0.00     0.019 A 
HETATM    6  C   UNL     1     -42.389  57.316 -56.160  1.00  0.00     0.030 A 
ENDROOT
BRANCH   1   7
HETATM    7  N   UNL     1     -42.498  55.120 -55.200  1.00  0.00    -0.309 N 
HETATM    8  C   UNL     1     -41.340  54.577 -54.661  1.00  0.00     0.325 C 
HETATM    9  N   UNL     1     -41.665  53.568 -53.770  1.00  0.00    -0.305 N 
HETATM   10  O   UNL     1     -40.203  54.913 -54.962  1.00  0.00    -0.247 OA
HETATM   11  H   UNL     1     -42.571  53.147 -53.896  1.00  0.00     0.171 HD
HETATM   12  H   UNL     1     -43.339  54.977 -54.663  1.00  0.00     0.170 HD
BRANCH   9  13
HETATM   13  C   UNL     1     -40.774  52.840 -52.997  1.00  0.00     0.086 A 
HETATM   14  C   UNL     1     -40.385  53.261 -51.739  1.00  0.00     0.052 A 
HETATM   15  C   UNL     1     -40.753  54.437 -50.918  1.00  0.00     0.072 C 
HETATM   16  N   UNL     1     -39.529  52.303 -51.275  1.00  0.00    -0.280 N 
HETATM   17  H   UNL     1     -39.059  52.263 -50.377  1.00  0.00     0.189 HD
HETATM   18  N   UNL     1     -39.303  51.314 -52.144  1.00  0.00    -0.177 NA
HETATM   19  C   UNL     1     -40.055  51.627 -53.209  1.00  0.00     0.079 A 
HETATM   20  C   UNL     1     -39.994  50.739 -54.398  1.00  0.00     0.075 C 
ENDBRANCH   9  13
ENDBRANCH   1   7
BRANCH   4  21
HETATM   21  C   UNL     1     -43.282  58.736 -59.538  1.00  0.00     0.252 C 
HETATM   22  N   UNL     1     -42.911  60.036 -59.262  1.00  0.00    -0.352 N 
HETATM   23  H   UNL     1     -42.422  60.235 -58.400  1.00  0.00     0.163 HD
HETATM   24  O   UNL     1     -43.758  58.375 -60.608  1.00  0.00    -0.268 OA
BRANCH  22  25
HETATM   25  C   UNL     1     -43.049  61.111 -60.237  1.00  0.00     0.084 C 
HETATM   26  C   UNL     1     -43.650  62.374 -59.604  1.00  0.00     0.025 C 
HETATM   27  C   UNL     1     -42.679  63.072 -58.654  1.00  0.00     0.002 C 
HETATM   28  C   UNL     1     -41.348  63.378 -59.334  1.00  0.00     0.000 C 
HETATM   29  C   UNL     1     -40.726  62.128 -59.947  1.00  0.00     0.002 C 
HETATM   30  C   UNL     1     -41.695  61.420 -60.893  1.00  0.00     0.025 C 
ENDBRANCH  22  25
ENDBRANCH   4  21
TORSDOF 4
ENDMDL
MODEL 5
REMARK VINA RESULT:      -6.9     16.527     20.112
REMARK  4 active torsions:
REMARK  status: ('A' for Active; 'I' for Inactive)
REMARK    1  A    between atoms: C_8  and  N_9 
REMARK       I    between atoms: N_9  and  C_10 
REMARK       I    between atoms: C_10  and  N_11 
REMARK    2  A    between atoms: N_11  and  C_12 
REMARK    3  A    between atoms: C_15  and  C_16 
REMARK       I    between atoms: C_16  and  N_17 
REMARK    4  A    between atoms: N_17  and  C_18 
ROOT
HETATM    1  C   UNL     1     -32.575  39.182 -50.052  1.00  0.00     0.036 A 
HETATM    2  C   UNL     1     -33.282  40.343 -50.372  1.00  0.00     0.030 A 
HETATM    3  C   UNL     1     -33.409  40.756 -51.704  1.00  0.00     0.019 A 
HETATM    4  C   UNL     1     -32.813  40.017 -52.729  1.00  0.00     0.032 A 
HETATM    5  C   UNL     1     -32.145  38.828 -52.419  1.00  0.00     0.019 A 
HETATM    6  C   UNL     1     -32.025  38.416 -51.087  1.00  0.00     0.030 A 
ENDROOT
BRANCH   1   7
HETATM    7  N   UNL     1     -32.324  38.758 -48.732  1.00  0.00    -0.309 N 
HETATM    8  C   UNL     1     -31.481  39.348 -47.800  1.00  0.00     0.325 C 
HETATM    9  N   UNL     1     -31.241  38.468 -46.759  1.00  0.00    -0.305 N 
HETATM   10  O   UNL     1     -30.991  40.464 -47.908  1.00  0.00    -0.247 OA
HETATM   11  H   UNL     1     -31.381  37.492 -46.969  1.00  0.00     0.171 HD
HETATM   12  H   UNL     1     -32.882  37.990 -48.392  1.00  0.00     0.170 HD
BRANCH   9  13
HETATM   13  C   UNL     1     -30.496  38.729 -45.621  1.00  0.00     0.086 A 
HETATM   14  C   UNL     1     -31.074  38.788 -44.366  1.00  0.00     0.052 A 
HETATM   15  C   UNL     1     -32.465  38.597 -43.895  1.00  0.00     0.072 C 
HETATM   16  N   UNL     1     -30.052  39.044 -43.498  1.00  0.00    -0.280 N 
HETATM   17  H   UNL     1     -30.095  39.136 -42.488  1.00  0.00     0.189 HD
HETATM   18  N   UNL     1     -28.864  39.194 -44.090  1.00  0.00    -0.177 NA
HETATM   19  C   UNL     1     -29.116  39.008 -45.393  1.00  0.00     0.079 A 
HETATM   20  C   UNL     1     -27.993  39.156 -46.355  1.00  0.00     0.075 C 
ENDBRANCH   9  13
ENDBRANCH   1   7
BRANCH   4  21
HETATM   21  C   UNL     1     -32.841  40.466 -54.147  1.00  0.00     0.252 C 
HETATM   22  N   UNL     1     -34.060  40.920 -54.608  1.00  0.00    -0.352 N 
HETATM   23  H   UNL     1     -34.835  40.987 -53.963  1.00  0.00     0.163 HD
HETATM   24  O   UNL     1     -31.813  40.474 -54.815  1.00  0.00    -0.268 OA
BRANCH  22  25
HETATM   25  C   UNL     1     -34.233  41.462 -55.951  1.00  0.00     0.084 C 
HETATM   26  C   UNL     1     -34.715  40.389 -56.936  1.00  0.00     0.025 C 
HETATM   27  C   UNL     1     -36.163  39.971 -56.686  1.00  0.00     0.002 C 
HETATM   28  C   UNL     1     -37.102  41.172 -56.681  1.00  0.00     0.000 C 
HETATM   29  C   UNL     1     -36.651  42.238 -55.688  1.00  0.00     0.002 C 
HETATM   30  C   UNL     1     -35.200  42.656 -55.927  1.00  0.00     0.025 C 
ENDBRANCH  22  25
ENDBRANCH   4  21
TORSDOF 4
ENDMDL
MODEL 6
REMARK VINA RESULT:      -6.9      7.174      9.002
REMARK  4 active torsions:
REMARK  status: ('A' for Active; 'I' for Inactive)
REMARK    1  A    between atoms: C_8  and  N_9 
REMARK       I    between atoms: N_9  and  C_10 
REMARK       I    between atoms: C_10  and  N_11 
REMARK    2  A    between atoms: N_11  and  C_12 
REMARK    3  A    between atoms: C_15  and  C_16 
REMARK       I    between atoms: C_16  and  N_17 
REMARK    4  A    between atoms: N_17  and  C_18 
ROOT
HETATM    1  C   UNL     1     -43.482  58.563 -51.559  1.00  0.00     0.036 A 
HETATM    2  C   UNL     1     -44.853  58.481 -51.814  1.00  0.00     0.030 A 
HETATM    3  C   UNL     1     -45.721  59.490 -51.380  1.00  0.00     0.019 A 
HETATM    4  C   UNL     1     -45.225  60.585 -50.669  1.00  0.00     0.032 A 
HETATM    5  C   UNL     1     -43.848  60.697 -50.452  1.00  0.00     0.019 A 
HETATM    6  C   UNL     1     -42.983  59.689 -50.892  1.00  0.00     0.030 A 
ENDROOT
BRANCH   1   7
HETATM    7  N   UNL     1     -42.564  57.543 -51.878  1.00  0.00    -0.309 N 
HETATM    8  C   UNL     1     -42.470  56.281 -51.308  1.00  0.00     0.325 C 
HETATM    9  N   UNL     1     -41.255  55.705 -51.638  1.00  0.00    -0.305 N 
HETATM   10  O   UNL     1     -43.318  55.773 -50.588  1.00  0.00    -0.247 OA
HETATM   11  H   UNL     1     -40.523  56.346 -51.899  1.00  0.00     0.171 HD
HETATM   12  H   UNL     1     -41.961  57.712 -52.669  1.00  0.00     0.170 HD
BRANCH   9  13
HETATM   13  C   UNL     1     -40.834  54.430 -51.299  1.00  0.00     0.086 A 
HETATM   14  C   UNL     1     -40.622  53.452 -52.254  1.00  0.00     0.052 A 
HETATM   15  C   UNL     1     -40.735  53.453 -53.731  1.00  0.00     0.072 C 
HETATM   16  N   UNL     1     -40.204  52.348 -51.568  1.00  0.00    -0.280 N 
HETATM   17  H   UNL     1     -39.935  51.443 -51.940  1.00  0.00     0.189 HD
HETATM   18  N   UNL     1     -40.163  52.517 -50.243  1.00  0.00    -0.177 NA
HETATM   19  C   UNL     1     -40.550  53.787 -50.058  1.00  0.00     0.079 A 
HETATM   20  C   UNL     1     -40.663  54.292 -48.666  1.00  0.00     0.075 C 
ENDBRANCH   9  13
ENDBRANCH   1   7
BRANCH   4  21
HETATM   21  C   UNL     1     -46.118  61.634 -50.106  1.00  0.00     0.252 C 
HETATM   22  N   UNL     1     -46.011  61.845 -48.746  1.00  0.00    -0.352 N 
HETATM   23  H   UNL     1     -45.307  61.342 -48.224  1.00  0.00     0.163 HD
HETATM   24  O   UNL     1     -46.846  62.289 -50.842  1.00  0.00    -0.268 OA
BRANCH  22  25
HETATM   25  C   UNL     1     -46.764  62.886 -48.057  1.00  0.00     0.084 C 
HETATM   26  C   UNL     1     -47.034  62.513 -46.592  1.00  0.00     0.025 C 
HETATM   27  C   UNL     1     -45.771  62.559 -45.734  1.00  0.00     0.002 C 
HETATM   28  C   UNL     1     -45.069  63.909 -45.836  1.00  0.00     0.000 C 
HETATM   29  C   UNL     1     -44.771  64.283 -47.284  1.00  0.00     0.002 C 
HETATM   30  C   UNL     1     -46.029  64.232 -48.151  1.00  0.00     0.025 C 
ENDBRANCH  22  25
ENDBRANCH   4  21
TORSDOF 4
ENDMDL
MODEL 7
REMARK VINA RESULT:      -6.8      4.510      6.028
REMARK  4 active torsions:
REMARK  status: ('A' for Active; 'I' for Inactive)
REMARK    1  A    between atoms: C_8  and  N_9 
REMARK       I    between atoms: N_9  and  C_10 
REMARK       I    between atoms: C_10  and  N_11 
REMARK    2  A    between atoms: N_11  and  C_12 
REMARK    3  A    between atoms: C_15  and  C_16 
REMARK       I    between atoms: C_16  and  N_17 
REMARK    4  A    between atoms: N_17  and  C_18 
ROOT
HETATM    1  C   UNL     1     -41.973  55.716 -54.235  1.00  0.00     0.036 A 
HETATM    2  C   UNL     1     -43.198  55.853 -54.892  1.00  0.00     0.030 A 
HETATM    3  C   UNL     1     -43.925  57.046 -54.802  1.00  0.00     0.019 A 
HETATM    4  C   UNL     1     -43.439  58.110 -54.037  1.00  0.00     0.032 A 
HETATM    5  C   UNL     1     -42.192  57.995 -53.417  1.00  0.00     0.019 A 
HETATM    6  C   UNL     1     -41.466  56.803 -53.513  1.00  0.00     0.030 A 
ENDROOT
BRANCH   1   7
HETATM    7  N   UNL     1     -41.234  54.516 -54.200  1.00  0.00    -0.309 N 
HETATM    8  C   UNL     1     -41.297  53.513 -53.243  1.00  0.00     0.325 C 
HETATM    9  N   UNL     1     -40.199  52.677 -53.366  1.00  0.00    -0.305 N 
HETATM   10  O   UNL     1     -42.170  53.409 -52.393  1.00  0.00    -0.247 OA
HETATM   11  H   UNL     1     -39.396  53.074 -53.827  1.00  0.00     0.171 HD
HETATM   12  H   UNL     1     -40.657  54.320 -55.003  1.00  0.00     0.170 HD
BRANCH   9  13
HETATM   13  C   UNL     1     -39.953  51.534 -52.623  1.00  0.00     0.086 A 
HETATM   14  C   UNL     1     -39.700  50.314 -53.222  1.00  0.00     0.052 A 
HETATM   15  C   UNL     1     -39.601  49.895 -54.640  1.00  0.00     0.072 C 
HETATM   16  N   UNL     1     -39.490  49.434 -52.199  1.00  0.00    -0.280 N 
HETATM   17  H   UNL     1     -39.258  48.448 -52.257  1.00  0.00     0.189 HD
HETATM   18  N   UNL     1     -39.623  49.975 -50.985  1.00  0.00    -0.177 NA
HETATM   19  C   UNL     1     -39.910  51.263 -51.224  1.00  0.00     0.079 A 
HETATM   20  C   UNL     1     -40.172  52.152 -50.063  1.00  0.00     0.075 C 
ENDBRANCH   9  13
ENDBRANCH   1   7
BRANCH   4  21
HETATM   21  C   UNL     1     -44.219  59.361 -53.835  1.00  0.00     0.252 C 
HETATM   22  N   UNL     1     -44.185  59.889 -52.561  1.00  0.00    -0.352 N 
HETATM   23  H   UNL     1     -43.596  59.453 -51.864  1.00  0.00     0.163 HD
HETATM   24  O   UNL     1     -44.794  59.891 -54.778  1.00  0.00    -0.268 OA
BRANCH  22  25
HETATM   25  C   UNL     1     -44.836  61.149 -52.220  1.00  0.00     0.084 C 
HETATM   26  C   UNL     1     -45.871  60.965 -51.102  1.00  0.00     0.025 C 
HETATM   27  C   UNL     1     -45.225  60.686 -49.746  1.00  0.00     0.002 C 
HETATM   28  C   UNL     1     -44.203  61.756 -49.378  1.00  0.00     0.000 C 
HETATM   29  C   UNL     1     -43.152  61.933 -50.469  1.00  0.00     0.002 C 
HETATM   30  C   UNL     1     -43.791  62.205 -51.831  1.00  0.00     0.025 C 
ENDBRANCH  22  25
ENDBRANCH   4  21
TORSDOF 4
ENDMDL
MODEL 8
REMARK VINA RESULT:      -6.8      7.731     10.380
REMARK  4 active torsions:
REMARK  status: ('A' for Active; 'I' for Inactive)
REMARK    1  A    between atoms: C_8  and  N_9 
REMARK       I    between atoms: N_9  and  C_10 
REMARK       I    between atoms: C_10  and  N_11 
REMARK    2  A    between atoms: N_11  and  C_12 
REMARK    3  A    between atoms: C_15  and  C_16 
REMARK       I    between atoms: C_16  and  N_17 
REMARK    4  A    between atoms: N_17  and  C_18 
ROOT
HETATM    1  C   UNL     1     -44.366  60.380 -51.171  1.00  0.00     0.036 A 
HETATM    2  C   UNL     1     -43.312  59.468 -51.072  1.00  0.00     0.030 A 
HETATM    3  C   UNL     1     -43.185  58.424 -51.995  1.00  0.00     0.019 A 
HETATM    4  C   UNL     1     -44.123  58.272 -53.019  1.00  0.00     0.032 A 
HETATM    5  C   UNL     1     -45.152  59.208 -53.152  1.00  0.00     0.019 A 
HETATM    6  C   UNL     1     -45.274  60.254 -52.230  1.00  0.00     0.030 A 
ENDROOT
BRANCH   1   7
HETATM    7  N   UNL     1     -44.615  61.395 -50.225  1.00  0.00    -0.309 N 
HETATM    8  C   UNL     1     -45.508  61.361 -49.164  1.00  0.00     0.325 C 
HETATM    9  N   UNL     1     -45.712  62.643 -48.681  1.00  0.00    -0.305 N 
HETATM   10  O   UNL     1     -46.063  60.354 -48.748  1.00  0.00    -0.247 OA
HETATM   11  H   UNL     1     -45.509  63.391 -49.324  1.00  0.00     0.171 HD
HETATM   12  H   UNL     1     -44.016  62.205 -50.268  1.00  0.00     0.170 HD
BRANCH   9  13
HETATM   13  C   UNL     1     -46.492  62.992 -47.590  1.00  0.00     0.086 A 
HETATM   14  C   UNL     1     -47.743  63.560 -47.739  1.00  0.00     0.052 A 
HETATM   15  C   UNL     1     -48.551  63.907 -48.931  1.00  0.00     0.072 C 
HETATM   16  N   UNL     1     -48.217  63.752 -46.472  1.00  0.00    -0.280 N 
HETATM   17  H   UNL     1     -49.114  64.130 -46.189  1.00  0.00     0.189 HD
HETATM   18  N   UNL     1     -47.360  63.390 -45.514  1.00  0.00    -0.177 NA
HETATM   19  C   UNL     1     -46.293  62.925 -46.179  1.00  0.00     0.079 A 
HETATM   20  C   UNL     1     -45.114  62.477 -45.394  1.00  0.00     0.075 C 
ENDBRANCH   9  13
ENDBRANCH   1   7
BRANCH   4  21
HETATM   21  C   UNL     1     -44.082  57.124 -53.966  1.00  0.00     0.252 C 
HETATM   22  N   UNL     1     -43.049  56.229 -53.777  1.00  0.00    -0.352 N 
HETATM   23  H   UNL     1     -42.428  56.353 -52.990  1.00  0.00     0.163 HD
HETATM   24  O   UNL     1     -44.961  56.984 -54.808  1.00  0.00    -0.268 OA
BRANCH  22  25
HETATM   25  C   UNL     1     -42.914  55.015 -54.574  1.00  0.00     0.084 C 
HETATM   26  C   UNL     1     -41.712  55.094 -55.525  1.00  0.00     0.025 C 
HETATM   27  C   UNL     1     -40.376  55.016 -54.789  1.00  0.00     0.002 C 
HETATM   28  C   UNL     1     -40.293  53.778 -53.903  1.00  0.00     0.000 C 
HETATM   29  C   UNL     1     -41.467  53.697 -52.933  1.00  0.00     0.002 C 
HETATM   30  C   UNL     1     -42.808  53.783 -53.662  1.00  0.00     0.025 C 
ENDBRANCH  22  25
ENDBRANCH   4  21
TORSDOF 4
ENDMDL
MODEL 9
REMARK VINA RESULT:      -6.8      6.201      7.226
REMARK  4 active torsions:
REMARK  status: ('A' for Active; 'I' for Inactive)
REMARK    1  A    between atoms: C_8  and  N_9 
REMARK       I    between atoms: N_9  and  C_10 
REMARK       I    between atoms: C_10  and  N_11 
REMARK    2  A    between atoms: N_11  and  C_12 
REMARK    3  A    between atoms: C_15  and  C_16 
REMARK       I    between atoms: C_16  and  N_17 
REMARK    4  A    between atoms: N_17  and  C_18 
ROOT
HETATM    1  C   UNL     1     -44.918  58.161 -51.977  1.00  0.00     0.036 A 
HETATM    2  C   UNL     1     -44.804  58.731 -53.247  1.00  0.00     0.030 A 
HETATM    3  C   UNL     1     -45.418  59.956 -53.536  1.00  0.00     0.019 A 
HETATM    4  C   UNL     1     -46.168  60.614 -52.558  1.00  0.00     0.032 A 
HETATM    5  C   UNL     1     -46.245  60.072 -51.272  1.00  0.00     0.019 A 
HETATM    6  C   UNL     1     -45.626  58.850 -50.985  1.00  0.00     0.030 A 
ENDROOT
BRANCH   1   7
HETATM    7  N   UNL     1     -44.411  56.889 -51.642  1.00  0.00    -0.309 N 
HETATM    8  C   UNL     1     -43.080  56.518 -51.509  1.00  0.00     0.325 C 
HETATM    9  N   UNL     1     -42.975  55.137 -51.510  1.00  0.00    -0.305 N 
HETATM   10  O   UNL     1     -42.139  57.297 -51.444  1.00  0.00    -0.247 OA
HETATM   11  H   UNL     1     -43.739  54.640 -51.939  1.00  0.00     0.171 HD
HETATM   12  H   UNL     1     -45.088  56.189 -51.385  1.00  0.00     0.170 HD
BRANCH   9  13
HETATM   13  C   UNL     1     -41.812  54.404 -51.338  1.00  0.00     0.086 A 
HETATM   14  C   UNL     1     -41.270  53.643 -52.356  1.00  0.00     0.052 A 
HETATM   15  C   UNL     1     -41.678  53.414 -53.762  1.00  0.00     0.072 C 
HETATM   16  N   UNL     1     -40.136  53.083 -51.839  1.00  0.00    -0.280 N 
HETATM   17  H   UNL     1     -39.468  52.478 -52.303  1.00  0.00     0.189 HD
HETATM   18  N   UNL     1     -39.919  53.389 -50.557  1.00  0.00    -0.177 NA
HETATM   19  C   UNL     1     -40.939  54.196 -50.230  1.00  0.00     0.079 A 
HETATM   20  C   UNL     1     -41.026  54.687 -48.830  1.00  0.00     0.075 C 
ENDBRANCH   9  13
ENDBRANCH   1   7
BRANCH   4  21
HETATM   21  C   UNL     1     -46.916  61.869 -52.845  1.00  0.00     0.252 C 
HETATM   22  N   UNL     1     -48.281  61.731 -52.995  1.00  0.00    -0.352 N 
HETATM   23  H   UNL     1     -48.703  60.826 -52.842  1.00  0.00     0.163 HD
HETATM   24  O   UNL     1     -46.331  62.945 -52.879  1.00  0.00    -0.268 OA
BRANCH  22  25
HETATM   25  C   UNL     1     -49.161  62.874 -53.205  1.00  0.00     0.084 C 
HETATM   26  C   UNL     1     -49.411  63.127 -54.698  1.00  0.00     0.025 C 
HETATM   27  C   UNL     1     -50.296  62.056 -55.334  1.00  0.00     0.002 C 
HETATM   28  C   UNL     1     -51.610  61.890 -54.578  1.00  0.00     0.000 C 
HETATM   29  C   UNL     1     -51.378  61.613 -53.097  1.00  0.00     0.002 C 
HETATM   30  C   UNL     1     -50.487  62.676 -52.455  1.00  0.00     0.025 C 
ENDBRANCH  22  25
ENDBRANCH   4  21
TORSDOF 4
ENDMDL
MODEL 10
REMARK VINA RESULT:      -6.7     16.634     20.099
REMARK  4 active torsions:
REMARK  status: ('A' for Active; 'I' for Inactive)
REMARK    1  A    between atoms: C_8  and  N_9 
REMARK       I    between atoms: N_9  and  C_10 
REMARK       I    between atoms: C_10  and  N_11 
REMARK    2  A    between atoms: N_11  and  C_12 
REMARK    3  A    between atoms: C_15  and  C_16 
REMARK       I    between atoms: C_16  and  N_17 
REMARK    4  A    between atoms: N_17  and  C_18 
ROOT
HETATM    1  C   UNL     1     -32.761  39.846 -49.946  1.00  0.00     0.036 A 
HETATM    2  C   UNL     1     -34.092  39.533 -49.662  1.00  0.00     0.030 A 
HETATM    3  C   UNL     1     -35.000  39.276 -50.696  1.00  0.00     0.019 A 
HETATM    4  C   UNL     1     -34.586  39.347 -52.029  1.00  0.00     0.032 A 
HETATM    5  C   UNL     1     -33.244  39.612 -52.318  1.00  0.00     0.019 A 
HETATM    6  C   UNL     1     -32.339  39.864 -51.282  1.00  0.00     0.030 A 
ENDROOT
BRANCH   1   7
HETATM    7  N   UNL     1     -31.816  40.211 -48.966  1.00  0.00    -0.309 N 
HETATM    8  C   UNL     1     -31.242  39.395 -48.001  1.00  0.00     0.325 C 
HETATM    9  N   UNL     1     -30.638  40.173 -47.028  1.00  0.00    -0.305 N 
HETATM   10  O   UNL     1     -31.301  38.174 -47.992  1.00  0.00    -0.247 OA
HETATM   11  H   UNL     1     -30.977  41.118 -46.948  1.00  0.00     0.171 HD
HETATM   12  H   UNL     1     -31.448  41.148 -49.023  1.00  0.00     0.170 HD
BRANCH   9  13
HETATM   13  C   UNL     1     -29.914  39.709 -45.941  1.00  0.00     0.086 A 
HETATM   14  C   UNL     1     -28.543  39.544 -45.993  1.00  0.00     0.052 A 
HETATM   15  C   UNL     1     -27.543  39.793 -47.057  1.00  0.00     0.072 C 
HETATM   16  N   UNL     1     -28.176  39.095 -44.756  1.00  0.00    -0.280 N 
HETATM   17  H   UNL     1     -27.243  38.882 -44.418  1.00  0.00     0.189 HD
HETATM   18  N   UNL     1     -29.201  38.920 -43.918  1.00  0.00    -0.177 NA
HETATM   19  C   UNL     1     -30.278  39.288 -44.628  1.00  0.00     0.079 A 
HETATM   20  C   UNL     1     -31.614  39.164 -43.992  1.00  0.00     0.075 C 
ENDBRANCH   9  13
ENDBRANCH   1   7
BRANCH   4  21
HETATM   21  C   UNL     1     -35.535  39.175 -53.163  1.00  0.00     0.252 C 
HETATM   22  N   UNL     1     -35.235  39.886 -54.307  1.00  0.00    -0.352 N 
HETATM   23  H   UNL     1     -34.379  40.420 -54.344  1.00  0.00     0.163 HD
HETATM   24  O   UNL     1     -36.477  38.397 -53.070  1.00  0.00    -0.268 OA
BRANCH  22  25
HETATM   25  C   UNL     1     -36.025  39.767 -55.528  1.00  0.00     0.084 C 
HETATM   26  C   UNL     1     -37.141  40.819 -55.583  1.00  0.00     0.025 C 
HETATM   27  C   UNL     1     -36.605  42.231 -55.812  1.00  0.00     0.002 C 
HETATM   28  C   UNL     1     -35.721  42.304 -57.052  1.00  0.00     0.000 C 
HETATM   29  C   UNL     1     -34.591  41.281 -57.002  1.00  0.00     0.002 C 
HETATM   30  C   UNL     1     -35.119  39.866 -56.765  1.00  0.00     0.025 C 
ENDBRANCH  22  25
ENDBRANCH   4  21
TORSDOF 4
ENDMDL
