MODEL 1
REMARK VINA RESULT:      -7.9      0.000      0.000
REMARK  6 active torsions:
REMARK  status: ('A' for Active; 'I' for Inactive)
REMARK    1  A    between atoms: C_2  and  N_3 
REMARK    2  A    between atoms: C_4  and  C_20 
REMARK    3  A    between atoms: C_10  and  C_11 
REMARK    4  A    between atoms: C_14  and  C_15 
REMARK    5  A    between atoms: C_15  and  N_16 
REMARK    6  A    between atoms: C_24  and  N_25 
ROOT
HETATM    1  N   UNL     1     -40.915  53.443 -52.726  1.00  0.00    -0.327 N 
HETATM    2  C   UNL     1     -40.225  52.365 -52.194  1.00  0.00     0.166 A 
HETATM    3  N   UNL     1     -39.910  52.594 -50.932  1.00  0.00    -0.225 NA
HETATM    4  C   UNL     1     -40.408  53.832 -50.631  1.00  0.00     0.104 A 
HETATM    5  C   UNL     1     -40.360  54.520 -49.414  1.00  0.00     0.150 A 
HETATM    6  N   UNL     1     -40.903  55.753 -49.296  1.00  0.00    -0.270 NA
HETATM    7  C   UNL     1     -41.480  56.300 -50.390  1.00  0.00     0.131 A 
HETATM    8  C   UNL     1     -41.583  55.710 -51.659  1.00  0.00     0.021 A 
HETATM    9  C   UNL     1     -41.025  54.417 -51.742  1.00  0.00     0.079 A 
ENDROOT
BRANCH   8  10
HETATM   10  C   UNL     1     -42.198  56.437 -52.761  1.00  0.00    -0.022 A 
HETATM   11  C   UNL     1     -43.548  56.236 -53.086  1.00  0.00     0.013 A 
HETATM   12  C   UNL     1     -44.131  56.891 -54.175  1.00  0.00     0.010 A 
HETATM   13  C   UNL     1     -43.375  57.759 -54.975  1.00  0.00    -0.031 A 
HETATM   14  C   UNL     1     -42.019  57.939 -54.667  1.00  0.00     0.010 A 
HETATM   15  C   UNL     1     -41.440  57.293 -53.571  1.00  0.00     0.013 A 
BRANCH  13  16
HETATM   16  C   UNL     1     -44.003  58.394 -56.193  1.00  0.00     0.305 C 
BRANCH  16  17
HETATM   17  N   UNL     1     -45.108  57.612 -56.740  1.00  0.00     0.082 N 
HETATM   18  H   UNL     1     -45.150  57.764 -57.747  1.00  0.00     0.313 HD
HETATM   19  H   UNL     1     -45.983  57.964 -56.359  1.00  0.00     0.313 HD
ENDBRANCH  16  17
ENDBRANCH  13  16
ENDBRANCH   8  10
BRANCH   1  20
HETATM   20  C   UNL     1     -41.471  53.510 -54.065  1.00  0.00     0.126 C 
HETATM   21  C   UNL     1     -40.508  54.124 -55.065  1.00  0.00     0.027 C 
ENDBRANCH   1  20
BRANCH   2  22
HETATM   22  C   UNL     1     -39.844  51.080 -52.874  1.00  0.00     0.179 A 
HETATM   23  N   UNL     1     -39.723  50.924 -54.194  1.00  0.00    -0.097 NA
HETATM   24  O   UNL     1     -39.331  49.600 -54.365  1.00  0.00    -0.104 OA
HETATM   25  N   UNL     1     -39.210  48.945 -53.147  1.00  0.00    -0.085 NA
HETATM   26  C   UNL     1     -39.539  49.852 -52.230  1.00  0.00     0.186 A 
BRANCH  26  27
HETATM   27  N   UNL     1     -39.566  49.628 -50.901  1.00  0.00    -0.380 N 
HETATM   28  H   UNL     1     -39.203  50.322 -50.260  1.00  0.00     0.158 HD
HETATM   29  H   UNL     1     -40.256  48.984 -50.516  1.00  0.00     0.158 HD
ENDBRANCH  26  27
ENDBRANCH   2  22
TORSDOF 6
ENDMDL
MODEL 2
REMARK VINA RESULT:      -7.2      3.201      7.430
REMARK  6 active torsions:
REMARK  status: ('A' for Active; 'I' for Inactive)
REMARK    1  A    between atoms: C_2  and  N_3 
REMARK    2  A    between atoms: C_4  and  C_20 
REMARK    3  A    between atoms: C_10  and  C_11 
REMARK    4  A    between atoms: C_14  and  C_15 
REMARK    5  A    between atoms: C_15  and  N_16 
REMARK    6  A    between atoms: C_24  and  N_25 
ROOT
HETATM    1  N   UNL     1     -42.850  56.608 -56.154  1.00  0.00    -0.327 N 
HETATM    2  C   UNL     1     -43.553  57.636 -56.763  1.00  0.00     0.166 A 
HETATM    3  N   UNL     1     -43.271  58.792 -56.189  1.00  0.00    -0.225 NA
HETATM    4  C   UNL     1     -42.364  58.519 -55.201  1.00  0.00     0.104 A 
HETATM    5  C   UNL     1     -41.735  59.408 -54.323  1.00  0.00     0.150 A 
HETATM    6  N   UNL     1     -40.863  58.958 -53.393  1.00  0.00    -0.270 NA
HETATM    7  C   UNL     1     -40.630  57.627 -53.331  1.00  0.00     0.131 A 
HETATM    8  C   UNL     1     -41.204  56.645 -54.152  1.00  0.00     0.021 A 
HETATM    9  C   UNL     1     -42.092  57.149 -55.124  1.00  0.00     0.079 A 
ENDROOT
BRANCH   8  10
HETATM   10  C   UNL     1     -40.889  55.237 -53.944  1.00  0.00    -0.022 A 
HETATM   11  C   UNL     1     -41.226  54.599 -52.740  1.00  0.00     0.013 A 
HETATM   12  C   UNL     1     -40.881  53.263 -52.514  1.00  0.00     0.010 A 
HETATM   13  C   UNL     1     -40.181  52.532 -53.483  1.00  0.00    -0.031 A 
HETATM   14  C   UNL     1     -39.820  53.177 -54.674  1.00  0.00     0.010 A 
HETATM   15  C   UNL     1     -40.177  54.509 -54.905  1.00  0.00     0.013 A 
BRANCH  13  16
HETATM   16  C   UNL     1     -39.748  51.115 -53.186  1.00  0.00     0.305 C 
BRANCH  16  17
HETATM   17  N   UNL     1     -39.993  50.199 -54.295  1.00  0.00     0.082 N 
HETATM   18  H   UNL     1     -40.872  49.710 -54.129  1.00  0.00     0.313 HD
HETATM   19  H   UNL     1     -39.265  49.487 -54.303  1.00  0.00     0.313 HD
ENDBRANCH  16  17
ENDBRANCH  13  16
ENDBRANCH   8  10
BRANCH   1  20
HETATM   20  C   UNL     1     -42.868  55.216 -56.567  1.00  0.00     0.126 C 
HETATM   21  C   UNL     1     -43.660  54.337 -55.615  1.00  0.00     0.027 C 
ENDBRANCH   1  20
BRANCH   2  22
HETATM   22  C   UNL     1     -44.518  57.549 -57.911  1.00  0.00     0.179 A 
HETATM   23  N   UNL     1     -44.177  57.275 -59.173  1.00  0.00    -0.097 NA
HETATM   24  O   UNL     1     -45.378  57.268 -59.876  1.00  0.00    -0.104 OA
HETATM   25  N   UNL     1     -46.455  57.536 -59.042  1.00  0.00    -0.085 NA
HETATM   26  C   UNL     1     -45.925  57.722 -57.836  1.00  0.00     0.186 A 
BRANCH  26  27
HETATM   27  N   UNL     1     -46.626  58.020 -56.724  1.00  0.00    -0.380 N 
HETATM   28  H   UNL     1     -46.745  58.983 -56.439  1.00  0.00     0.158 HD
HETATM   29  H   UNL     1     -47.333  57.366 -56.389  1.00  0.00     0.158 HD
ENDBRANCH  26  27
ENDBRANCH   2  22
TORSDOF 6
ENDMDL
MODEL 3
REMARK VINA RESULT:      -7.2      3.637      7.922
REMARK  6 active torsions:
REMARK  status: ('A' for Active; 'I' for Inactive)
REMARK    1  A    between atoms: C_2  and  N_3 
REMARK    2  A    between atoms: C_4  and  C_20 
REMARK    3  A    between atoms: C_10  and  C_11 
REMARK    4  A    between atoms: C_14  and  C_15 
REMARK    5  A    between atoms: C_15  and  N_16 
REMARK    6  A    between atoms: C_24  and  N_25 
ROOT
HETATM    1  N   UNL     1     -43.909  56.979 -53.352  1.00  0.00    -0.327 N 
HETATM    2  C   UNL     1     -44.719  58.082 -53.133  1.00  0.00     0.166 A 
HETATM    3  N   UNL     1     -45.011  58.676 -54.276  1.00  0.00    -0.225 NA
HETATM    4  C   UNL     1     -44.392  57.947 -55.256  1.00  0.00     0.104 A 
HETATM    5  C   UNL     1     -44.414  58.150 -56.640  1.00  0.00     0.150 A 
HETATM    6  N   UNL     1     -43.731  57.328 -57.468  1.00  0.00    -0.270 NA
HETATM    7  C   UNL     1     -43.021  56.317 -56.917  1.00  0.00     0.131 A 
HETATM    8  C   UNL     1     -42.922  56.021 -55.549  1.00  0.00     0.021 A 
HETATM    9  C   UNL     1     -43.662  56.885 -54.715  1.00  0.00     0.079 A 
ENDROOT
BRANCH   8  10
HETATM   10  C   UNL     1     -42.083  54.920 -55.094  1.00  0.00    -0.022 A 
HETATM   11  C   UNL     1     -40.687  55.053 -55.052  1.00  0.00     0.013 A 
HETATM   12  C   UNL     1     -39.874  53.984 -54.666  1.00  0.00     0.010 A 
HETATM   13  C   UNL     1     -40.435  52.747 -54.319  1.00  0.00    -0.031 A 
HETATM   14  C   UNL     1     -41.828  52.606 -54.386  1.00  0.00     0.010 A 
HETATM   15  C   UNL     1     -42.642  53.679 -54.761  1.00  0.00     0.013 A 
BRANCH  13  16
HETATM   16  C   UNL     1     -39.534  51.582 -53.983  1.00  0.00     0.305 C 
BRANCH  16  17
HETATM   17  N   UNL     1     -40.096  50.294 -54.377  1.00  0.00     0.082 N 
HETATM   18  H   UNL     1     -39.681  49.565 -53.798  1.00  0.00     0.313 HD
HETATM   19  H   UNL     1     -39.819  50.092 -55.335  1.00  0.00     0.313 HD
ENDBRANCH  16  17
ENDBRANCH  13  16
ENDBRANCH   8  10
BRANCH   1  20
HETATM   20  C   UNL     1     -43.448  56.056 -52.330  1.00  0.00     0.126 C 
HETATM   21  C   UNL     1     -42.100  56.451 -51.754  1.00  0.00     0.027 C 
ENDBRANCH   1  20
BRANCH   2  22
HETATM   22  C   UNL     1     -45.242  58.606 -51.825  1.00  0.00     0.179 A 
HETATM   23  N   UNL     1     -45.574  57.846 -50.779  1.00  0.00    -0.097 NA
HETATM   24  O   UNL     1     -45.972  58.744 -49.794  1.00  0.00    -0.104 OA
HETATM   25  N   UNL     1     -45.882  60.057 -50.238  1.00  0.00    -0.085 NA
HETATM   26  C   UNL     1     -45.446  59.971 -51.493  1.00  0.00     0.186 A 
BRANCH  26  27
HETATM   27  N   UNL     1     -45.229  61.023 -52.306  1.00  0.00    -0.380 N 
HETATM   28  H   UNL     1     -44.890  61.898 -51.928  1.00  0.00     0.158 HD
HETATM   29  H   UNL     1     -45.034  60.861 -53.293  1.00  0.00     0.158 HD
ENDBRANCH  26  27
ENDBRANCH   2  22
TORSDOF 6
ENDMDL
MODEL 4
REMARK VINA RESULT:      -7.1      2.934      7.201
REMARK  6 active torsions:
REMARK  status: ('A' for Active; 'I' for Inactive)
REMARK    1  A    between atoms: C_2  and  N_3 
REMARK    2  A    between atoms: C_4  and  C_20 
REMARK    3  A    between atoms: C_10  and  C_11 
REMARK    4  A    between atoms: C_14  and  C_15 
REMARK    5  A    between atoms: C_15  and  N_16 
REMARK    6  A    between atoms: C_24  and  N_25 
ROOT
HETATM    1  N   UNL     1     -43.326  56.530 -56.058  1.00  0.00    -0.327 N 
HETATM    2  C   UNL     1     -43.855  57.144 -57.183  1.00  0.00     0.166 A 
HETATM    3  N   UNL     1     -44.607  58.173 -56.839  1.00  0.00    -0.225 NA
HETATM    4  C   UNL     1     -44.563  58.240 -55.472  1.00  0.00     0.104 A 
HETATM    5  C   UNL     1     -45.173  59.169 -54.624  1.00  0.00     0.150 A 
HETATM    6  N   UNL     1     -45.027  59.079 -53.283  1.00  0.00    -0.270 NA
HETATM    7  C   UNL     1     -44.287  58.060 -52.791  1.00  0.00     0.131 A 
HETATM    8  C   UNL     1     -43.634  57.069 -53.541  1.00  0.00     0.021 A 
HETATM    9  C   UNL     1     -43.790  57.205 -54.937  1.00  0.00     0.079 A 
ENDROOT
BRANCH   8  10
HETATM   10  C   UNL     1     -42.902  56.003 -52.872  1.00  0.00    -0.022 A 
HETATM   11  C   UNL     1     -43.582  54.913 -52.307  1.00  0.00     0.013 A 
HETATM   12  C   UNL     1     -42.889  53.913 -51.619  1.00  0.00     0.010 A 
HETATM   13  C   UNL     1     -41.497  53.980 -51.469  1.00  0.00    -0.031 A 
HETATM   14  C   UNL     1     -40.821  55.082 -52.010  1.00  0.00     0.010 A 
HETATM   15  C   UNL     1     -41.512  56.076 -52.709  1.00  0.00     0.013 A 
BRANCH  13  16
HETATM   16  C   UNL     1     -40.779  52.931 -50.653  1.00  0.00     0.305 C 
BRANCH  16  17
HETATM   17  N   UNL     1     -39.794  52.181 -51.427  1.00  0.00     0.082 N 
HETATM   18  H   UNL     1     -39.538  52.728 -52.248  1.00  0.00     0.313 HD
HETATM   19  H   UNL     1     -40.226  51.327 -51.773  1.00  0.00     0.313 HD
ENDBRANCH  16  17
ENDBRANCH  13  16
ENDBRANCH   8  10
BRANCH   1  20
HETATM   20  C   UNL     1     -42.404  55.408 -56.065  1.00  0.00     0.126 C 
HETATM   21  C   UNL     1     -43.100  54.081 -55.824  1.00  0.00     0.027 C 
ENDBRANCH   1  20
BRANCH   2  22
HETATM   22  C   UNL     1     -43.658  56.767 -58.625  1.00  0.00     0.179 A 
HETATM   23  N   UNL     1     -42.481  56.753 -59.255  1.00  0.00    -0.097 NA
HETATM   24  O   UNL     1     -42.769  56.321 -60.545  1.00  0.00    -0.104 OA
HETATM   25  N   UNL     1     -44.125  56.067 -60.705  1.00  0.00    -0.085 NA
HETATM   26  C   UNL     1     -44.674  56.355 -59.527  1.00  0.00     0.186 A 
BRANCH  26  27
HETATM   27  N   UNL     1     -45.989  56.258 -59.246  1.00  0.00    -0.380 N 
HETATM   28  H   UNL     1     -46.315  56.358 -58.294  1.00  0.00     0.158 HD
HETATM   29  H   UNL     1     -46.672  56.461 -59.974  1.00  0.00     0.158 HD
ENDBRANCH  26  27
ENDBRANCH   2  22
TORSDOF 6
ENDMDL
MODEL 5
REMARK VINA RESULT:      -6.6      3.676      6.506
REMARK  6 active torsions:
REMARK  status: ('A' for Active; 'I' for Inactive)
REMARK    1  A    between atoms: C_2  and  N_3 
REMARK    2  A    between atoms: C_4  and  C_20 
REMARK    3  A    between atoms: C_10  and  C_11 
REMARK    4  A    between atoms: C_14  and  C_15 
REMARK    5  A    between atoms: C_15  and  N_16 
REMARK    6  A    between atoms: C_24  and  N_25 
ROOT
HETATM    1  N   UNL     1     -43.227  56.777 -55.610  1.00  0.00    -0.327 N 
HETATM    2  C   UNL     1     -42.888  56.062 -56.748  1.00  0.00     0.166 A 
HETATM    3  N   UNL     1     -42.436  54.864 -56.424  1.00  0.00    -0.225 NA
HETATM    4  C   UNL     1     -42.490  54.790 -55.058  1.00  0.00     0.104 A 
HETATM    5  C   UNL     1     -42.147  53.718 -54.228  1.00  0.00     0.150 A 
HETATM    6  N   UNL     1     -42.256  53.823 -52.885  1.00  0.00    -0.270 NA
HETATM    7  C   UNL     1     -42.695  54.995 -52.373  1.00  0.00     0.131 A 
HETATM    8  C   UNL     1     -43.062  56.135 -53.103  1.00  0.00     0.021 A 
HETATM    9  C   UNL     1     -42.956  55.985 -54.502  1.00  0.00     0.079 A 
ENDROOT
BRANCH   8  10
HETATM   10  C   UNL     1     -43.480  57.349 -52.413  1.00  0.00    -0.022 A 
HETATM   11  C   UNL     1     -42.575  58.401 -52.206  1.00  0.00     0.013 A 
HETATM   12  C   UNL     1     -42.954  59.546 -51.499  1.00  0.00     0.010 A 
HETATM   13  C   UNL     1     -44.247  59.665 -50.972  1.00  0.00    -0.031 A 
HETATM   14  C   UNL     1     -45.143  58.603 -51.155  1.00  0.00     0.010 A 
HETATM   15  C   UNL     1     -44.767  57.463 -51.873  1.00  0.00     0.013 A 
BRANCH  13  16
HETATM   16  C   UNL     1     -44.611  60.875 -50.143  1.00  0.00     0.305 C 
BRANCH  16  17
HETATM   17  N   UNL     1     -45.147  60.528 -48.831  1.00  0.00     0.082 N 
HETATM   18  H   UNL     1     -44.945  61.289 -48.183  1.00  0.00     0.313 HD
HETATM   19  H   UNL     1     -44.653  59.711 -48.477  1.00  0.00     0.313 HD
ENDBRANCH  16  17
ENDBRANCH  13  16
ENDBRANCH   8  10
BRANCH   1  20
HETATM   20  C   UNL     1     -43.816  58.104 -55.593  1.00  0.00     0.126 C 
HETATM   21  C   UNL     1     -45.333  58.067 -55.543  1.00  0.00     0.027 C 
ENDBRANCH   1  20
BRANCH   2  22
HETATM   22  C   UNL     1     -42.984  56.500 -58.182  1.00  0.00     0.179 A 
HETATM   23  N   UNL     1     -42.423  57.604 -58.681  1.00  0.00    -0.097 NA
HETATM   24  O   UNL     1     -42.743  57.590 -60.034  1.00  0.00    -0.104 OA
HETATM   25  N   UNL     1     -43.501  56.474 -60.365  1.00  0.00    -0.085 NA
HETATM   26  C   UNL     1     -43.661  55.811 -59.223  1.00  0.00     0.186 A 
BRANCH  26  27
HETATM   27  N   UNL     1     -44.352  54.661 -59.091  1.00  0.00    -0.380 N 
HETATM   28  H   UNL     1     -44.875  54.288 -59.872  1.00  0.00     0.158 HD
HETATM   29  H   UNL     1     -44.067  53.985 -58.383  1.00  0.00     0.158 HD
ENDBRANCH  26  27
ENDBRANCH   2  22
TORSDOF 6
ENDMDL
MODEL 6
REMARK VINA RESULT:      -6.6     13.781     15.212
REMARK  6 active torsions:
REMARK  status: ('A' for Active; 'I' for Inactive)
REMARK    1  A    between atoms: C_2  and  N_3 
REMARK    2  A    between atoms: C_4  and  C_20 
REMARK    3  A    between atoms: C_10  and  C_11 
REMARK    4  A    between atoms: C_14  and  C_15 
REMARK    5  A    between atoms: C_15  and  N_16 
REMARK    6  A    between atoms: C_24  and  N_25 
ROOT
HETATM    1  N   UNL     1     -35.673  39.894 -53.923  1.00  0.00    -0.327 N 
HETATM    2  C   UNL     1     -35.230  39.586 -52.646  1.00  0.00     0.166 A 
HETATM    3  N   UNL     1     -36.170  39.845 -51.755  1.00  0.00    -0.225 NA
HETATM    4  C   UNL     1     -37.245  40.318 -52.458  1.00  0.00     0.104 A 
HETATM    5  C   UNL     1     -38.499  40.708 -51.978  1.00  0.00     0.150 A 
HETATM    6  N   UNL     1     -39.451  41.163 -52.823  1.00  0.00    -0.270 NA
HETATM    7  C   UNL     1     -39.148  41.239 -54.139  1.00  0.00     0.131 A 
HETATM    8  C   UNL     1     -37.928  40.882 -54.733  1.00  0.00     0.021 A 
HETATM    9  C   UNL     1     -36.965  40.393 -53.827  1.00  0.00     0.079 A 
ENDROOT
BRANCH   8  10
HETATM   10  C   UNL     1     -37.728  41.057 -56.166  1.00  0.00    -0.022 A 
HETATM   11  C   UNL     1     -37.153  42.234 -56.670  1.00  0.00     0.013 A 
HETATM   12  C   UNL     1     -37.007  42.429 -58.046  1.00  0.00     0.010 A 
HETATM   13  C   UNL     1     -37.440  41.457 -58.957  1.00  0.00    -0.031 A 
HETATM   14  C   UNL     1     -38.039  40.293 -58.455  1.00  0.00     0.010 A 
HETATM   15  C   UNL     1     -38.174  40.092 -57.078  1.00  0.00     0.013 A 
BRANCH  13  16
HETATM   16  C   UNL     1     -37.345  41.723 -60.441  1.00  0.00     0.305 C 
BRANCH  16  17
HETATM   17  N   UNL     1     -37.198  43.140 -60.759  1.00  0.00     0.082 N 
HETATM   18  H   UNL     1     -37.653  43.688 -60.030  1.00  0.00     0.313 HD
HETATM   19  H   UNL     1     -37.697  43.339 -61.623  1.00  0.00     0.313 HD
ENDBRANCH  16  17
ENDBRANCH  13  16
ENDBRANCH   8  10
BRANCH   1  20
HETATM   20  C   UNL     1     -34.926  39.676 -55.149  1.00  0.00     0.126 C 
HETATM   21  C   UNL     1     -34.011  40.840 -55.487  1.00  0.00     0.027 C 
ENDBRANCH   1  20
BRANCH   2  22
HETATM   22  C   UNL     1     -33.894  39.035 -52.234  1.00  0.00     0.179 A 
HETATM   23  N   UNL     1     -33.635  37.742 -52.023  1.00  0.00    -0.097 NA
HETATM   24  O   UNL     1     -32.284  37.695 -51.695  1.00  0.00    -0.104 OA
HETATM   25  N   UNL     1     -31.714  38.961 -51.707  1.00  0.00    -0.085 NA
HETATM   26  C   UNL     1     -32.708  39.787 -52.025  1.00  0.00     0.186 A 
BRANCH  26  27
HETATM   27  N   UNL     1     -32.591  41.125 -52.136  1.00  0.00    -0.380 N 
HETATM   28  H   UNL     1     -33.381  41.725 -51.936  1.00  0.00     0.158 HD
HETATM   29  H   UNL     1     -31.672  41.556 -52.046  1.00  0.00     0.158 HD
ENDBRANCH  26  27
ENDBRANCH   2  22
TORSDOF 6
ENDMDL
MODEL 7
REMARK VINA RESULT:      -6.5     13.982     15.957
REMARK  6 active torsions:
REMARK  status: ('A' for Active; 'I' for Inactive)
REMARK    1  A    between atoms: C_2  and  N_3 
REMARK    2  A    between atoms: C_4  and  C_20 
REMARK    3  A    between atoms: C_10  and  C_11 
REMARK    4  A    between atoms: C_14  and  C_15 
REMARK    5  A    between atoms: C_15  and  N_16 
REMARK    6  A    between atoms: C_24  and  N_25 
ROOT
HETATM    1  N   UNL     1     -35.113  39.990 -53.374  1.00  0.00    -0.327 N 
HETATM    2  C   UNL     1     -34.721  39.575 -52.111  1.00  0.00     0.166 A 
HETATM    3  N   UNL     1     -33.420  39.346 -52.082  1.00  0.00    -0.225 NA
HETATM    4  C   UNL     1     -32.954  39.625 -53.338  1.00  0.00     0.104 A 
HETATM    5  C   UNL     1     -31.640  39.566 -53.814  1.00  0.00     0.150 A 
HETATM    6  N   UNL     1     -31.358  39.872 -55.100  1.00  0.00    -0.270 NA
HETATM    7  C   UNL     1     -32.383  40.223 -55.910  1.00  0.00     0.131 A 
HETATM    8  C   UNL     1     -33.736  40.312 -55.546  1.00  0.00     0.021 A 
HETATM    9  C   UNL     1     -33.992  40.007 -54.193  1.00  0.00     0.079 A 
ENDROOT
BRANCH   8  10
HETATM   10  C   UNL     1     -34.742  40.665 -56.539  1.00  0.00    -0.022 A 
HETATM   11  C   UNL     1     -35.303  39.684 -57.370  1.00  0.00     0.013 A 
HETATM   12  C   UNL     1     -36.231  40.024 -58.358  1.00  0.00     0.010 A 
HETATM   13  C   UNL     1     -36.616  41.357 -58.549  1.00  0.00    -0.031 A 
HETATM   14  C   UNL     1     -36.036  42.342 -57.737  1.00  0.00     0.010 A 
HETATM   15  C   UNL     1     -35.117  42.000 -56.740  1.00  0.00     0.013 A 
BRANCH  13  16
HETATM   16  C   UNL     1     -37.559  41.712 -59.675  1.00  0.00     0.305 C 
BRANCH  16  17
HETATM   17  N   UNL     1     -37.155  42.913 -60.400  1.00  0.00     0.082 N 
HETATM   18  H   UNL     1     -36.571  43.483 -59.791  1.00  0.00     0.313 HD
HETATM   19  H   UNL     1     -37.983  43.469 -60.607  1.00  0.00     0.313 HD
ENDBRANCH  16  17
ENDBRANCH  13  16
ENDBRANCH   8  10
BRANCH   1  20
HETATM   20  C   UNL     1     -36.458  40.389 -53.750  1.00  0.00     0.126 C 
HETATM   21  C   UNL     1     -36.721  41.862 -53.493  1.00  0.00     0.027 C 
ENDBRANCH   1  20
BRANCH   2  22
HETATM   22  C   UNL     1     -35.576  39.382 -50.890  1.00  0.00     0.179 A 
HETATM   23  N   UNL     1     -36.222  40.360 -50.250  1.00  0.00    -0.097 NA
HETATM   24  O   UNL     1     -36.899  39.725 -49.214  1.00  0.00    -0.104 OA
HETATM   25  N   UNL     1     -36.669  38.356 -49.221  1.00  0.00    -0.085 NA
HETATM   26  C   UNL     1     -35.844  38.147 -50.243  1.00  0.00     0.186 A 
BRANCH  26  27
HETATM   27  N   UNL     1     -35.354  36.944 -50.604  1.00  0.00    -0.380 N 
HETATM   28  H   UNL     1     -35.856  36.097 -50.369  1.00  0.00     0.158 HD
HETATM   29  H   UNL     1     -34.723  36.879 -51.402  1.00  0.00     0.158 HD
ENDBRANCH  26  27
ENDBRANCH   2  22
TORSDOF 6
ENDMDL
MODEL 8
REMARK VINA RESULT:      -6.4      3.029      4.784
REMARK  6 active torsions:
REMARK  status: ('A' for Active; 'I' for Inactive)
REMARK    1  A    between atoms: C_2  and  N_3 
REMARK    2  A    between atoms: C_4  and  C_20 
REMARK    3  A    between atoms: C_10  and  C_11 
REMARK    4  A    between atoms: C_14  and  C_15 
REMARK    5  A    between atoms: C_15  and  N_16 
REMARK    6  A    between atoms: C_24  and  N_25 
ROOT
HETATM    1  N   UNL     1     -42.270  55.626 -52.161  1.00  0.00    -0.327 N 
HETATM    2  C   UNL     1     -41.735  54.447 -52.658  1.00  0.00     0.166 A 
HETATM    3  N   UNL     1     -41.958  54.349 -53.957  1.00  0.00    -0.225 NA
HETATM    4  C   UNL     1     -42.637  55.482 -54.316  1.00  0.00     0.104 A 
HETATM    5  C   UNL     1     -43.081  55.868 -55.585  1.00  0.00     0.150 A 
HETATM    6  N   UNL     1     -43.750  57.029 -55.758  1.00  0.00    -0.270 NA
HETATM    7  C   UNL     1     -43.986  57.795 -54.668  1.00  0.00     0.131 A 
HETATM    8  C   UNL     1     -43.595  57.510 -53.351  1.00  0.00     0.021 A 
HETATM    9  C   UNL     1     -42.881  56.301 -53.209  1.00  0.00     0.079 A 
ENDROOT
BRANCH   8  10
HETATM   10  C   UNL     1     -43.954  58.411 -52.265  1.00  0.00    -0.022 A 
HETATM   11  C   UNL     1     -45.111  58.188 -51.503  1.00  0.00     0.013 A 
HETATM   12  C   UNL     1     -45.490  59.078 -50.493  1.00  0.00     0.010 A 
HETATM   13  C   UNL     1     -44.725  60.221 -50.224  1.00  0.00    -0.031 A 
HETATM   14  C   UNL     1     -43.584  60.459 -51.003  1.00  0.00     0.010 A 
HETATM   15  C   UNL     1     -43.199  59.562 -52.004  1.00  0.00     0.013 A 
BRANCH  13  16
HETATM   16  C   UNL     1     -45.196  61.210 -49.184  1.00  0.00     0.305 C 
BRANCH  16  17
HETATM   17  N   UNL     1     -45.203  60.657 -47.833  1.00  0.00     0.082 N 
HETATM   18  H   UNL     1     -45.252  61.425 -47.165  1.00  0.00     0.313 HD
HETATM   19  H   UNL     1     -44.318  60.185 -47.664  1.00  0.00     0.313 HD
ENDBRANCH  16  17
ENDBRANCH  13  16
ENDBRANCH   8  10
BRANCH   1  20
HETATM   20  C   UNL     1     -42.157  56.089 -50.790  1.00  0.00     0.126 C 
HETATM   21  C   UNL     1     -40.971  57.016 -50.585  1.00  0.00     0.027 C 
ENDBRANCH   1  20
BRANCH   2  22
HETATM   22  C   UNL     1     -40.995  53.375 -51.909  1.00  0.00     0.179 A 
HETATM   23  N   UNL     1     -41.034  53.204 -50.586  1.00  0.00    -0.097 NA
HETATM   24  O   UNL     1     -40.234  52.093 -50.342  1.00  0.00    -0.104 OA
HETATM   25  N   UNL     1     -39.705  51.580 -51.520  1.00  0.00    -0.085 NA
HETATM   26  C   UNL     1     -40.162  52.378 -52.482  1.00  0.00     0.186 A 
BRANCH  26  27
HETATM   27  N   UNL     1     -39.878  52.243 -53.793  1.00  0.00    -0.380 N 
HETATM   28  H   UNL     1     -40.616  52.052 -54.458  1.00  0.00     0.158 HD
HETATM   29  H   UNL     1     -39.042  52.688 -54.172  1.00  0.00     0.158 HD
ENDBRANCH  26  27
ENDBRANCH   2  22
TORSDOF 6
ENDMDL
MODEL 9
REMARK VINA RESULT:      -6.4      2.593      4.447
REMARK  6 active torsions:
REMARK  status: ('A' for Active; 'I' for Inactive)
REMARK    1  A    between atoms: C_2  and  N_3 
REMARK    2  A    between atoms: C_4  and  C_20 
REMARK    3  A    between atoms: C_10  and  C_11 
REMARK    4  A    between atoms: C_14  and  C_15 
REMARK    5  A    between atoms: C_15  and  N_16 
REMARK    6  A    between atoms: C_24  and  N_25 
ROOT
HETATM    1  N   UNL     1     -41.611  55.210 -52.719  1.00  0.00    -0.327 N 
HETATM    2  C   UNL     1     -41.263  53.903 -53.027  1.00  0.00     0.166 A 
HETATM    3  N   UNL     1     -41.544  53.635 -54.289  1.00  0.00    -0.225 NA
HETATM    4  C   UNL     1     -42.073  54.782 -54.817  1.00  0.00     0.104 A 
HETATM    5  C   UNL     1     -42.505  55.023 -56.125  1.00  0.00     0.150 A 
HETATM    6  N   UNL     1     -43.013  56.226 -56.473  1.00  0.00    -0.270 NA
HETATM    7  C   UNL     1     -43.100  57.180 -55.518  1.00  0.00     0.131 A 
HETATM    8  C   UNL     1     -42.705  57.052 -54.178  1.00  0.00     0.021 A 
HETATM    9  C   UNL     1     -42.160  55.792 -53.853  1.00  0.00     0.079 A 
ENDROOT
BRANCH   8  10
HETATM   10  C   UNL     1     -42.896  58.156 -53.246  1.00  0.00    -0.022 A 
HETATM   11  C   UNL     1     -41.837  59.023 -52.937  1.00  0.00     0.013 A 
HETATM   12  C   UNL     1     -42.000  60.052 -52.004  1.00  0.00     0.010 A 
HETATM   13  C   UNL     1     -43.224  60.235 -51.348  1.00  0.00    -0.031 A 
HETATM   14  C   UNL     1     -44.274  59.352 -51.636  1.00  0.00     0.010 A 
HETATM   15  C   UNL     1     -44.115  58.331 -52.578  1.00  0.00     0.013 A 
BRANCH  13  16
HETATM   16  C   UNL     1     -43.354  61.302 -50.286  1.00  0.00     0.305 C 
BRANCH  16  17
HETATM   17  N   UNL     1     -43.994  60.818 -49.066  1.00  0.00     0.082 N 
HETATM   18  H   UNL     1     -44.577  61.562 -48.685  1.00  0.00     0.313 HD
HETATM   19  H   UNL     1     -43.277  60.629 -48.369  1.00  0.00     0.313 HD
ENDBRANCH  16  17
ENDBRANCH  13  16
ENDBRANCH   8  10
BRANCH   1  20
HETATM   20  C   UNL     1     -41.385  55.863 -51.442  1.00  0.00     0.126 C 
HETATM   21  C   UNL     1     -42.587  55.767 -50.519  1.00  0.00     0.027 C 
ENDBRANCH   1  20
BRANCH   2  22
HETATM   22  C   UNL     1     -40.651  52.869 -52.125  1.00  0.00     0.179 A 
HETATM   23  N   UNL     1     -40.843  52.798 -50.806  1.00  0.00    -0.097 NA
HETATM   24  O   UNL     1     -40.118  51.684 -50.396  1.00  0.00    -0.104 OA
HETATM   25  N   UNL     1     -39.482  51.070 -51.467  1.00  0.00    -0.085 NA
HETATM   26  C   UNL     1     -39.798  51.807 -52.529  1.00  0.00     0.186 A 
BRANCH  26  27
HETATM   27  N   UNL     1     -39.376  51.568 -53.786  1.00  0.00    -0.380 N 
HETATM   28  H   UNL     1     -39.675  50.733 -54.274  1.00  0.00     0.158 HD
HETATM   29  H   UNL     1     -39.091  52.349 -54.376  1.00  0.00     0.158 HD
ENDBRANCH  26  27
ENDBRANCH   2  22
TORSDOF 6
ENDMDL
MODEL 10
REMARK VINA RESULT:      -6.3      3.895      7.484
REMARK  6 active torsions:
REMARK  status: ('A' for Active; 'I' for Inactive)
REMARK    1  A    between atoms: C_2  and  N_3 
REMARK    2  A    between atoms: C_4  and  C_20 
REMARK    3  A    between atoms: C_10  and  C_11 
REMARK    4  A    between atoms: C_14  and  C_15 
REMARK    5  A    between atoms: C_15  and  N_16 
REMARK    6  A    between atoms: C_24  and  N_25 
ROOT
HETATM    1  N   UNL     1     -43.503  57.563 -56.237  1.00  0.00    -0.327 N 
HETATM    2  C   UNL     1     -43.980  57.797 -57.517  1.00  0.00     0.166 A 
HETATM    3  N   UNL     1     -44.819  58.818 -57.519  1.00  0.00    -0.225 NA
HETATM    4  C   UNL     1     -44.884  59.263 -56.226  1.00  0.00     0.104 A 
HETATM    5  C   UNL     1     -45.613  60.338 -55.709  1.00  0.00     0.150 A 
HETATM    6  N   UNL     1     -45.566  60.634 -54.391  1.00  0.00    -0.270 NA
HETATM    7  C   UNL     1     -44.803  59.854 -53.591  1.00  0.00     0.131 A 
HETATM    8  C   UNL     1     -44.036  58.751 -53.995  1.00  0.00     0.021 A 
HETATM    9  C   UNL     1     -44.092  58.482 -55.378  1.00  0.00     0.079 A 
ENDROOT
BRANCH   8  10
HETATM   10  C   UNL     1     -43.292  57.973 -53.012  1.00  0.00    -0.022 A 
HETATM   11  C   UNL     1     -43.925  56.961 -52.273  1.00  0.00     0.013 A 
HETATM   12  C   UNL     1     -43.230  56.247 -51.293  1.00  0.00     0.010 A 
HETATM   13  C   UNL     1     -41.886  56.531 -51.018  1.00  0.00    -0.031 A 
HETATM   14  C   UNL     1     -41.261  57.560 -51.737  1.00  0.00     0.010 A 
HETATM   15  C   UNL     1     -41.953  58.266 -52.727  1.00  0.00     0.013 A 
BRANCH  13  16
HETATM   16  C   UNL     1     -41.178  55.803 -49.900  1.00  0.00     0.305 C 
BRANCH  16  17
HETATM   17  N   UNL     1     -41.828  54.547 -49.535  1.00  0.00     0.082 N 
HETATM   18  H   UNL     1     -42.411  54.242 -50.313  1.00  0.00     0.313 HD
HETATM   19  H   UNL     1     -42.457  54.716 -48.753  1.00  0.00     0.313 HD
ENDBRANCH  16  17
ENDBRANCH  13  16
ENDBRANCH   8  10
BRANCH   1  20
HETATM   20  C   UNL     1     -42.515  56.562 -55.876  1.00  0.00     0.126 C 
HETATM   21  C   UNL     1     -43.144  55.226 -55.519  1.00  0.00     0.027 C 
ENDBRANCH   1  20
BRANCH   2  22
HETATM   22  C   UNL     1     -43.650  57.054 -58.781  1.00  0.00     0.179 A 
HETATM   23  N   UNL     1     -42.433  56.977 -59.324  1.00  0.00    -0.097 NA
HETATM   24  O   UNL     1     -42.592  56.176 -60.450  1.00  0.00    -0.104 OA
HETATM   25  N   UNL     1     -43.909  55.761 -60.596  1.00  0.00    -0.085 NA
HETATM   26  C   UNL     1     -44.563  56.313 -59.577  1.00  0.00     0.186 A 
BRANCH  26  27
HETATM   27  N   UNL     1     -45.883  56.174 -59.343  1.00  0.00    -0.380 N 
HETATM   28  H   UNL     1     -46.552  56.751 -59.837  1.00  0.00     0.158 HD
HETATM   29  H   UNL     1     -46.238  55.286 -58.989  1.00  0.00     0.158 HD
ENDBRANCH  26  27
ENDBRANCH   2  22
TORSDOF 6
ENDMDL
