MODEL 1
REMARK VINA RESULT:      -7.7      0.000      0.000
REMARK  5 active torsions:
REMARK  status: ('A' for Active; 'I' for Inactive)
REMARK    1  A    between atoms: O_2  and  C_3 
REMARK    2  A    between atoms: C_5  and  C_6 
REMARK    3  A    between atoms: C_10  and  C_11 
REMARK       I    between atoms: C_11  and  N_12 
REMARK    4  A    between atoms: N_12  and  C_13 
REMARK    5  A    between atoms: C_15  and  O_16 
ROOT
HETATM    1  C   UNL     1     -41.213  54.867 -54.143  1.00  0.00     0.063 A 
HETATM    2  N   UNL     1     -41.201  56.202 -53.822  1.00  0.00    -0.277 N 
HETATM    3  H   UNL     1     -40.838  56.628 -52.978  1.00  0.00     0.189 HD
HETATM    4  N   UNL     1     -41.718  57.011 -54.766  1.00  0.00    -0.169 NA
HETATM    5  C   UNL     1     -42.060  56.168 -55.761  1.00  0.00     0.147 A 
HETATM    6  C   UNL     1     -41.769  54.826 -55.407  1.00  0.00     0.071 A 
ENDROOT
BRANCH   5   7
HETATM    7  C   UNL     1     -42.643  56.647 -57.028  1.00  0.00     0.276 C 
HETATM    8  N   UNL     1     -43.503  55.715 -57.577  1.00  0.00    -0.322 N 
HETATM    9  H   UNL     1     -43.563  54.858 -57.032  1.00  0.00     0.169 HD
HETATM   10  O   UNL     1     -42.362  57.749 -57.486  1.00  0.00    -0.266 OA
BRANCH   8  11
HETATM   11  C   UNL     1     -44.279  55.814 -58.744  1.00  0.00     0.037 A 
HETATM   12  C   UNL     1     -45.135  56.885 -59.021  1.00  0.00     0.066 A 
HETATM   13  C   UNL     1     -45.891  56.903 -60.198  1.00  0.00     0.070 A 
HETATM   14  C   UNL     1     -45.776  55.849 -61.106  1.00  0.00     0.037 A 
HETATM   15  C   UNL     1     -44.926  54.779 -60.841  1.00  0.00     0.005 A 
HETATM   16  C   UNL     1     -44.181  54.761 -59.662  1.00  0.00     0.029 A 
BRANCH  13  17
HETATM   17  O   UNL     1     -46.768  57.885 -60.575  1.00  0.00    -0.356 OA
HETATM   18  C   UNL     1     -47.839  57.496 -61.429  1.00  0.00     0.210 C 
ENDBRANCH  13  17
ENDBRANCH   8  11
ENDBRANCH   5   7
BRANCH   1  19
HETATM   19  C   UNL     1     -40.689  53.808 -53.277  1.00  0.00    -0.005 A 
HETATM   20  C   UNL     1     -40.272  52.585 -53.834  1.00  0.00     0.050 A 
HETATM   21  C   UNL     1     -39.763  51.563 -53.029  1.00  0.00     0.069 A 
HETATM   22  C   UNL     1     -39.663  51.762 -51.652  1.00  0.00     0.037 A 
HETATM   23  C   UNL     1     -40.076  52.963 -51.081  1.00  0.00     0.004 A 
HETATM   24  C   UNL     1     -40.590  53.980 -51.889  1.00  0.00     0.014 A 
BRANCH  21  25
HETATM   25  O   UNL     1     -39.329  50.339 -53.460  1.00  0.00    -0.356 OA
HETATM   26  C   UNL     1     -39.879  49.851 -54.678  1.00  0.00     0.210 C 
ENDBRANCH  21  25
ENDBRANCH   1  19
TORSDOF 5
ENDMDL
MODEL 2
REMARK VINA RESULT:      -7.7      1.116      1.983
REMARK  5 active torsions:
REMARK  status: ('A' for Active; 'I' for Inactive)
REMARK    1  A    between atoms: O_2  and  C_3 
REMARK    2  A    between atoms: C_5  and  C_6 
REMARK    3  A    between atoms: C_10  and  C_11 
REMARK       I    between atoms: C_11  and  N_12 
REMARK    4  A    between atoms: N_12  and  C_13 
REMARK    5  A    between atoms: C_15  and  O_16 
ROOT
HETATM    1  C   UNL     1     -41.210  54.654 -54.228  1.00  0.00     0.063 A 
HETATM    2  N   UNL     1     -41.238  55.967 -53.827  1.00  0.00    -0.277 N 
HETATM    3  H   UNL     1     -40.891  56.352 -52.957  1.00  0.00     0.189 HD
HETATM    4  N   UNL     1     -41.774  56.816 -54.724  1.00  0.00    -0.169 NA
HETATM    5  C   UNL     1     -42.087  56.025 -55.770  1.00  0.00     0.147 A 
HETATM    6  C   UNL     1     -41.760  54.673 -55.496  1.00  0.00     0.071 A 
ENDROOT
BRANCH   5   7
HETATM    7  C   UNL     1     -42.679  56.562 -57.010  1.00  0.00     0.276 C 
HETATM    8  N   UNL     1     -43.506  55.640 -57.621  1.00  0.00    -0.322 N 
HETATM    9  H   UNL     1     -43.542  54.749 -57.129  1.00  0.00     0.169 HD
HETATM   10  O   UNL     1     -42.430  57.699 -57.397  1.00  0.00    -0.266 OA
BRANCH   8  11
HETATM   11  C   UNL     1     -44.279  55.786 -58.784  1.00  0.00     0.037 A 
HETATM   12  C   UNL     1     -45.099  56.889 -59.041  1.00  0.00     0.066 A 
HETATM   13  C   UNL     1     -45.854  56.955 -60.217  1.00  0.00     0.070 A 
HETATM   14  C   UNL     1     -45.775  55.914 -61.144  1.00  0.00     0.037 A 
HETATM   15  C   UNL     1     -44.960  54.812 -60.900  1.00  0.00     0.005 A 
HETATM   16  C   UNL     1     -44.216  54.747 -59.722  1.00  0.00     0.029 A 
BRANCH  13  17
HETATM   17  O   UNL     1     -46.699  57.972 -60.575  1.00  0.00    -0.356 OA
HETATM   18  C   UNL     1     -47.100  58.865 -59.542  1.00  0.00     0.210 C 
ENDBRANCH  13  17
ENDBRANCH   8  11
ENDBRANCH   5   7
BRANCH   1  19
HETATM   19  C   UNL     1     -40.659  53.560 -53.424  1.00  0.00    -0.005 A 
HETATM   20  C   UNL     1     -40.736  53.610 -52.020  1.00  0.00     0.050 A 
HETATM   21  C   UNL     1     -40.224  52.575 -51.233  1.00  0.00     0.069 A 
HETATM   22  C   UNL     1     -39.632  51.475 -51.851  1.00  0.00     0.037 A 
HETATM   23  C   UNL     1     -39.540  51.409 -53.240  1.00  0.00     0.004 A 
HETATM   24  C   UNL     1     -40.049  52.448 -54.022  1.00  0.00     0.014 A 
BRANCH  21  25
HETATM   25  O   UNL     1     -40.244  52.518 -49.866  1.00  0.00    -0.356 OA
HETATM   26  C   UNL     1     -40.407  53.748 -49.171  1.00  0.00     0.210 C 
ENDBRANCH  21  25
ENDBRANCH   1  19
TORSDOF 5
ENDMDL
MODEL 3
REMARK VINA RESULT:      -7.6      1.530      2.464
REMARK  5 active torsions:
REMARK  status: ('A' for Active; 'I' for Inactive)
REMARK    1  A    between atoms: O_2  and  C_3 
REMARK    2  A    between atoms: C_5  and  C_6 
REMARK    3  A    between atoms: C_10  and  C_11 
REMARK       I    between atoms: C_11  and  N_12 
REMARK    4  A    between atoms: N_12  and  C_13 
REMARK    5  A    between atoms: C_15  and  O_16 
ROOT
HETATM    1  C   UNL     1     -40.820  53.775 -54.056  1.00  0.00     0.063 A 
HETATM    2  N   UNL     1     -40.681  54.832 -53.191  1.00  0.00    -0.277 N 
HETATM    3  H   UNL     1     -40.278  54.818 -52.261  1.00  0.00     0.189 HD
HETATM    4  N   UNL     1     -41.120  56.011 -53.671  1.00  0.00    -0.169 NA
HETATM    5  C   UNL     1     -41.542  55.715 -54.917  1.00  0.00     0.147 A 
HETATM    6  C   UNL     1     -41.379  54.333 -55.189  1.00  0.00     0.071 A 
ENDROOT
BRANCH   5   7
HETATM    7  C   UNL     1     -42.079  56.743 -55.828  1.00  0.00     0.276 C 
HETATM    8  N   UNL     1     -42.339  56.226 -57.083  1.00  0.00    -0.322 N 
HETATM    9  H   UNL     1     -42.091  55.242 -57.168  1.00  0.00     0.169 HD
HETATM   10  O   UNL     1     -42.255  57.898 -55.456  1.00  0.00    -0.266 OA
BRANCH   8  11
HETATM   11  C   UNL     1     -42.892  56.869 -58.202  1.00  0.00     0.037 A 
HETATM   12  C   UNL     1     -44.240  56.779 -58.566  1.00  0.00     0.066 A 
HETATM   13  C   UNL     1     -44.713  57.435 -59.707  1.00  0.00     0.070 A 
HETATM   14  C   UNL     1     -43.832  58.196 -60.478  1.00  0.00     0.037 A 
HETATM   15  C   UNL     1     -42.489  58.294 -60.124  1.00  0.00     0.005 A 
HETATM   16  C   UNL     1     -42.020  57.631 -58.991  1.00  0.00     0.029 A 
BRANCH  13  17
HETATM   17  O   UNL     1     -46.001  57.414 -60.170  1.00  0.00    -0.356 OA
HETATM   18  C   UNL     1     -46.482  56.172 -60.672  1.00  0.00     0.210 C 
ENDBRANCH  13  17
ENDBRANCH   8  11
ENDBRANCH   5   7
BRANCH   1  19
HETATM   19  C   UNL     1     -40.397  52.405 -53.754  1.00  0.00    -0.005 A 
HETATM   20  C   UNL     1     -40.039  52.052 -52.440  1.00  0.00     0.050 A 
HETATM   21  C   UNL     1     -39.639  50.750 -52.127  1.00  0.00     0.069 A 
HETATM   22  C   UNL     1     -39.599  49.786 -53.135  1.00  0.00     0.037 A 
HETATM   23  C   UNL     1     -39.943  50.117 -54.444  1.00  0.00     0.004 A 
HETATM   24  C   UNL     1     -40.337  51.421 -54.752  1.00  0.00     0.014 A 
BRANCH  21  25
HETATM   25  O   UNL     1     -39.271  50.295 -50.890  1.00  0.00    -0.356 OA
HETATM   26  C   UNL     1     -40.256  50.345 -49.866  1.00  0.00     0.210 C 
ENDBRANCH  21  25
ENDBRANCH   1  19
TORSDOF 5
ENDMDL
MODEL 4
REMARK VINA RESULT:      -7.6      1.583      2.173
REMARK  5 active torsions:
REMARK  status: ('A' for Active; 'I' for Inactive)
REMARK    1  A    between atoms: O_2  and  C_3 
REMARK    2  A    between atoms: C_5  and  C_6 
REMARK    3  A    between atoms: C_10  and  C_11 
REMARK       I    between atoms: C_11  and  N_12 
REMARK    4  A    between atoms: N_12  and  C_13 
REMARK    5  A    between atoms: C_15  and  O_16 
ROOT
HETATM    1  C   UNL     1     -41.262  54.602 -53.014  1.00  0.00     0.063 A 
HETATM    2  N   UNL     1     -41.190  55.855 -52.457  1.00  0.00    -0.277 N 
HETATM    3  H   UNL     1     -40.784  56.109 -51.565  1.00  0.00     0.189 HD
HETATM    4  N   UNL     1     -41.708  56.837 -53.218  1.00  0.00    -0.169 NA
HETATM    5  C   UNL     1     -42.114  56.200 -54.335  1.00  0.00     0.147 A 
HETATM    6  C   UNL     1     -41.861  54.809 -54.242  1.00  0.00     0.071 A 
ENDROOT
BRANCH   5   7
HETATM    7  C   UNL     1     -42.722  56.919 -55.471  1.00  0.00     0.276 C 
HETATM    8  N   UNL     1     -42.186  56.511 -56.677  1.00  0.00    -0.322 N 
HETATM    9  H   UNL     1     -41.453  55.812 -56.572  1.00  0.00     0.169 HD
HETATM   10  O   UNL     1     -43.594  57.763 -55.300  1.00  0.00    -0.266 OA
BRANCH   8  11
HETATM   11  C   UNL     1     -42.528  56.922 -57.976  1.00  0.00     0.037 A 
HETATM   12  C   UNL     1     -43.265  56.139 -58.871  1.00  0.00     0.066 A 
HETATM   13  C   UNL     1     -43.551  56.610 -60.157  1.00  0.00     0.070 A 
HETATM   14  C   UNL     1     -43.108  57.878 -60.539  1.00  0.00     0.037 A 
HETATM   15  C   UNL     1     -42.376  58.666 -59.655  1.00  0.00     0.005 A 
HETATM   16  C   UNL     1     -42.085  58.188 -58.378  1.00  0.00     0.029 A 
BRANCH  13  17
HETATM   17  O   UNL     1     -44.250  55.937 -61.123  1.00  0.00    -0.356 OA
HETATM   18  C   UNL     1     -45.571  55.524 -60.789  1.00  0.00     0.210 C 
ENDBRANCH  13  17
ENDBRANCH   8  11
ENDBRANCH   5   7
BRANCH   1  19
HETATM   19  C   UNL     1     -40.748  53.388 -52.375  1.00  0.00    -0.005 A 
HETATM   20  C   UNL     1     -40.274  52.324 -53.165  1.00  0.00     0.050 A 
HETATM   21  C   UNL     1     -39.774  51.158 -52.578  1.00  0.00     0.069 A 
HETATM   22  C   UNL     1     -39.740  51.053 -51.188  1.00  0.00     0.037 A 
HETATM   23  C   UNL     1     -40.210  52.092 -50.389  1.00  0.00     0.004 A 
HETATM   24  C   UNL     1     -40.715  53.252 -50.980  1.00  0.00     0.014 A 
BRANCH  21  25
HETATM   25  O   UNL     1     -39.289  50.066 -53.244  1.00  0.00    -0.356 OA
HETATM   26  C   UNL     1     -39.733  49.875 -54.581  1.00  0.00     0.210 C 
ENDBRANCH  21  25
ENDBRANCH   1  19
TORSDOF 5
ENDMDL
MODEL 5
REMARK VINA RESULT:      -7.5      2.620      3.398
REMARK  5 active torsions:
REMARK  status: ('A' for Active; 'I' for Inactive)
REMARK    1  A    between atoms: O_2  and  C_3 
REMARK    2  A    between atoms: C_5  and  C_6 
REMARK    3  A    between atoms: C_10  and  C_11 
REMARK       I    between atoms: C_11  and  N_12 
REMARK    4  A    between atoms: N_12  and  C_13 
REMARK    5  A    between atoms: C_15  and  O_16 
ROOT
HETATM    1  C   UNL     1     -42.139  54.589 -53.933  1.00  0.00     0.063 A 
HETATM    2  N   UNL     1     -43.439  54.841 -53.572  1.00  0.00    -0.277 N 
HETATM    3  H   UNL     1     -43.948  54.446 -52.789  1.00  0.00     0.189 HD
HETATM    4  N   UNL     1     -44.076  55.733 -54.353  1.00  0.00    -0.169 NA
HETATM    5  C   UNL     1     -43.141  56.101 -55.251  1.00  0.00     0.147 A 
HETATM    6  C   UNL     1     -41.926  55.405 -55.028  1.00  0.00     0.071 A 
ENDROOT
BRANCH   5   7
HETATM    7  C   UNL     1     -43.408  57.109 -56.294  1.00  0.00     0.276 C 
HETATM    8  N   UNL     1     -42.289  57.351 -57.068  1.00  0.00    -0.322 N 
HETATM    9  H   UNL     1     -41.475  56.818 -56.770  1.00  0.00     0.169 HD
HETATM   10  O   UNL     1     -44.512  57.631 -56.411  1.00  0.00    -0.266 OA
BRANCH   8  11
HETATM   11  C   UNL     1     -42.154  58.202 -58.177  1.00  0.00     0.037 A 
HETATM   12  C   UNL     1     -41.981  59.587 -58.081  1.00  0.00     0.066 A 
HETATM   13  C   UNL     1     -41.872  60.371 -59.234  1.00  0.00     0.070 A 
HETATM   14  C   UNL     1     -41.922  59.760 -60.488  1.00  0.00     0.037 A 
HETATM   15  C   UNL     1     -42.091  58.382 -60.596  1.00  0.00     0.005 A 
HETATM   16  C   UNL     1     -42.209  57.607 -59.443  1.00  0.00     0.029 A 
BRANCH  13  17
HETATM   17  O   UNL     1     -41.713  61.731 -59.269  1.00  0.00    -0.356 OA
HETATM   18  C   UNL     1     -40.445  62.239 -58.868  1.00  0.00     0.210 C 
ENDBRANCH  13  17
ENDBRANCH   8  11
ENDBRANCH   5   7
BRANCH   1  19
HETATM   19  C   UNL     1     -41.251  53.668 -53.220  1.00  0.00    -0.005 A 
HETATM   20  C   UNL     1     -40.638  52.605 -53.910  1.00  0.00     0.050 A 
HETATM   21  C   UNL     1     -39.782  51.718 -53.253  1.00  0.00     0.069 A 
HETATM   22  C   UNL     1     -39.528  51.893 -51.892  1.00  0.00     0.037 A 
HETATM   23  C   UNL     1     -40.130  52.935 -51.190  1.00  0.00     0.004 A 
HETATM   24  C   UNL     1     -40.990  53.816 -51.851  1.00  0.00     0.014 A 
BRANCH  21  25
HETATM   25  O   UNL     1     -39.134  50.655 -53.820  1.00  0.00    -0.356 OA
HETATM   26  C   UNL     1     -39.919  49.762 -54.600  1.00  0.00     0.210 C 
ENDBRANCH  21  25
ENDBRANCH   1  19
TORSDOF 5
ENDMDL
MODEL 6
REMARK VINA RESULT:      -7.4      2.885      3.949
REMARK  5 active torsions:
REMARK  status: ('A' for Active; 'I' for Inactive)
REMARK    1  A    between atoms: O_2  and  C_3 
REMARK    2  A    between atoms: C_5  and  C_6 
REMARK    3  A    between atoms: C_10  and  C_11 
REMARK       I    between atoms: C_11  and  N_12 
REMARK    4  A    between atoms: N_12  and  C_13 
REMARK    5  A    between atoms: C_15  and  O_16 
ROOT
HETATM    1  C   UNL     1     -42.044  54.545 -54.363  1.00  0.00     0.063 A 
HETATM    2  N   UNL     1     -43.230  54.990 -53.833  1.00  0.00    -0.277 N 
HETATM    3  H   UNL     1     -43.659  54.705 -52.960  1.00  0.00     0.189 HD
HETATM    4  N   UNL     1     -43.858  55.925 -54.570  1.00  0.00    -0.169 NA
HETATM    5  C   UNL     1     -43.032  56.119 -55.618  1.00  0.00     0.147 A 
HETATM    6  C   UNL     1     -41.898  55.273 -55.529  1.00  0.00     0.071 A 
ENDROOT
BRANCH   5   7
HETATM    7  C   UNL     1     -43.324  57.106 -56.674  1.00  0.00     0.276 C 
HETATM    8  N   UNL     1     -42.171  57.532 -57.305  1.00  0.00    -0.322 N 
HETATM    9  H   UNL     1     -41.327  57.116 -56.918  1.00  0.00     0.169 HD
HETATM   10  O   UNL     1     -44.472  57.461 -56.918  1.00  0.00    -0.266 OA
BRANCH   8  11
HETATM   11  C   UNL     1     -42.036  58.425 -58.381  1.00  0.00     0.037 A 
HETATM   12  C   UNL     1     -41.846  59.803 -58.232  1.00  0.00     0.066 A 
HETATM   13  C   UNL     1     -41.738  60.631 -59.354  1.00  0.00     0.070 A 
HETATM   14  C   UNL     1     -41.806  60.071 -60.631  1.00  0.00     0.037 A 
HETATM   15  C   UNL     1     -41.993  58.700 -60.792  1.00  0.00     0.005 A 
HETATM   16  C   UNL     1     -42.109  57.881 -59.670  1.00  0.00     0.029 A 
BRANCH  13  17
HETATM   17  O   UNL     1     -41.563  61.989 -59.337  1.00  0.00    -0.356 OA
HETATM   18  C   UNL     1     -40.230  62.462 -59.188  1.00  0.00     0.210 C 
ENDBRANCH  13  17
ENDBRANCH   8  11
ENDBRANCH   5   7
BRANCH   1  19
HETATM   19  C   UNL     1     -41.184  53.543 -53.729  1.00  0.00    -0.005 A 
HETATM   20  C   UNL     1     -40.987  53.566 -52.336  1.00  0.00     0.050 A 
HETATM   21  C   UNL     1     -40.176  52.617 -51.707  1.00  0.00     0.069 A 
HETATM   22  C   UNL     1     -39.557  51.630 -52.475  1.00  0.00     0.037 A 
HETATM   23  C   UNL     1     -39.734  51.595 -53.856  1.00  0.00     0.004 A 
HETATM   24  C   UNL     1     -40.541  52.549 -54.480  1.00  0.00     0.014 A 
BRANCH  21  25
HETATM   25  O   UNL     1     -39.914  52.543 -50.366  1.00  0.00    -0.356 OA
HETATM   26  C   UNL     1     -40.550  53.502 -49.531  1.00  0.00     0.210 C 
ENDBRANCH  21  25
ENDBRANCH   1  19
TORSDOF 5
ENDMDL
MODEL 7
REMARK VINA RESULT:      -7.2      1.725      2.748
REMARK  5 active torsions:
REMARK  status: ('A' for Active; 'I' for Inactive)
REMARK    1  A    between atoms: O_2  and  C_3 
REMARK    2  A    between atoms: C_5  and  C_6 
REMARK    3  A    between atoms: C_10  and  C_11 
REMARK       I    between atoms: C_11  and  N_12 
REMARK    4  A    between atoms: N_12  and  C_13 
REMARK    5  A    between atoms: C_15  and  O_16 
ROOT
HETATM    1  C   UNL     1     -41.888  55.257 -55.160  1.00  0.00     0.063 A 
HETATM    2  N   UNL     1     -41.998  56.612 -54.970  1.00  0.00    -0.277 N 
HETATM    3  H   UNL     1     -41.671  57.150 -54.175  1.00  0.00     0.189 HD
HETATM    4  N   UNL     1     -42.591  57.275 -55.980  1.00  0.00    -0.169 NA
HETATM    5  C   UNL     1     -42.859  56.311 -56.884  1.00  0.00     0.147 A 
HETATM    6  C   UNL     1     -42.444  55.043 -56.407  1.00  0.00     0.071 A 
ENDROOT
BRANCH   5   7
HETATM    7  C   UNL     1     -43.490  56.609 -58.184  1.00  0.00     0.276 C 
HETATM    8  N   UNL     1     -44.816  56.967 -58.036  1.00  0.00    -0.322 N 
HETATM    9  H   UNL     1     -45.132  56.938 -57.069  1.00  0.00     0.169 HD
HETATM   10  O   UNL     1     -42.860  56.533 -59.233  1.00  0.00    -0.266 OA
BRANCH   8  11
HETATM   11  C   UNL     1     -45.735  57.363 -59.021  1.00  0.00     0.037 A 
HETATM   12  C   UNL     1     -46.329  56.482 -59.932  1.00  0.00     0.066 A 
HETATM   13  C   UNL     1     -47.223  56.955 -60.898  1.00  0.00     0.070 A 
HETATM   14  C   UNL     1     -47.534  58.316 -60.940  1.00  0.00     0.037 A 
HETATM   15  C   UNL     1     -46.951  59.201 -60.037  1.00  0.00     0.005 A 
HETATM   16  C   UNL     1     -46.053  58.726 -59.082  1.00  0.00     0.029 A 
BRANCH  13  17
HETATM   17  O   UNL     1     -47.856  56.198 -61.846  1.00  0.00    -0.356 OA
HETATM   18  C   UNL     1     -48.549  56.901 -62.872  1.00  0.00     0.210 C 
ENDBRANCH  13  17
ENDBRANCH   8  11
ENDBRANCH   5   7
BRANCH   1  19
HETATM   19  C   UNL     1     -41.264  54.340 -54.204  1.00  0.00    -0.005 A 
HETATM   20  C   UNL     1     -41.092  54.730 -52.863  1.00  0.00     0.050 A 
HETATM   21  C   UNL     1     -40.506  53.870 -51.931  1.00  0.00     0.069 A 
HETATM   22  C   UNL     1     -40.089  52.603 -52.338  1.00  0.00     0.037 A 
HETATM   23  C   UNL     1     -40.244  52.199 -53.662  1.00  0.00     0.004 A 
HETATM   24  C   UNL     1     -40.826  53.065 -54.591  1.00  0.00     0.014 A 
BRANCH  21  25
HETATM   25  O   UNL     1     -40.291  54.142 -50.607  1.00  0.00    -0.356 OA
HETATM   26  C   UNL     1     -40.412  53.057 -49.697  1.00  0.00     0.210 C 
ENDBRANCH  21  25
ENDBRANCH   1  19
TORSDOF 5
ENDMDL
MODEL 8
REMARK VINA RESULT:      -7.0      5.357      7.147
REMARK  5 active torsions:
REMARK  status: ('A' for Active; 'I' for Inactive)
REMARK    1  A    between atoms: O_2  and  C_3 
REMARK    2  A    between atoms: C_5  and  C_6 
REMARK    3  A    between atoms: C_10  and  C_11 
REMARK       I    between atoms: C_11  and  N_12 
REMARK    4  A    between atoms: N_12  and  C_13 
REMARK    5  A    between atoms: C_15  and  O_16 
ROOT
HETATM    1  C   UNL     1     -42.385  55.047 -53.111  1.00  0.00     0.063 A 
HETATM    2  N   UNL     1     -43.311  55.084 -54.125  1.00  0.00    -0.277 N 
HETATM    3  H   UNL     1     -43.481  54.375 -54.829  1.00  0.00     0.189 HD
HETATM    4  N   UNL     1     -44.077  56.190 -54.145  1.00  0.00    -0.169 NA
HETATM    5  C   UNL     1     -43.650  56.898 -53.080  1.00  0.00     0.147 A 
HETATM    6  C   UNL     1     -42.594  56.223 -52.417  1.00  0.00     0.071 A 
ENDROOT
BRANCH   5   7
HETATM    7  C   UNL     1     -44.255  58.189 -52.702  1.00  0.00     0.276 C 
HETATM    8  N   UNL     1     -43.716  58.680 -51.529  1.00  0.00    -0.322 N 
HETATM    9  H   UNL     1     -43.022  58.059 -51.118  1.00  0.00     0.169 HD
HETATM   10  O   UNL     1     -45.124  58.713 -53.390  1.00  0.00    -0.266 OA
BRANCH   8  11
HETATM   11  C   UNL     1     -43.994  59.890 -50.872  1.00  0.00     0.037 A 
HETATM   12  C   UNL     1     -45.191  60.154 -50.197  1.00  0.00     0.066 A 
HETATM   13  C   UNL     1     -45.401  61.392 -49.581  1.00  0.00     0.070 A 
HETATM   14  C   UNL     1     -44.400  62.364 -49.632  1.00  0.00     0.037 A 
HETATM   15  C   UNL     1     -43.204  62.112 -50.299  1.00  0.00     0.005 A 
HETATM   16  C   UNL     1     -43.004  60.879 -50.919  1.00  0.00     0.029 A 
BRANCH  13  17
HETATM   17  O   UNL     1     -46.529  61.771 -48.903  1.00  0.00    -0.356 OA
HETATM   18  C   UNL     1     -47.143  62.989 -49.311  1.00  0.00     0.210 C 
ENDBRANCH  13  17
ENDBRANCH   8  11
ENDBRANCH   5   7
BRANCH   1  19
HETATM   19  C   UNL     1     -41.457  53.936 -52.885  1.00  0.00    -0.005 A 
HETATM   20  C   UNL     1     -41.228  52.992 -53.903  1.00  0.00     0.050 A 
HETATM   21  C   UNL     1     -40.342  51.928 -53.712  1.00  0.00     0.069 A 
HETATM   22  C   UNL     1     -39.672  51.805 -52.495  1.00  0.00     0.037 A 
HETATM   23  C   UNL     1     -39.891  52.726 -51.473  1.00  0.00     0.004 A 
HETATM   24  C   UNL     1     -40.782  53.784 -51.666  1.00  0.00     0.014 A 
BRANCH  21  25
HETATM   25  O   UNL     1     -40.043  50.956 -54.627  1.00  0.00    -0.356 OA
HETATM   26  C   UNL     1     -39.620  49.698 -54.117  1.00  0.00     0.210 C 
ENDBRANCH  21  25
ENDBRANCH   1  19
TORSDOF 5
ENDMDL
MODEL 9
REMARK VINA RESULT:      -7.0      1.892      2.121
REMARK  5 active torsions:
REMARK  status: ('A' for Active; 'I' for Inactive)
REMARK    1  A    between atoms: O_2  and  C_3 
REMARK    2  A    between atoms: C_5  and  C_6 
REMARK    3  A    between atoms: C_10  and  C_11 
REMARK       I    between atoms: C_11  and  N_12 
REMARK    4  A    between atoms: N_12  and  C_13 
REMARK    5  A    between atoms: C_15  and  O_16 
ROOT
HETATM    1  C   UNL     1     -42.142  54.658 -53.561  1.00  0.00     0.063 A 
HETATM    2  N   UNL     1     -43.415  54.960 -53.145  1.00  0.00    -0.277 N 
HETATM    3  H   UNL     1     -43.921  54.552 -52.368  1.00  0.00     0.189 HD
HETATM    4  N   UNL     1     -44.024  55.926 -53.858  1.00  0.00    -0.169 NA
HETATM    5  C   UNL     1     -43.097  56.291 -54.766  1.00  0.00     0.147 A 
HETATM    6  C   UNL     1     -41.916  55.520 -54.618  1.00  0.00     0.071 A 
ENDROOT
BRANCH   5   7
HETATM    7  C   UNL     1     -43.339  57.367 -55.745  1.00  0.00     0.276 C 
HETATM    8  N   UNL     1     -43.075  56.950 -57.035  1.00  0.00    -0.322 N 
HETATM    9  H   UNL     1     -42.736  55.991 -57.083  1.00  0.00     0.169 HD
HETATM   10  O   UNL     1     -43.730  58.475 -55.394  1.00  0.00    -0.266 OA
BRANCH   8  11
HETATM   11  C   UNL     1     -43.224  57.660 -58.238  1.00  0.00     0.037 A 
HETATM   12  C   UNL     1     -44.462  57.954 -58.821  1.00  0.00     0.066 A 
HETATM   13  C   UNL     1     -44.529  58.651 -60.031  1.00  0.00     0.070 A 
HETATM   14  C   UNL     1     -43.350  59.067 -60.651  1.00  0.00     0.037 A 
HETATM   15  C   UNL     1     -42.113  58.782 -60.080  1.00  0.00     0.005 A 
HETATM   16  C   UNL     1     -42.051  58.079 -58.877  1.00  0.00     0.029 A 
BRANCH  13  17
HETATM   17  O   UNL     1     -45.674  58.987 -60.703  1.00  0.00    -0.356 OA
HETATM   18  C   UNL     1     -46.885  58.971 -59.955  1.00  0.00     0.210 C 
ENDBRANCH  13  17
ENDBRANCH   8  11
ENDBRANCH   5   7
BRANCH   1  19
HETATM   19  C   UNL     1     -41.285  53.654 -52.926  1.00  0.00    -0.005 A 
HETATM   20  C   UNL     1     -40.619  52.697 -53.715  1.00  0.00     0.050 A 
HETATM   21  C   UNL     1     -39.791  51.734 -53.132  1.00  0.00     0.069 A 
HETATM   22  C   UNL     1     -39.621  51.725 -51.748  1.00  0.00     0.037 A 
HETATM   23  C   UNL     1     -40.277  52.660 -50.950  1.00  0.00     0.004 A 
HETATM   24  C   UNL     1     -41.107  53.617 -51.536  1.00  0.00     0.014 A 
BRANCH  21  25
HETATM   25  O   UNL     1     -39.097  50.760 -53.798  1.00  0.00    -0.356 OA
HETATM   26  C   UNL     1     -39.856  49.842 -54.573  1.00  0.00     0.210 C 
ENDBRANCH  21  25
ENDBRANCH   1  19
TORSDOF 5
ENDMDL
MODEL 10
REMARK VINA RESULT:      -7.0     14.954     18.760
REMARK  5 active torsions:
REMARK  status: ('A' for Active; 'I' for Inactive)
REMARK    1  A    between atoms: O_2  and  C_3 
REMARK    2  A    between atoms: C_5  and  C_6 
REMARK    3  A    between atoms: C_10  and  C_11 
REMARK       I    between atoms: C_11  and  N_12 
REMARK    4  A    between atoms: N_12  and  C_13 
REMARK    5  A    between atoms: C_15  and  O_16 
ROOT
HETATM    1  C   UNL     1     -36.571  41.309 -55.159  1.00  0.00     0.063 A 
HETATM    2  N   UNL     1     -36.398  42.525 -54.547  1.00  0.00    -0.277 N 
HETATM    3  H   UNL     1     -36.501  43.443 -54.964  1.00  0.00     0.189 HD
HETATM    4  N   UNL     1     -36.076  42.457 -53.242  1.00  0.00    -0.169 NA
HETATM    5  C   UNL     1     -36.063  41.134 -52.982  1.00  0.00     0.147 A 
HETATM    6  C   UNL     1     -36.358  40.388 -54.151  1.00  0.00     0.071 A 
ENDROOT
BRANCH   5   7
HETATM    7  C   UNL     1     -35.785  40.602 -51.635  1.00  0.00     0.276 C 
HETATM    8  N   UNL     1     -34.471  40.191 -51.511  1.00  0.00    -0.322 N 
HETATM    9  H   UNL     1     -33.936  40.300 -52.370  1.00  0.00     0.169 HD
HETATM   10  O   UNL     1     -36.654  40.560 -50.772  1.00  0.00    -0.266 OA
BRANCH   8  11
HETATM   11  C   UNL     1     -33.814  39.674 -50.383  1.00  0.00     0.037 A 
HETATM   12  C   UNL     1     -32.557  40.108 -49.946  1.00  0.00     0.066 A 
HETATM   13  C   UNL     1     -31.958  39.531 -48.822  1.00  0.00     0.070 A 
HETATM   14  C   UNL     1     -32.629  38.525 -48.125  1.00  0.00     0.037 A 
HETATM   15  C   UNL     1     -33.881  38.087 -48.549  1.00  0.00     0.005 A 
HETATM   16  C   UNL     1     -34.470  38.659 -49.676  1.00  0.00     0.029 A 
BRANCH  13  17
HETATM   17  O   UNL     1     -30.733  39.860 -48.306  1.00  0.00    -0.356 OA
HETATM   18  C   UNL     1     -30.591  39.784 -46.892  1.00  0.00     0.210 C 
ENDBRANCH  13  17
ENDBRANCH   8  11
ENDBRANCH   5   7
BRANCH   1  19
HETATM   19  C   UNL     1     -36.939  41.140 -56.567  1.00  0.00    -0.005 A 
HETATM   20  C   UNL     1     -37.589  39.966 -56.989  1.00  0.00     0.050 A 
HETATM   21  C   UNL     1     -37.956  39.786 -58.325  1.00  0.00     0.069 A 
HETATM   22  C   UNL     1     -37.677  40.789 -59.252  1.00  0.00     0.037 A 
HETATM   23  C   UNL     1     -37.028  41.957 -58.856  1.00  0.00     0.004 A 
HETATM   24  C   UNL     1     -36.658  42.130 -57.520  1.00  0.00     0.014 A 
BRANCH  21  25
HETATM   25  O   UNL     1     -38.589  38.690 -58.846  1.00  0.00    -0.356 OA
HETATM   26  C   UNL     1     -38.503  38.503 -60.253  1.00  0.00     0.210 C 
ENDBRANCH  21  25
ENDBRANCH   1  19
TORSDOF 5
ENDMDL
