MODEL 1
REMARK VINA RESULT:      -6.8      0.000      0.000
REMARK  8 active torsions:
REMARK  status: ('A' for Active; 'I' for Inactive)
REMARK    1  A    between atoms: C_2  and  C_3 
REMARK    2  A    between atoms: C_3  and  N_4 
REMARK    3  A    between atoms: C_7  and  C_8 
REMARK       I    between atoms: C_8  and  N_9 
REMARK    4  A    between atoms: N_9  and  N_10 
REMARK       I    between atoms: N_10  and  C_11 
REMARK    5  A    between atoms: C_11  and  C_12 
REMARK    6  A    between atoms: C_15  and  O_16 
REMARK    7  A    between atoms: O_16  and  C_17 
REMARK    8  A    between atoms: C_23  and  C_24 
ROOT
HETATM    1  C   UNL     1     -43.240  57.042 -57.019  1.00  0.00     0.273 C 
HETATM    2  N   UNL     1     -43.552  55.711 -56.812  1.00  0.00    -0.263 N 
HETATM    3  O   UNL     1     -42.205  57.530 -56.570  1.00  0.00    -0.266 OA
HETATM    4  H   UNL     1     -44.448  55.292 -57.055  1.00  0.00     0.190 HD
ENDROOT
BRANCH   2   5
HETATM    5  N   UNL     1     -42.673  54.921 -56.063  1.00  0.00    -0.263 N 
HETATM    6  C   UNL     1     -42.982  54.680 -54.741  1.00  0.00     0.270 C 
HETATM    7  O   UNL     1     -44.004  55.115 -54.213  1.00  0.00    -0.266 OA
HETATM    8  H   UNL     1     -41.764  54.737 -56.484  1.00  0.00     0.190 HD
BRANCH   6   9
HETATM    9  C   UNL     1     -42.001  53.876 -53.963  1.00  0.00     0.033 A 
HETATM   10  C   UNL     1     -41.182  52.976 -54.654  1.00  0.00     0.020 A 
HETATM   11  C   UNL     1     -40.238  52.213 -53.961  1.00  0.00     0.038 A 
HETATM   12  C   UNL     1     -40.088  52.346 -52.579  1.00  0.00     0.068 A 
HETATM   13  C   UNL     1     -40.897  53.249 -51.889  1.00  0.00     0.038 A 
HETATM   14  C   UNL     1     -41.849  54.015 -52.576  1.00  0.00     0.020 A 
BRANCH  12  15
HETATM   15  O   UNL     1     -39.124  51.548 -52.031  1.00  0.00    -0.352 OA
BRANCH  15  16
HETATM   16  C   UNL     1     -39.397  50.148 -51.966  1.00  0.00     0.171 C 
HETATM   17  C   UNL     1     -39.835  49.821 -50.550  1.00  0.00     0.034 C 
ENDBRANCH  15  16
ENDBRANCH  12  15
ENDBRANCH   6   9
ENDBRANCH   2   5
BRANCH   1  18
HETATM   18  C   UNL     1     -44.211  57.760 -57.826  1.00  0.00     0.077 A 
HETATM   19  C   UNL     1     -45.396  58.356 -57.326  1.00  0.00     0.158 A 
HETATM   20  N   UNL     1     -46.125  58.946 -58.266  1.00  0.00    -0.183 NA
HETATM   21  N   UNL     1     -45.444  58.701 -59.402  1.00  0.00    -0.268 N 
HETATM   22  C   UNL     1     -44.248  58.040 -59.190  1.00  0.00     0.052 A 
BRANCH  21  23
HETATM   23  C   UNL     1     -46.044  59.115 -60.671  1.00  0.00     0.106 C 
HETATM   24  C   UNL     1     -47.539  58.775 -60.705  1.00  0.00     0.034 C 
BRANCH  23  25
HETATM   25  C   UNL     1     -45.820  60.609 -60.966  1.00  0.00     0.022 C 
HETATM   26  C   UNL     1     -44.831  60.853 -62.098  1.00  0.00     0.007 C 
ENDBRANCH  23  25
ENDBRANCH  21  23
BRANCH  22  27
HETATM   27  C   UNL     1     -43.219  57.767 -60.292  1.00  0.00     0.038 A 
HETATM   28  C   UNL     1     -42.135  58.773 -60.593  1.00  0.00     0.011 A 
HETATM   29  C   UNL     1     -41.781  57.471 -59.956  1.00  0.00     0.011 A 
ENDBRANCH  22  27
ENDBRANCH   1  18
TORSDOF 8
ENDMDL
MODEL 2
REMARK VINA RESULT:      -6.7      7.955     10.402
REMARK  8 active torsions:
REMARK  status: ('A' for Active; 'I' for Inactive)
REMARK    1  A    between atoms: C_2  and  C_3 
REMARK    2  A    between atoms: C_3  and  N_4 
REMARK    3  A    between atoms: C_7  and  C_8 
REMARK       I    between atoms: C_8  and  N_9 
REMARK    4  A    between atoms: N_9  and  N_10 
REMARK       I    between atoms: N_10  and  C_11 
REMARK    5  A    between atoms: C_11  and  C_12 
REMARK    6  A    between atoms: C_15  and  O_16 
REMARK    7  A    between atoms: O_16  and  C_17 
REMARK    8  A    between atoms: C_23  and  C_24 
ROOT
HETATM    1  C   UNL     1     -41.833  59.372 -50.796  1.00  0.00     0.273 C 
HETATM    2  N   UNL     1     -43.103  59.869 -50.564  1.00  0.00    -0.263 N 
HETATM    3  O   UNL     1     -40.920  59.563 -49.997  1.00  0.00    -0.266 OA
HETATM    4  H   UNL     1     -43.857  59.844 -51.248  1.00  0.00     0.190 HD
ENDROOT
BRANCH   2   5
HETATM    5  N   UNL     1     -43.333  60.614 -49.402  1.00  0.00    -0.263 N 
HETATM    6  C   UNL     1     -44.638  60.798 -48.997  1.00  0.00     0.270 C 
HETATM    7  O   UNL     1     -45.591  60.316 -49.606  1.00  0.00    -0.266 OA
HETATM    8  H   UNL     1     -42.538  61.137 -49.039  1.00  0.00     0.190 HD
BRANCH   6   9
HETATM    9  C   UNL     1     -44.848  61.635 -47.785  1.00  0.00     0.033 A 
HETATM   10  C   UNL     1     -44.838  61.008 -46.533  1.00  0.00     0.020 A 
HETATM   11  C   UNL     1     -45.017  61.762 -45.371  1.00  0.00     0.038 A 
HETATM   12  C   UNL     1     -45.192  63.146 -45.437  1.00  0.00     0.068 A 
HETATM   13  C   UNL     1     -45.193  63.775 -46.683  1.00  0.00     0.038 A 
HETATM   14  C   UNL     1     -45.018  63.025 -47.854  1.00  0.00     0.020 A 
BRANCH  12  15
HETATM   15  O   UNL     1     -45.347  63.760 -44.226  1.00  0.00    -0.352 OA
BRANCH  15  16
HETATM   16  C   UNL     1     -44.255  64.546 -43.749  1.00  0.00     0.171 C 
HETATM   17  C   UNL     1     -43.434  63.683 -42.808  1.00  0.00     0.034 C 
ENDBRANCH  15  16
ENDBRANCH  12  15
ENDBRANCH   6   9
ENDBRANCH   2   5
BRANCH   1  18
HETATM   18  C   UNL     1     -41.715  58.597 -52.019  1.00  0.00     0.077 A 
HETATM   19  C   UNL     1     -41.422  59.140 -53.296  1.00  0.00     0.158 A 
HETATM   20  N   UNL     1     -41.377  58.227 -54.259  1.00  0.00    -0.183 NA
HETATM   21  N   UNL     1     -41.685  57.078 -53.626  1.00  0.00    -0.268 N 
HETATM   22  C   UNL     1     -41.841  57.231 -52.261  1.00  0.00     0.052 A 
BRANCH  21  23
HETATM   23  C   UNL     1     -41.846  55.867 -54.432  1.00  0.00     0.106 C 
HETATM   24  C   UNL     1     -42.627  56.166 -55.717  1.00  0.00     0.034 C 
BRANCH  23  25
HETATM   25  C   UNL     1     -40.500  55.196 -54.757  1.00  0.00     0.022 C 
HETATM   26  C   UNL     1     -40.571  53.675 -54.740  1.00  0.00     0.007 C 
ENDBRANCH  23  25
ENDBRANCH  21  23
BRANCH  22  27
HETATM   27  C   UNL     1     -42.052  56.063 -51.292  1.00  0.00     0.038 A 
HETATM   28  C   UNL     1     -40.929  55.096 -51.002  1.00  0.00     0.011 A 
HETATM   29  C   UNL     1     -41.384  56.043 -49.941  1.00  0.00     0.011 A 
ENDBRANCH  22  27
ENDBRANCH   1  18
TORSDOF 8
ENDMDL
MODEL 3
REMARK VINA RESULT:      -6.7      1.748      2.416
REMARK  8 active torsions:
REMARK  status: ('A' for Active; 'I' for Inactive)
REMARK    1  A    between atoms: C_2  and  C_3 
REMARK    2  A    between atoms: C_3  and  N_4 
REMARK    3  A    between atoms: C_7  and  C_8 
REMARK       I    between atoms: C_8  and  N_9 
REMARK    4  A    between atoms: N_9  and  N_10 
REMARK       I    between atoms: N_10  and  C_11 
REMARK    5  A    between atoms: C_11  and  C_12 
REMARK    6  A    between atoms: C_15  and  O_16 
REMARK    7  A    between atoms: O_16  and  C_17 
REMARK    8  A    between atoms: C_23  and  C_24 
ROOT
HETATM    1  C   UNL     1     -43.996  57.241 -58.104  1.00  0.00     0.273 C 
HETATM    2  N   UNL     1     -44.138  56.818 -56.795  1.00  0.00    -0.263 N 
HETATM    3  O   UNL     1     -43.125  56.772 -58.833  1.00  0.00    -0.266 OA
HETATM    4  H   UNL     1     -44.758  57.260 -56.118  1.00  0.00     0.190 HD
ENDROOT
BRANCH   2   5
HETATM    5  N   UNL     1     -43.257  55.850 -56.300  1.00  0.00    -0.263 N 
HETATM    6  C   UNL     1     -43.217  55.644 -54.937  1.00  0.00     0.270 C 
HETATM    7  O   UNL     1     -43.936  56.263 -54.156  1.00  0.00    -0.266 OA
HETATM    8  H   UNL     1     -42.563  55.497 -56.957  1.00  0.00     0.190 HD
BRANCH   6   9
HETATM    9  C   UNL     1     -42.235  54.640 -54.444  1.00  0.00     0.033 A 
HETATM   10  C   UNL     1     -41.149  54.314 -55.264  1.00  0.00     0.020 A 
HETATM   11  C   UNL     1     -40.197  53.387 -54.831  1.00  0.00     0.038 A 
HETATM   12  C   UNL     1     -40.306  52.786 -53.574  1.00  0.00     0.068 A 
HETATM   13  C   UNL     1     -41.384  53.116 -52.751  1.00  0.00     0.038 A 
HETATM   14  C   UNL     1     -42.344  54.043 -53.181  1.00  0.00     0.020 A 
BRANCH  12  15
HETATM   15  O   UNL     1     -39.305  51.906 -53.274  1.00  0.00    -0.352 OA
BRANCH  15  16
HETATM   16  C   UNL     1     -39.673  50.541 -53.083  1.00  0.00     0.171 C 
HETATM   17  C   UNL     1     -39.675  49.862 -54.441  1.00  0.00     0.034 C 
ENDBRANCH  15  16
ENDBRANCH  12  15
ENDBRANCH   6   9
ENDBRANCH   2   5
BRANCH   1  18
HETATM   18  C   UNL     1     -44.976  58.232 -58.515  1.00  0.00     0.077 A 
HETATM   19  C   UNL     1     -44.811  59.634 -58.389  1.00  0.00     0.158 A 
HETATM   20  N   UNL     1     -45.853  60.329 -58.829  1.00  0.00    -0.183 NA
HETATM   21  N   UNL     1     -46.733  59.382 -59.208  1.00  0.00    -0.268 N 
HETATM   22  C   UNL     1     -46.234  58.097 -59.097  1.00  0.00     0.052 A 
BRANCH  21  23
HETATM   23  C   UNL     1     -48.065  59.808 -59.639  1.00  0.00     0.106 C 
HETATM   24  C   UNL     1     -48.771  60.597 -58.529  1.00  0.00     0.034 C 
BRANCH  23  25
HETATM   25  C   UNL     1     -48.027  60.622 -60.944  1.00  0.00     0.022 C 
HETATM   26  C   UNL     1     -48.666  59.894 -62.120  1.00  0.00     0.007 C 
ENDBRANCH  23  25
ENDBRANCH  21  23
BRANCH  22  27
HETATM   27  C   UNL     1     -46.974  56.850 -59.593  1.00  0.00     0.038 A 
HETATM   28  C   UNL     1     -47.229  56.647 -61.068  1.00  0.00     0.011 A 
HETATM   29  C   UNL     1     -46.252  55.771 -60.357  1.00  0.00     0.011 A 
ENDBRANCH  22  27
ENDBRANCH   1  18
TORSDOF 8
ENDMDL
MODEL 4
REMARK VINA RESULT:      -6.7      5.308      9.984
REMARK  8 active torsions:
REMARK  status: ('A' for Active; 'I' for Inactive)
REMARK    1  A    between atoms: C_2  and  C_3 
REMARK    2  A    between atoms: C_3  and  N_4 
REMARK    3  A    between atoms: C_7  and  C_8 
REMARK       I    between atoms: C_8  and  N_9 
REMARK    4  A    between atoms: N_9  and  N_10 
REMARK       I    between atoms: N_10  and  C_11 
REMARK    5  A    between atoms: C_11  and  C_12 
REMARK    6  A    between atoms: C_15  and  O_16 
REMARK    7  A    between atoms: O_16  and  C_17 
REMARK    8  A    between atoms: C_23  and  C_24 
ROOT
HETATM    1  C   UNL     1     -41.661  56.072 -51.663  1.00  0.00     0.273 C 
HETATM    2  N   UNL     1     -42.973  56.220 -52.074  1.00  0.00    -0.263 N 
HETATM    3  O   UNL     1     -40.994  57.040 -51.306  1.00  0.00    -0.266 OA
HETATM    4  H   UNL     1     -43.526  55.474 -52.494  1.00  0.00     0.190 HD
ENDROOT
BRANCH   2   5
HETATM    5  N   UNL     1     -43.533  57.502 -52.093  1.00  0.00    -0.263 N 
HETATM    6  C   UNL     1     -44.627  57.744 -51.288  1.00  0.00     0.270 C 
HETATM    7  O   UNL     1     -45.105  56.886 -50.550  1.00  0.00    -0.266 OA
HETATM    8  H   UNL     1     -43.222  58.117 -52.842  1.00  0.00     0.190 HD
BRANCH   6   9
HETATM    9  C   UNL     1     -45.225  59.105 -51.370  1.00  0.00     0.033 A 
HETATM   10  C   UNL     1     -45.405  59.825 -50.183  1.00  0.00     0.020 A 
HETATM   11  C   UNL     1     -45.950  61.110 -50.220  1.00  0.00     0.038 A 
HETATM   12  C   UNL     1     -46.309  61.700 -51.434  1.00  0.00     0.068 A 
HETATM   13  C   UNL     1     -46.122  60.988 -52.620  1.00  0.00     0.038 A 
HETATM   14  C   UNL     1     -45.579  59.695 -52.591  1.00  0.00     0.020 A 
BRANCH  12  15
HETATM   15  O   UNL     1     -46.821  62.962 -51.326  1.00  0.00    -0.352 OA
BRANCH  15  16
HETATM   16  C   UNL     1     -46.071  63.907 -50.563  1.00  0.00     0.171 C 
HETATM   17  C   UNL     1     -45.027  64.523 -51.477  1.00  0.00     0.034 C 
ENDBRANCH  15  16
ENDBRANCH  12  15
ENDBRANCH   6   9
ENDBRANCH   2   5
BRANCH   1  18
HETATM   18  C   UNL     1     -41.191  54.697 -51.664  1.00  0.00     0.077 A 
HETATM   19  C   UNL     1     -41.250  53.821 -50.552  1.00  0.00     0.158 A 
HETATM   20  N   UNL     1     -40.748  52.617 -50.802  1.00  0.00    -0.183 NA
HETATM   21  N   UNL     1     -40.312  52.709 -52.074  1.00  0.00    -0.268 N 
HETATM   22  C   UNL     1     -40.607  53.924 -52.665  1.00  0.00     0.052 A 
BRANCH  21  23
HETATM   23  C   UNL     1     -39.580  51.575 -52.638  1.00  0.00     0.106 C 
HETATM   24  C   UNL     1     -39.439  50.449 -51.606  1.00  0.00     0.034 C 
BRANCH  23  25
HETATM   25  C   UNL     1     -40.222  51.048 -53.934  1.00  0.00     0.022 C 
HETATM   26  C   UNL     1     -39.553  49.786 -54.461  1.00  0.00     0.007 C 
ENDBRANCH  23  25
ENDBRANCH  21  23
BRANCH  22  27
HETATM   27  C   UNL     1     -40.351  54.235 -54.143  1.00  0.00     0.038 A 
HETATM   28  C   UNL     1     -41.501  54.327 -55.118  1.00  0.00     0.011 A 
HETATM   29  C   UNL     1     -40.751  55.561 -54.739  1.00  0.00     0.011 A 
ENDBRANCH  22  27
ENDBRANCH   1  18
TORSDOF 8
ENDMDL
MODEL 5
REMARK VINA RESULT:      -6.7      2.269      9.971
REMARK  8 active torsions:
REMARK  status: ('A' for Active; 'I' for Inactive)
REMARK    1  A    between atoms: C_2  and  C_3 
REMARK    2  A    between atoms: C_3  and  N_4 
REMARK    3  A    between atoms: C_7  and  C_8 
REMARK       I    between atoms: C_8  and  N_9 
REMARK    4  A    between atoms: N_9  and  N_10 
REMARK       I    between atoms: N_10  and  C_11 
REMARK    5  A    between atoms: C_11  and  C_12 
REMARK    6  A    between atoms: C_15  and  O_16 
REMARK    7  A    between atoms: O_16  and  C_17 
REMARK    8  A    between atoms: C_23  and  C_24 
ROOT
HETATM    1  C   UNL     1     -42.210  54.398 -55.162  1.00  0.00     0.273 C 
HETATM    2  N   UNL     1     -41.485  55.408 -55.767  1.00  0.00    -0.263 N 
HETATM    3  O   UNL     1     -43.303  54.049 -55.600  1.00  0.00    -0.266 OA
HETATM    4  H   UNL     1     -40.638  55.815 -55.373  1.00  0.00     0.190 HD
ENDROOT
BRANCH   2   5
HETATM    5  N   UNL     1     -42.025  56.046 -56.889  1.00  0.00    -0.263 N 
HETATM    6  C   UNL     1     -42.398  57.368 -56.768  1.00  0.00     0.270 C 
HETATM    7  O   UNL     1     -42.254  58.000 -55.723  1.00  0.00    -0.266 OA
HETATM    8  H   UNL     1     -42.289  55.442 -57.665  1.00  0.00     0.190 HD
BRANCH   6   9
HETATM    9  C   UNL     1     -43.013  57.999 -57.967  1.00  0.00     0.033 A 
HETATM   10  C   UNL     1     -42.166  58.502 -58.961  1.00  0.00     0.020 A 
HETATM   11  C   UNL     1     -42.704  59.089 -60.109  1.00  0.00     0.038 A 
HETATM   12  C   UNL     1     -44.087  59.171 -60.288  1.00  0.00     0.068 A 
HETATM   13  C   UNL     1     -44.934  58.663 -59.302  1.00  0.00     0.038 A 
HETATM   14  C   UNL     1     -44.401  58.075 -58.146  1.00  0.00     0.020 A 
BRANCH  12  15
HETATM   15  O   UNL     1     -44.477  59.761 -61.457  1.00  0.00    -0.352 OA
BRANCH  15  16
HETATM   16  C   UNL     1     -43.608  60.750 -62.009  1.00  0.00     0.171 C 
HETATM   17  C   UNL     1     -44.111  61.090 -63.401  1.00  0.00     0.034 C 
ENDBRANCH  15  16
ENDBRANCH  12  15
ENDBRANCH   6   9
ENDBRANCH   2   5
BRANCH   1  18
HETATM   18  C   UNL     1     -41.545  53.794 -54.020  1.00  0.00     0.077 A 
HETATM   19  C   UNL     1     -40.472  52.871 -54.103  1.00  0.00     0.158 A 
HETATM   20  N   UNL     1     -40.042  52.455 -52.917  1.00  0.00    -0.183 NA
HETATM   21  N   UNL     1     -40.863  53.070 -52.044  1.00  0.00    -0.268 N 
HETATM   22  C   UNL     1     -41.753  53.939 -52.650  1.00  0.00     0.052 A 
BRANCH  21  23
HETATM   23  C   UNL     1     -40.742  52.733 -50.626  1.00  0.00     0.106 C 
HETATM   24  C   UNL     1     -40.197  51.310 -50.448  1.00  0.00     0.034 C 
BRANCH  23  25
HETATM   25  C   UNL     1     -39.879  53.746 -49.853  1.00  0.00     0.022 C 
HETATM   26  C   UNL     1     -40.556  54.269 -48.593  1.00  0.00     0.007 C 
ENDBRANCH  23  25
ENDBRANCH  21  23
BRANCH  22  27
HETATM   27  C   UNL     1     -42.696  54.867 -51.878  1.00  0.00     0.038 A 
HETATM   28  C   UNL     1     -42.214  56.209 -51.381  1.00  0.00     0.011 A 
HETATM   29  C   UNL     1     -43.207  56.143 -52.494  1.00  0.00     0.011 A 
ENDBRANCH  22  27
ENDBRANCH   1  18
TORSDOF 8
ENDMDL
MODEL 6
REMARK VINA RESULT:      -6.6      2.245      9.794
REMARK  8 active torsions:
REMARK  status: ('A' for Active; 'I' for Inactive)
REMARK    1  A    between atoms: C_2  and  C_3 
REMARK    2  A    between atoms: C_3  and  N_4 
REMARK    3  A    between atoms: C_7  and  C_8 
REMARK       I    between atoms: C_8  and  N_9 
REMARK    4  A    between atoms: N_9  and  N_10 
REMARK       I    between atoms: N_10  and  C_11 
REMARK    5  A    between atoms: C_11  and  C_12 
REMARK    6  A    between atoms: C_15  and  O_16 
REMARK    7  A    between atoms: O_16  and  C_17 
REMARK    8  A    between atoms: C_23  and  C_24 
ROOT
HETATM    1  C   UNL     1     -43.391  54.746 -54.408  1.00  0.00     0.273 C 
HETATM    2  N   UNL     1     -43.627  56.105 -54.508  1.00  0.00    -0.263 N 
HETATM    3  O   UNL     1     -43.645  53.987 -55.341  1.00  0.00    -0.266 OA
HETATM    4  H   UNL     1     -43.550  56.754 -53.726  1.00  0.00     0.190 HD
ENDROOT
BRANCH   2   5
HETATM    5  N   UNL     1     -44.178  56.609 -55.691  1.00  0.00    -0.263 N 
HETATM    6  C   UNL     1     -43.342  57.267 -56.568  1.00  0.00     0.270 C 
HETATM    7  O   UNL     1     -42.140  57.406 -56.354  1.00  0.00    -0.266 OA
HETATM    8  H   UNL     1     -45.195  56.629 -55.739  1.00  0.00     0.190 HD
BRANCH   6   9
HETATM    9  C   UNL     1     -43.973  57.831 -57.792  1.00  0.00     0.033 A 
HETATM   10  C   UNL     1     -44.618  59.069 -57.698  1.00  0.00     0.020 A 
HETATM   11  C   UNL     1     -45.210  59.639 -58.828  1.00  0.00     0.038 A 
HETATM   12  C   UNL     1     -45.155  58.993 -60.066  1.00  0.00     0.068 A 
HETATM   13  C   UNL     1     -44.504  57.762 -60.164  1.00  0.00     0.038 A 
HETATM   14  C   UNL     1     -43.911  57.183 -59.034  1.00  0.00     0.020 A 
BRANCH  12  15
HETATM   15  O   UNL     1     -45.766  59.664 -61.087  1.00  0.00    -0.352 OA
BRANCH  15  16
HETATM   16  C   UNL     1     -47.162  59.929 -60.949  1.00  0.00     0.171 C 
HETATM   17  C   UNL     1     -47.919  58.687 -61.387  1.00  0.00     0.034 C 
ENDBRANCH  15  16
ENDBRANCH  12  15
ENDBRANCH   6   9
ENDBRANCH   2   5
BRANCH   1  18
HETATM   18  C   UNL     1     -42.799  54.338 -53.146  1.00  0.00     0.077 A 
HETATM   19  C   UNL     1     -43.498  54.246 -51.917  1.00  0.00     0.158 A 
HETATM   20  N   UNL     1     -42.731  53.859 -50.903  1.00  0.00    -0.183 NA
HETATM   21  N   UNL     1     -41.508  53.738 -51.453  1.00  0.00    -0.268 N 
HETATM   22  C   UNL     1     -41.499  53.957 -52.819  1.00  0.00     0.052 A 
BRANCH  21  23
HETATM   23  C   UNL     1     -40.379  53.437 -50.572  1.00  0.00     0.106 C 
HETATM   24  C   UNL     1     -40.396  54.345 -49.336  1.00  0.00     0.034 C 
BRANCH  23  25
HETATM   25  C   UNL     1     -40.337  51.955 -50.157  1.00  0.00     0.022 C 
HETATM   26  C   UNL     1     -39.691  51.060 -51.206  1.00  0.00     0.007 C 
ENDBRANCH  23  25
ENDBRANCH  21  23
BRANCH  22  27
HETATM   27  C   UNL     1     -40.270  53.742 -53.708  1.00  0.00     0.038 A 
HETATM   28  C   UNL     1     -40.188  52.547 -54.627  1.00  0.00     0.011 A 
HETATM   29  C   UNL     1     -40.351  53.915 -55.202  1.00  0.00     0.011 A 
ENDBRANCH  22  27
ENDBRANCH   1  18
TORSDOF 8
ENDMDL
MODEL 7
REMARK VINA RESULT:      -6.5      5.185     10.060
REMARK  8 active torsions:
REMARK  status: ('A' for Active; 'I' for Inactive)
REMARK    1  A    between atoms: C_2  and  C_3 
REMARK    2  A    between atoms: C_3  and  N_4 
REMARK    3  A    between atoms: C_7  and  C_8 
REMARK       I    between atoms: C_8  and  N_9 
REMARK    4  A    between atoms: N_9  and  N_10 
REMARK       I    between atoms: N_10  and  C_11 
REMARK    5  A    between atoms: C_11  and  C_12 
REMARK    6  A    between atoms: C_15  and  O_16 
REMARK    7  A    between atoms: O_16  and  C_17 
REMARK    8  A    between atoms: C_23  and  C_24 
ROOT
HETATM    1  C   UNL     1     -41.625  56.370 -53.123  1.00  0.00     0.273 C 
HETATM    2  N   UNL     1     -42.981  56.477 -53.371  1.00  0.00    -0.263 N 
HETATM    3  O   UNL     1     -40.982  57.321 -52.684  1.00  0.00    -0.266 OA
HETATM    4  H   UNL     1     -43.531  55.764 -53.848  1.00  0.00     0.190 HD
ENDROOT
BRANCH   2   5
HETATM    5  N   UNL     1     -43.616  57.700 -53.128  1.00  0.00    -0.263 N 
HETATM    6  C   UNL     1     -44.386  57.817 -51.990  1.00  0.00     0.270 C 
HETATM    7  O   UNL     1     -44.513  56.898 -51.183  1.00  0.00    -0.266 OA
HETATM    8  H   UNL     1     -43.630  58.361 -53.903  1.00  0.00     0.190 HD
BRANCH   6   9
HETATM    9  C   UNL     1     -45.085  59.116 -51.789  1.00  0.00     0.033 A 
HETATM   10  C   UNL     1     -45.211  59.608 -50.486  1.00  0.00     0.020 A 
HETATM   11  C   UNL     1     -45.848  60.831 -50.257  1.00  0.00     0.038 A 
HETATM   12  C   UNL     1     -46.353  61.583 -51.320  1.00  0.00     0.068 A 
HETATM   13  C   UNL     1     -46.221  61.098 -52.622  1.00  0.00     0.038 A 
HETATM   14  C   UNL     1     -45.586  59.870 -52.859  1.00  0.00     0.020 A 
BRANCH  12  15
HETATM   15  O   UNL     1     -46.943  62.760 -50.956  1.00  0.00    -0.352 OA
BRANCH  15  16
HETATM   16  C   UNL     1     -46.685  63.237 -49.636  1.00  0.00     0.171 C 
HETATM   17  C   UNL     1     -48.016  63.602 -49.002  1.00  0.00     0.034 C 
ENDBRANCH  15  16
ENDBRANCH  12  15
ENDBRANCH   6   9
ENDBRANCH   2   5
BRANCH   1  18
HETATM   18  C   UNL     1     -41.076  55.052 -53.391  1.00  0.00     0.077 A 
HETATM   19  C   UNL     1     -40.430  54.674 -54.594  1.00  0.00     0.158 A 
HETATM   20  N   UNL     1     -40.024  53.409 -54.599  1.00  0.00    -0.183 NA
HETATM   21  N   UNL     1     -40.443  52.933 -53.411  1.00  0.00    -0.268 N 
HETATM   22  C   UNL     1     -41.032  53.897 -52.613  1.00  0.00     0.052 A 
BRANCH  21  23
HETATM   23  C   UNL     1     -40.263  51.507 -53.135  1.00  0.00     0.106 C 
HETATM   24  C   UNL     1     -39.979  50.733 -54.428  1.00  0.00     0.034 C 
BRANCH  23  25
HETATM   25  C   UNL     1     -39.161  51.246 -52.092  1.00  0.00     0.022 C 
HETATM   26  C   UNL     1     -39.550  50.193 -51.064  1.00  0.00     0.007 C 
ENDBRANCH  23  25
ENDBRANCH  21  23
BRANCH  22  27
HETATM   27  C   UNL     1     -41.464  53.654 -51.163  1.00  0.00     0.038 A 
HETATM   28  C   UNL     1     -40.522  53.955 -50.023  1.00  0.00     0.011 A 
HETATM   29  C   UNL     1     -41.731  54.806 -50.229  1.00  0.00     0.011 A 
ENDBRANCH  22  27
ENDBRANCH   1  18
TORSDOF 8
ENDMDL
MODEL 8
REMARK VINA RESULT:      -6.5      6.140     10.532
REMARK  8 active torsions:
REMARK  status: ('A' for Active; 'I' for Inactive)
REMARK    1  A    between atoms: C_2  and  C_3 
REMARK    2  A    between atoms: C_3  and  N_4 
REMARK    3  A    between atoms: C_7  and  C_8 
REMARK       I    between atoms: C_8  and  N_9 
REMARK    4  A    between atoms: N_9  and  N_10 
REMARK       I    between atoms: N_10  and  C_11 
REMARK    5  A    between atoms: C_11  and  C_12 
REMARK    6  A    between atoms: C_15  and  O_16 
REMARK    7  A    between atoms: O_16  and  C_17 
REMARK    8  A    between atoms: C_23  and  C_24 
ROOT
HETATM    1  C   UNL     1     -41.637  56.897 -51.361  1.00  0.00     0.273 C 
HETATM    2  N   UNL     1     -43.001  57.126 -51.381  1.00  0.00    -0.263 N 
HETATM    3  O   UNL     1     -40.875  57.652 -50.762  1.00  0.00    -0.266 OA
HETATM    4  H   UNL     1     -43.657  56.605 -51.962  1.00  0.00     0.190 HD
ENDROOT
BRANCH   2   5
HETATM    5  N   UNL     1     -43.506  58.248 -50.716  1.00  0.00    -0.263 N 
HETATM    6  C   UNL     1     -43.767  59.380 -51.459  1.00  0.00     0.270 C 
HETATM    7  O   UNL     1     -43.590  59.426 -52.674  1.00  0.00    -0.266 OA
HETATM    8  H   UNL     1     -43.465  58.223 -49.699  1.00  0.00     0.190 HD
BRANCH   6   9
HETATM    9  C   UNL     1     -44.258  60.569 -50.710  1.00  0.00     0.033 A 
HETATM   10  C   UNL     1     -43.385  61.647 -50.527  1.00  0.00     0.020 A 
HETATM   11  C   UNL     1     -43.813  62.787 -49.843  1.00  0.00     0.038 A 
HETATM   12  C   UNL     1     -45.115  62.875 -49.345  1.00  0.00     0.068 A 
HETATM   13  C   UNL     1     -45.991  61.805 -49.534  1.00  0.00     0.038 A 
HETATM   14  C   UNL     1     -45.567  60.656 -50.217  1.00  0.00     0.020 A 
BRANCH  12  15
HETATM   15  O   UNL     1     -45.404  64.047 -48.704  1.00  0.00    -0.352 OA
BRANCH  15  16
HETATM   16  C   UNL     1     -44.432  64.541 -47.782  1.00  0.00     0.171 C 
HETATM   17  C   UNL     1     -44.962  64.311 -46.378  1.00  0.00     0.034 C 
ENDBRANCH  15  16
ENDBRANCH  12  15
ENDBRANCH   6   9
ENDBRANCH   2   5
BRANCH   1  18
HETATM   18  C   UNL     1     -41.227  55.694 -52.066  1.00  0.00     0.077 A 
HETATM   19  C   UNL     1     -40.971  55.619 -53.458  1.00  0.00     0.158 A 
HETATM   20  N   UNL     1     -40.620  54.404 -53.864  1.00  0.00    -0.183 NA
HETATM   21  N   UNL     1     -40.687  53.659 -52.743  1.00  0.00    -0.268 N 
HETATM   22  C   UNL     1     -40.991  54.398 -51.614  1.00  0.00     0.052 A 
BRANCH  21  23
HETATM   23  C   UNL     1     -40.475  52.216 -52.858  1.00  0.00     0.106 C 
HETATM   24  C   UNL     1     -40.365  51.797 -54.330  1.00  0.00     0.034 C 
BRANCH  23  25
HETATM   25  C   UNL     1     -39.246  51.739 -52.064  1.00  0.00     0.022 C 
HETATM   26  C   UNL     1     -39.514  50.482 -51.248  1.00  0.00     0.007 C 
ENDBRANCH  23  25
ENDBRANCH  21  23
BRANCH  22  27
HETATM   27  C   UNL     1     -40.988  53.822 -50.194  1.00  0.00     0.038 A 
HETATM   28  C   UNL     1     -39.834  54.094 -49.260  1.00  0.00     0.011 A 
HETATM   29  C   UNL     1     -41.165  54.715 -48.993  1.00  0.00     0.011 A 
ENDBRANCH  22  27
ENDBRANCH   1  18
TORSDOF 8
ENDMDL
MODEL 9
REMARK VINA RESULT:      -6.5     15.844     18.539
REMARK  8 active torsions:
REMARK  status: ('A' for Active; 'I' for Inactive)
REMARK    1  A    between atoms: C_2  and  C_3 
REMARK    2  A    between atoms: C_3  and  N_4 
REMARK    3  A    between atoms: C_7  and  C_8 
REMARK       I    between atoms: C_8  and  N_9 
REMARK    4  A    between atoms: N_9  and  N_10 
REMARK       I    between atoms: N_10  and  C_11 
REMARK    5  A    between atoms: C_11  and  C_12 
REMARK    6  A    between atoms: C_15  and  O_16 
REMARK    7  A    between atoms: O_16  and  C_17 
REMARK    8  A    between atoms: C_23  and  C_24 
ROOT
HETATM    1  C   UNL     1     -35.612  41.201 -52.738  1.00  0.00     0.273 C 
HETATM    2  N   UNL     1     -35.501  39.966 -52.126  1.00  0.00    -0.263 N 
HETATM    3  O   UNL     1     -35.130  42.209 -52.226  1.00  0.00    -0.266 OA
HETATM    4  H   UNL     1     -35.986  39.128 -52.444  1.00  0.00     0.190 HD
ENDROOT
BRANCH   2   5
HETATM    5  N   UNL     1     -34.839  39.879 -50.896  1.00  0.00    -0.263 N 
HETATM    6  C   UNL     1     -33.649  39.184 -50.847  1.00  0.00     0.270 C 
HETATM    7  O   UNL     1     -33.149  38.663 -51.842  1.00  0.00    -0.266 OA
HETATM    8  H   UNL     1     -35.373  40.166 -50.078  1.00  0.00     0.190 HD
BRANCH   6   9
HETATM    9  C   UNL     1     -32.997  39.072 -49.514  1.00  0.00     0.033 A 
HETATM   10  C   UNL     1     -31.885  39.879 -49.248  1.00  0.00     0.020 A 
HETATM   11  C   UNL     1     -31.254  39.813 -48.003  1.00  0.00     0.038 A 
HETATM   12  C   UNL     1     -31.729  38.959 -47.005  1.00  0.00     0.068 A 
HETATM   13  C   UNL     1     -32.844  38.160 -47.265  1.00  0.00     0.038 A 
HETATM   14  C   UNL     1     -33.480  38.218 -48.514  1.00  0.00     0.020 A 
BRANCH  12  15
HETATM   15  O   UNL     1     -31.025  39.000 -45.835  1.00  0.00    -0.352 OA
BRANCH  15  16
HETATM   16  C   UNL     1     -30.026  40.012 -45.712  1.00  0.00     0.171 C 
HETATM   17  C   UNL     1     -30.006  40.476 -44.266  1.00  0.00     0.034 C 
ENDBRANCH  15  16
ENDBRANCH  12  15
ENDBRANCH   6   9
ENDBRANCH   2   5
BRANCH   1  18
HETATM   18  C   UNL     1     -36.300  41.169 -54.017  1.00  0.00     0.077 A 
HETATM   19  C   UNL     1     -37.704  41.069 -54.179  1.00  0.00     0.158 A 
HETATM   20  N   UNL     1     -38.088  41.049 -55.450  1.00  0.00    -0.183 NA
HETATM   21  N   UNL     1     -36.929  41.091 -56.136  1.00  0.00    -0.268 N 
HETATM   22  C   UNL     1     -35.818  41.224 -55.323  1.00  0.00     0.052 A 
BRANCH  21  23
HETATM   23  C   UNL     1     -36.982  40.959 -57.592  1.00  0.00     0.106 C 
HETATM   24  C   UNL     1     -38.114  40.014 -58.014  1.00  0.00     0.034 C 
BRANCH  23  25
HETATM   25  C   UNL     1     -37.119  42.319 -58.299  1.00  0.00     0.022 C 
HETATM   26  C   UNL     1     -37.270  42.195 -59.809  1.00  0.00     0.007 C 
ENDBRANCH  23  25
ENDBRANCH  21  23
BRANCH  22  27
HETATM   27  C   UNL     1     -34.397  41.439 -55.853  1.00  0.00     0.038 A 
HETATM   28  C   UNL     1     -33.227  40.724 -55.220  1.00  0.00     0.011 A 
HETATM   29  C   UNL     1     -33.671  40.346 -56.594  1.00  0.00     0.011 A 
ENDBRANCH  22  27
ENDBRANCH   1  18
TORSDOF 8
ENDMDL
MODEL 10
REMARK VINA RESULT:      -6.4      1.019      2.265
REMARK  8 active torsions:
REMARK  status: ('A' for Active; 'I' for Inactive)
REMARK    1  A    between atoms: C_2  and  C_3 
REMARK    2  A    between atoms: C_3  and  N_4 
REMARK    3  A    between atoms: C_7  and  C_8 
REMARK       I    between atoms: C_8  and  N_9 
REMARK    4  A    between atoms: N_9  and  N_10 
REMARK       I    between atoms: N_10  and  C_11 
REMARK    5  A    between atoms: C_11  and  C_12 
REMARK    6  A    between atoms: C_15  and  O_16 
REMARK    7  A    between atoms: O_16  and  C_17 
REMARK    8  A    between atoms: C_23  and  C_24 
ROOT
HETATM    1  C   UNL     1     -43.126  56.678 -57.342  1.00  0.00     0.273 C 
HETATM    2  N   UNL     1     -43.351  55.346 -57.048  1.00  0.00    -0.263 N 
HETATM    3  O   UNL     1     -42.180  57.286 -56.848  1.00  0.00    -0.266 OA
HETATM    4  H   UNL     1     -44.185  54.834 -57.332  1.00  0.00     0.190 HD
ENDROOT
BRANCH   2   5
HETATM    5  N   UNL     1     -42.489  54.696 -56.159  1.00  0.00    -0.263 N 
HETATM    6  C   UNL     1     -42.959  54.399 -54.898  1.00  0.00     0.270 C 
HETATM    7  O   UNL     1     -44.105  54.666 -54.542  1.00  0.00    -0.266 OA
HETATM    8  H   UNL     1     -41.508  54.658 -56.431  1.00  0.00     0.190 HD
BRANCH   6   9
HETATM    9  C   UNL     1     -41.999  53.751 -53.963  1.00  0.00     0.033 A 
HETATM   10  C   UNL     1     -41.227  52.684 -54.438  1.00  0.00     0.020 A 
HETATM   11  C   UNL     1     -40.304  52.058 -53.596  1.00  0.00     0.038 A 
HETATM   12  C   UNL     1     -40.127  52.494 -52.281  1.00  0.00     0.068 A 
HETATM   13  C   UNL     1     -40.889  53.564 -51.808  1.00  0.00     0.038 A 
HETATM   14  C   UNL     1     -41.820  54.194 -52.646  1.00  0.00     0.020 A 
BRANCH  12  15
HETATM   15  O   UNL     1     -39.188  51.800 -51.571  1.00  0.00    -0.352 OA
BRANCH  15  16
HETATM   16  C   UNL     1     -39.232  50.376 -51.652  1.00  0.00     0.171 C 
HETATM   17  C   UNL     1     -39.966  49.860 -50.427  1.00  0.00     0.034 C 
ENDBRANCH  15  16
ENDBRANCH  12  15
ENDBRANCH   6   9
ENDBRANCH   2   5
BRANCH   1  18
HETATM   18  C   UNL     1     -44.069  57.243 -58.291  1.00  0.00     0.077 A 
HETATM   19  C   UNL     1     -43.990  57.094 -59.698  1.00  0.00     0.158 A 
HETATM   20  N   UNL     1     -44.967  57.715 -60.350  1.00  0.00    -0.183 NA
HETATM   21  N   UNL     1     -45.673  58.316 -59.372  1.00  0.00    -0.268 N 
HETATM   22  C   UNL     1     -45.212  58.018 -58.103  1.00  0.00     0.052 A 
BRANCH  21  23
HETATM   23  C   UNL     1     -46.772  59.202 -59.758  1.00  0.00     0.106 C 
HETATM   24  C   UNL     1     -46.241  60.580 -60.174  1.00  0.00     0.034 C 
BRANCH  23  25
HETATM   25  C   UNL     1     -47.649  58.599 -60.870  1.00  0.00     0.022 C 
HETATM   26  C   UNL     1     -48.320  59.654 -61.739  1.00  0.00     0.007 C 
ENDBRANCH  23  25
ENDBRANCH  21  23
BRANCH  22  27
HETATM   27  C   UNL     1     -45.920  58.454 -56.816  1.00  0.00     0.038 A 
HETATM   28  C   UNL     1     -45.120  58.871 -55.605  1.00  0.00     0.011 A 
HETATM   29  C   UNL     1     -45.897  59.893 -56.367  1.00  0.00     0.011 A 
ENDBRANCH  22  27
ENDBRANCH   1  18
TORSDOF 8
ENDMDL
