MODEL 1
REMARK VINA RESULT:      -7.2      0.000      0.000
REMARK  9 active torsions:
REMARK  status: ('A' for Active; 'I' for Inactive)
REMARK    1  A    between atoms: C_6  and  C_7 
REMARK    2  A    between atoms: C_7  and  C_8 
REMARK       I    between atoms: C_8  and  N_9 
REMARK    3  A    between atoms: N_9  and  C_10 
REMARK    4  A    between atoms: C_10  and  C_11 
REMARK    5  A    between atoms: C_11  and  N_12 
REMARK    6  A    between atoms: C_19  and  C_20 
REMARK    7  A    between atoms: C_29  and  C_30 
REMARK    8  A    between atoms: C_30  and  O_31 
REMARK    9  A    between atoms: O_31  and  C_32 
ROOT
HETATM    1  C   UNL     1     -43.881  60.268 -52.902  1.00  0.00     0.071 C 
HETATM    2  C   UNL     1     -43.984  58.905 -53.547  1.00  0.00     0.048 C 
HETATM    3  N   UNL     1     -45.209  58.686 -54.199  1.00  0.00    -0.229 NA
HETATM    4  C   UNL     1     -45.149  57.968 -55.277  1.00  0.00     0.170 C 
HETATM    5  N   UNL     1     -43.862  57.162 -55.657  1.00  0.00    -0.318 N 
HETATM    6  C   UNL     1     -43.560  57.500 -56.871  1.00  0.00     0.011 C 
HETATM    7  C   UNL     1     -43.247  56.745 -54.383  1.00  0.00     0.168 C 
HETATM    8  S   UNL     1     -46.216  58.077 -56.625  1.00  0.00    -0.086 SA
HETATM    9  C   UNL     1     -44.757  57.882 -57.734  1.00  0.00     0.135 C 
HETATM   10  C   UNL     1     -42.936  58.050 -53.698  1.00  0.00     0.069 C 
ENDROOT
BRANCH   6  11
HETATM   11  C   UNL     1     -42.126  57.717 -57.255  1.00  0.00     0.156 C 
BRANCH  11  12
HETATM   12  C   UNL     1     -41.914  58.714 -58.367  1.00  0.00     0.223 C 
HETATM   13  N   UNL     1     -41.871  60.036 -57.981  1.00  0.00    -0.359 N 
HETATM   14  H   UNL     1     -41.939  60.290 -56.998  1.00  0.00     0.162 HD
HETATM   15  O   UNL     1     -41.829  58.363 -59.537  1.00  0.00    -0.273 OA
BRANCH  13  16
HETATM   16  C   UNL     1     -41.619  61.104 -58.944  1.00  0.00     0.150 C 
BRANCH  16  17
HETATM   17  C   UNL     1     -40.530  62.076 -58.454  1.00  0.00     0.254 C 
BRANCH  17  18
HETATM   18  N   UNL     1     -40.377  63.277 -59.359  1.00  0.00    -0.070 N 
HETATM   19  H   UNL     1     -40.833  64.091 -58.922  1.00  0.00     0.279 HD
HETATM   20  C   UNL     1     -40.991  63.095 -60.743  1.00  0.00     0.235 C 
HETATM   21  C   UNL     1     -39.799  62.970 -61.668  1.00  0.00     0.029 C 
HETATM   22  C   UNL     1     -38.799  63.931 -61.062  1.00  0.00     0.029 C 
HETATM   23  C   UNL     1     -38.913  63.657 -59.577  1.00  0.00     0.235 C 
ENDBRANCH  17  18
ENDBRANCH  16  17
ENDBRANCH  13  16
ENDBRANCH  11  12
ENDBRANCH   6  11
BRANCH   7  24
HETATM   24  C   UNL     1     -42.364  55.510 -54.242  1.00  0.00    -0.009 A 
HETATM   25  C   UNL     1     -42.384  54.553 -53.208  1.00  0.00     0.042 A 
HETATM   26 CL   UNL     1     -43.450  54.627 -51.852  1.00  0.00    -0.084 Cl
HETATM   27  C   UNL     1     -41.447  53.507 -53.165  1.00  0.00     0.024 A 
HETATM   28  C   UNL     1     -40.422  53.424 -54.101  1.00  0.00     0.002 A 
HETATM   29  C   UNL     1     -40.311  54.404 -55.072  1.00  0.00     0.001 A 
HETATM   30  C   UNL     1     -41.254  55.432 -55.129  1.00  0.00     0.011 A 
ENDBRANCH   7  24
BRANCH  10  31
HETATM   31  C   UNL     1     -41.570  58.624 -53.794  1.00  0.00     0.294 C 
HETATM   32  O   UNL     1     -41.246  59.331 -54.737  1.00  0.00    -0.259 OA
BRANCH  31  33
HETATM   33  O   UNL     1     -40.731  58.046 -52.919  1.00  0.00    -0.313 OA
BRANCH  33  34
HETATM   34  C   UNL     1     -40.931  58.323 -51.514  1.00  0.00     0.124 C 
HETATM   35  C   UNL     1     -40.962  57.009 -50.751  1.00  0.00     0.040 C 
HETATM   36  C   UNL     1     -39.777  59.206 -51.053  1.00  0.00     0.040 C 
ENDBRANCH  33  34
ENDBRANCH  31  33
ENDBRANCH  10  31
TORSDOF 9
ENDMDL
MODEL 2
REMARK VINA RESULT:      -7.1      3.611      6.480
REMARK  9 active torsions:
REMARK  status: ('A' for Active; 'I' for Inactive)
REMARK    1  A    between atoms: C_6  and  C_7 
REMARK    2  A    between atoms: C_7  and  C_8 
REMARK       I    between atoms: C_8  and  N_9 
REMARK    3  A    between atoms: N_9  and  C_10 
REMARK    4  A    between atoms: C_10  and  C_11 
REMARK    5  A    between atoms: C_11  and  N_12 
REMARK    6  A    between atoms: C_19  and  C_20 
REMARK    7  A    between atoms: C_29  and  C_30 
REMARK    8  A    between atoms: C_30  and  O_31 
REMARK    9  A    between atoms: O_31  and  C_32 
ROOT
HETATM    1  C   UNL     1     -42.077  60.059 -55.409  1.00  0.00     0.071 C 
HETATM    2  C   UNL     1     -41.449  59.030 -54.497  1.00  0.00     0.048 C 
HETATM    3  N   UNL     1     -40.674  59.592 -53.468  1.00  0.00    -0.229 NA
HETATM    4  C   UNL     1     -40.700  58.958 -52.338  1.00  0.00     0.170 C 
HETATM    5  N   UNL     1     -41.306  57.520 -52.216  1.00  0.00    -0.318 N 
HETATM    6  C   UNL     1     -42.171  57.563 -51.252  1.00  0.00     0.011 C 
HETATM    7  C   UNL     1     -41.038  56.851 -53.503  1.00  0.00     0.168 C 
HETATM    8  S   UNL     1     -40.488  59.660 -50.780  1.00  0.00    -0.086 SA
HETATM    9  C   UNL     1     -41.843  58.576 -50.160  1.00  0.00     0.135 C 
HETATM   10  C   UNL     1     -41.769  57.707 -54.504  1.00  0.00     0.069 C 
ENDROOT
BRANCH   6  11
HETATM   11  C   UNL     1     -43.479  56.841 -51.382  1.00  0.00     0.156 C 
BRANCH  11  12
HETATM   12  C   UNL     1     -44.691  57.736 -51.446  1.00  0.00     0.223 C 
HETATM   13  N   UNL     1     -44.591  58.813 -52.301  1.00  0.00    -0.359 N 
HETATM   14  H   UNL     1     -43.757  58.946 -52.869  1.00  0.00     0.162 HD
HETATM   15  O   UNL     1     -45.677  57.533 -50.750  1.00  0.00    -0.273 OA
BRANCH  13  16
HETATM   16  C   UNL     1     -45.707  59.732 -52.503  1.00  0.00     0.150 C 
BRANCH  16  17
HETATM   17  C   UNL     1     -45.328  61.184 -52.160  1.00  0.00     0.254 C 
BRANCH  17  18
HETATM   18  N   UNL     1     -44.112  61.267 -51.266  1.00  0.00    -0.070 N 
HETATM   19  H   UNL     1     -43.535  60.425 -51.399  1.00  0.00     0.279 HD
HETATM   20  C   UNL     1     -44.438  61.371 -49.780  1.00  0.00     0.235 C 
HETATM   21  C   UNL     1     -44.088  62.799 -49.418  1.00  0.00     0.029 C 
HETATM   22  C   UNL     1     -42.862  63.070 -50.262  1.00  0.00     0.029 C 
HETATM   23  C   UNL     1     -43.225  62.466 -51.603  1.00  0.00     0.235 C 
ENDBRANCH  17  18
ENDBRANCH  16  17
ENDBRANCH  13  16
ENDBRANCH  11  12
ENDBRANCH   6  11
BRANCH   7  24
HETATM   24  C   UNL     1     -40.910  55.338 -53.652  1.00  0.00    -0.009 A 
HETATM   25  C   UNL     1     -40.788  54.381 -52.626  1.00  0.00     0.042 A 
HETATM   26 CL   UNL     1     -40.744  54.776 -50.946  1.00  0.00    -0.084 Cl
HETATM   27  C   UNL     1     -40.590  53.021 -52.917  1.00  0.00     0.024 A 
HETATM   28  C   UNL     1     -40.433  52.584 -54.228  1.00  0.00     0.002 A 
HETATM   29  C   UNL     1     -40.447  53.511 -55.257  1.00  0.00     0.001 A 
HETATM   30  C   UNL     1     -40.665  54.860 -54.970  1.00  0.00     0.011 A 
ENDBRANCH   7  24
BRANCH  10  31
HETATM   31  C   UNL     1     -43.128  57.316 -54.955  1.00  0.00     0.294 C 
HETATM   32  O   UNL     1     -43.836  56.588 -54.272  1.00  0.00    -0.259 OA
BRANCH  31  33
HETATM   33  O   UNL     1     -43.320  57.610 -56.251  1.00  0.00    -0.313 OA
BRANCH  33  34
HETATM   34  C   UNL     1     -42.489  56.935 -57.222  1.00  0.00     0.124 C 
HETATM   35  C   UNL     1     -43.172  55.645 -57.646  1.00  0.00     0.040 C 
HETATM   36  C   UNL     1     -42.305  57.881 -58.403  1.00  0.00     0.040 C 
ENDBRANCH  33  34
ENDBRANCH  31  33
ENDBRANCH  10  31
TORSDOF 9
ENDMDL
MODEL 3
REMARK VINA RESULT:      -7.1      3.766      8.145
REMARK  9 active torsions:
REMARK  status: ('A' for Active; 'I' for Inactive)
REMARK    1  A    between atoms: C_6  and  C_7 
REMARK    2  A    between atoms: C_7  and  C_8 
REMARK       I    between atoms: C_8  and  N_9 
REMARK    3  A    between atoms: N_9  and  C_10 
REMARK    4  A    between atoms: C_10  and  C_11 
REMARK    5  A    between atoms: C_11  and  N_12 
REMARK    6  A    between atoms: C_19  and  C_20 
REMARK    7  A    between atoms: C_29  and  C_30 
REMARK    8  A    between atoms: C_30  and  O_31 
REMARK    9  A    between atoms: O_31  and  C_32 
ROOT
HETATM    1  C   UNL     1     -44.505  61.477 -53.869  1.00  0.00     0.071 C 
HETATM    2  C   UNL     1     -43.435  60.568 -54.429  1.00  0.00     0.048 C 
HETATM    3  N   UNL     1     -42.223  60.628 -53.720  1.00  0.00    -0.229 NA
HETATM    4  C   UNL     1     -41.568  59.513 -53.635  1.00  0.00     0.170 C 
HETATM    5  N   UNL     1     -41.950  58.268 -54.504  1.00  0.00    -0.318 N 
HETATM    6  C   UNL     1     -42.092  57.274 -53.685  1.00  0.00     0.011 C 
HETATM    7  C   UNL     1     -42.461  58.800 -55.781  1.00  0.00     0.168 C 
HETATM    8  S   UNL     1     -40.510  59.057 -52.355  1.00  0.00    -0.086 SA
HETATM    9  C   UNL     1     -41.220  57.358 -52.437  1.00  0.00     0.135 C 
HETATM   10  C   UNL     1     -43.661  59.611 -55.370  1.00  0.00     0.069 C 
ENDROOT
BRANCH   6  11
HETATM   11  C   UNL     1     -43.211  56.294 -53.880  1.00  0.00     0.156 C 
BRANCH  11  12
HETATM   12  C   UNL     1     -42.871  54.868 -53.526  1.00  0.00     0.223 C 
HETATM   13  N   UNL     1     -41.784  54.335 -54.184  1.00  0.00    -0.359 N 
HETATM   14  H   UNL     1     -41.240  54.903 -54.830  1.00  0.00     0.162 HD
HETATM   15  O   UNL     1     -43.548  54.224 -52.735  1.00  0.00    -0.273 OA
BRANCH  13  16
HETATM   16  C   UNL     1     -41.309  52.983 -53.900  1.00  0.00     0.150 C 
BRANCH  16  17
HETATM   17  C   UNL     1     -40.458  52.930 -52.618  1.00  0.00     0.254 C 
BRANCH  17  18
HETATM   18  N   UNL     1     -39.436  51.817 -52.649  1.00  0.00    -0.070 N 
HETATM   19  H   UNL     1     -38.496  52.217 -52.523  1.00  0.00     0.279 HD
HETATM   20  C   UNL     1     -39.425  51.018 -53.948  1.00  0.00     0.235 C 
HETATM   21  C   UNL     1     -40.021  49.679 -53.569  1.00  0.00     0.029 C 
HETATM   22  C   UNL     1     -39.484  49.453 -52.173  1.00  0.00     0.029 C 
HETATM   23  C   UNL     1     -39.641  50.809 -51.518  1.00  0.00     0.235 C 
ENDBRANCH  17  18
ENDBRANCH  16  17
ENDBRANCH  13  16
ENDBRANCH  11  12
ENDBRANCH   6  11
BRANCH   7  24
HETATM   24  C   UNL     1     -42.400  58.030 -57.096  1.00  0.00    -0.009 A 
HETATM   25  C   UNL     1     -42.070  58.531 -58.371  1.00  0.00     0.042 A 
HETATM   26 CL   UNL     1     -41.678  60.183 -58.680  1.00  0.00    -0.084 Cl
HETATM   27  C   UNL     1     -42.138  57.717 -59.514  1.00  0.00     0.024 A 
HETATM   28  C   UNL     1     -42.606  56.409 -59.436  1.00  0.00     0.002 A 
HETATM   29  C   UNL     1     -43.034  55.915 -58.216  1.00  0.00     0.001 A 
HETATM   30  C   UNL     1     -42.946  56.716 -57.075  1.00  0.00     0.011 A 
ENDBRANCH   7  24
BRANCH  10  31
HETATM   31  C   UNL     1     -45.017  59.012 -55.450  1.00  0.00     0.294 C 
HETATM   32  O   UNL     1     -45.327  58.051 -54.759  1.00  0.00    -0.259 OA
BRANCH  31  33
HETATM   33  O   UNL     1     -45.689  59.457 -56.524  1.00  0.00    -0.313 OA
BRANCH  33  34
HETATM   34  C   UNL     1     -45.886  58.536 -57.621  1.00  0.00     0.124 C 
HETATM   35  C   UNL     1     -47.325  58.049 -57.604  1.00  0.00     0.040 C 
HETATM   36  C   UNL     1     -45.567  59.284 -58.910  1.00  0.00     0.040 C 
ENDBRANCH  33  34
ENDBRANCH  31  33
ENDBRANCH  10  31
TORSDOF 9
ENDMDL
MODEL 4
REMARK VINA RESULT:      -6.8      3.195      6.600
REMARK  9 active torsions:
REMARK  status: ('A' for Active; 'I' for Inactive)
REMARK    1  A    between atoms: C_6  and  C_7 
REMARK    2  A    between atoms: C_7  and  C_8 
REMARK       I    between atoms: C_8  and  N_9 
REMARK    3  A    between atoms: N_9  and  C_10 
REMARK    4  A    between atoms: C_10  and  C_11 
REMARK    5  A    between atoms: C_11  and  N_12 
REMARK    6  A    between atoms: C_19  and  C_20 
REMARK    7  A    between atoms: C_29  and  C_30 
REMARK    8  A    between atoms: C_30  and  O_31 
REMARK    9  A    between atoms: O_31  and  C_32 
ROOT
HETATM    1  C   UNL     1     -43.378  62.153 -55.950  1.00  0.00     0.071 C 
HETATM    2  C   UNL     1     -44.039  60.832 -55.632  1.00  0.00     0.048 C 
HETATM    3  N   UNL     1     -44.976  60.428 -56.598  1.00  0.00    -0.229 NA
HETATM    4  C   UNL     1     -45.048  59.151 -56.810  1.00  0.00     0.170 C 
HETATM    5  N   UNL     1     -44.358  58.120 -55.854  1.00  0.00    -0.318 N 
HETATM    6  C   UNL     1     -43.628  57.354 -56.601  1.00  0.00     0.011 C 
HETATM    7  C   UNL     1     -44.413  58.712 -54.504  1.00  0.00     0.168 C 
HETATM    8  S   UNL     1     -45.504  58.395 -58.288  1.00  0.00    -0.086 SA
HETATM    9  C   UNL     1     -44.163  57.161 -58.016  1.00  0.00     0.135 C 
HETATM   10  C   UNL     1     -43.626  59.989 -54.647  1.00  0.00     0.069 C 
ENDROOT
BRANCH   6  11
HETATM   11  C   UNL     1     -42.265  56.932 -56.139  1.00  0.00     0.156 C 
BRANCH  11  12
HETATM   12  C   UNL     1     -42.113  55.453 -55.885  1.00  0.00     0.223 C 
HETATM   13  N   UNL     1     -40.931  55.070 -55.289  1.00  0.00    -0.359 N 
HETATM   14  H   UNL     1     -40.242  55.766 -55.012  1.00  0.00     0.162 HD
HETATM   15  O   UNL     1     -42.973  54.651 -56.227  1.00  0.00    -0.273 OA
BRANCH  13  16
HETATM   16  C   UNL     1     -40.672  53.677 -54.936  1.00  0.00     0.150 C 
BRANCH  16  17
HETATM   17  C   UNL     1     -41.219  53.326 -53.540  1.00  0.00     0.254 C 
BRANCH  17  18
HETATM   18  N   UNL     1     -40.147  53.357 -52.475  1.00  0.00    -0.070 N 
HETATM   19  H   UNL     1     -39.326  53.865 -52.835  1.00  0.00     0.279 HD
HETATM   20  C   UNL     1     -39.674  51.978 -52.027  1.00  0.00     0.235 C 
HETATM   21  C   UNL     1     -40.244  51.821 -50.634  1.00  0.00     0.029 C 
HETATM   22  C   UNL     1     -40.140  53.220 -50.067  1.00  0.00     0.029 C 
HETATM   23  C   UNL     1     -40.602  54.093 -51.215  1.00  0.00     0.235 C 
ENDBRANCH  17  18
ENDBRANCH  16  17
ENDBRANCH  13  16
ENDBRANCH  11  12
ENDBRANCH   6  11
BRANCH   7  24
HETATM   24  C   UNL     1     -44.411  57.884 -53.223  1.00  0.00    -0.009 A 
HETATM   25  C   UNL     1     -44.991  58.218 -51.983  1.00  0.00     0.042 A 
HETATM   26 CL   UNL     1     -45.824  59.699 -51.681  1.00  0.00    -0.084 Cl
HETATM   27  C   UNL     1     -44.835  57.389 -50.859  1.00  0.00     0.024 A 
HETATM   28  C   UNL     1     -44.042  56.248 -50.914  1.00  0.00     0.002 A 
HETATM   29  C   UNL     1     -43.376  55.943 -52.089  1.00  0.00     0.001 A 
HETATM   30  C   UNL     1     -43.547  56.754 -53.212  1.00  0.00     0.011 A 
ENDBRANCH   7  24
BRANCH  10  31
HETATM   31  C   UNL     1     -42.196  60.021 -54.249  1.00  0.00     0.294 C 
HETATM   32  O   UNL     1     -41.349  59.407 -54.884  1.00  0.00    -0.259 OA
BRANCH  31  33
HETATM   33  O   UNL     1     -42.039  60.533 -53.018  1.00  0.00    -0.313 OA
BRANCH  33  34
HETATM   34  C   UNL     1     -41.799  59.608 -51.933  1.00  0.00     0.124 C 
HETATM   35  C   UNL     1     -40.333  59.210 -51.937  1.00  0.00     0.040 C 
HETATM   36  C   UNL     1     -42.181  60.314 -50.637  1.00  0.00     0.040 C 
ENDBRANCH  33  34
ENDBRANCH  31  33
ENDBRANCH  10  31
TORSDOF 9
ENDMDL
MODEL 5
REMARK VINA RESULT:      -6.7      4.921      8.258
REMARK  9 active torsions:
REMARK  status: ('A' for Active; 'I' for Inactive)
REMARK    1  A    between atoms: C_6  and  C_7 
REMARK    2  A    between atoms: C_7  and  C_8 
REMARK       I    between atoms: C_8  and  N_9 
REMARK    3  A    between atoms: N_9  and  C_10 
REMARK    4  A    between atoms: C_10  and  C_11 
REMARK    5  A    between atoms: C_11  and  N_12 
REMARK    6  A    between atoms: C_19  and  C_20 
REMARK    7  A    between atoms: C_29  and  C_30 
REMARK    8  A    between atoms: C_30  and  O_31 
REMARK    9  A    between atoms: O_31  and  C_32 
ROOT
HETATM    1  C   UNL     1     -44.118  61.859 -49.372  1.00  0.00     0.071 C 
HETATM    2  C   UNL     1     -43.515  61.113 -50.540  1.00  0.00     0.048 C 
HETATM    3  N   UNL     1     -42.118  60.980 -50.458  1.00  0.00    -0.229 NA
HETATM    4  C   UNL     1     -41.633  59.874 -50.928  1.00  0.00     0.170 C 
HETATM    5  N   UNL     1     -42.502  58.894 -51.786  1.00  0.00    -0.318 N 
HETATM    6  C   UNL     1     -42.396  57.726 -51.235  1.00  0.00     0.011 C 
HETATM    7  C   UNL     1     -43.446  59.738 -52.543  1.00  0.00     0.168 C 
HETATM    8  S   UNL     1     -40.189  59.098 -50.398  1.00  0.00    -0.086 SA
HETATM    9  C   UNL     1     -41.067  57.483 -50.529  1.00  0.00     0.135 C 
HETATM   10  C   UNL     1     -44.241  60.429 -51.466  1.00  0.00     0.069 C 
ENDROOT
BRANCH   6  11
HETATM   11  C   UNL     1     -43.599  56.838 -51.120  1.00  0.00     0.156 C 
BRANCH  11  12
HETATM   12  C   UNL     1     -43.338  55.381 -51.406  1.00  0.00     0.223 C 
HETATM   13  N   UNL     1     -42.483  55.124 -52.456  1.00  0.00    -0.359 N 
HETATM   14  H   UNL     1     -42.039  55.889 -52.960  1.00  0.00     0.162 HD
HETATM   15  O   UNL     1     -43.888  54.492 -50.768  1.00  0.00    -0.273 OA
BRANCH  13  16
HETATM   16  C   UNL     1     -42.100  53.761 -52.811  1.00  0.00     0.150 C 
BRANCH  16  17
HETATM   17  C   UNL     1     -40.856  53.292 -52.034  1.00  0.00     0.254 C 
BRANCH  17  18
HETATM   18  N   UNL     1     -39.879  52.539 -52.907  1.00  0.00    -0.070 N 
HETATM   19  H   UNL     1     -39.000  53.071 -52.970  1.00  0.00     0.279 HD
HETATM   20  C   UNL     1     -40.373  52.297 -54.329  1.00  0.00     0.235 C 
HETATM   21  C   UNL     1     -40.670  50.814 -54.376  1.00  0.00     0.029 C 
HETATM   22  C   UNL     1     -39.577  50.223 -53.512  1.00  0.00     0.029 C 
HETATM   23  C   UNL     1     -39.522  51.169 -52.330  1.00  0.00     0.235 C 
ENDBRANCH  17  18
ENDBRANCH  16  17
ENDBRANCH  13  16
ENDBRANCH  11  12
ENDBRANCH   6  11
BRANCH   7  24
HETATM   24  C   UNL     1     -44.054  59.327 -53.879  1.00  0.00    -0.009 A 
HETATM   25  C   UNL     1     -44.243  60.131 -55.020  1.00  0.00     0.042 A 
HETATM   26 CL   UNL     1     -43.817  61.801 -55.099  1.00  0.00    -0.084 Cl
HETATM   27  C   UNL     1     -44.900  59.636 -56.160  1.00  0.00     0.024 A 
HETATM   28  C   UNL     1     -45.450  58.359 -56.172  1.00  0.00     0.002 A 
HETATM   29  C   UNL     1     -45.371  57.576 -55.032  1.00  0.00     0.001 A 
HETATM   30  C   UNL     1     -44.701  58.059 -53.907  1.00  0.00     0.011 A 
ENDBRANCH   7  24
BRANCH  10  31
HETATM   31  C   UNL     1     -45.560  59.882 -51.060  1.00  0.00     0.294 C 
HETATM   32  O   UNL     1     -45.643  58.939 -50.284  1.00  0.00    -0.259 OA
BRANCH  31  33
HETATM   33  O   UNL     1     -46.547  60.344 -51.844  1.00  0.00    -0.313 OA
BRANCH  33  34
HETATM   34  C   UNL     1     -46.506  61.739 -52.223  1.00  0.00     0.124 C 
HETATM   35  C   UNL     1     -47.148  61.899 -53.590  1.00  0.00     0.040 C 
HETATM   36  C   UNL     1     -47.260  62.526 -51.158  1.00  0.00     0.040 C 
ENDBRANCH  33  34
ENDBRANCH  31  33
ENDBRANCH  10  31
TORSDOF 9
ENDMDL
MODEL 6
REMARK VINA RESULT:      -6.6      1.901      2.474
REMARK  9 active torsions:
REMARK  status: ('A' for Active; 'I' for Inactive)
REMARK    1  A    between atoms: C_6  and  C_7 
REMARK    2  A    between atoms: C_7  and  C_8 
REMARK       I    between atoms: C_8  and  N_9 
REMARK    3  A    between atoms: N_9  and  C_10 
REMARK    4  A    between atoms: C_10  and  C_11 
REMARK    5  A    between atoms: C_11  and  N_12 
REMARK    6  A    between atoms: C_19  and  C_20 
REMARK    7  A    between atoms: C_29  and  C_30 
REMARK    8  A    between atoms: C_30  and  O_31 
REMARK    9  A    between atoms: O_31  and  C_32 
ROOT
HETATM    1  C   UNL     1     -43.868  60.310 -52.586  1.00  0.00     0.071 C 
HETATM    2  C   UNL     1     -43.965  58.989 -53.314  1.00  0.00     0.048 C 
HETATM    3  N   UNL     1     -45.177  58.820 -54.006  1.00  0.00    -0.229 NA
HETATM    4  C   UNL     1     -45.097  58.168 -55.123  1.00  0.00     0.170 C 
HETATM    5  N   UNL     1     -43.807  57.376 -55.522  1.00  0.00    -0.318 N 
HETATM    6  C   UNL     1     -43.475  57.783 -56.707  1.00  0.00     0.011 C 
HETATM    7  C   UNL     1     -43.225  56.878 -54.261  1.00  0.00     0.168 C 
HETATM    8  S   UNL     1     -46.132  58.366 -56.486  1.00  0.00    -0.086 SA
HETATM    9  C   UNL     1     -44.649  58.227 -57.571  1.00  0.00     0.135 C 
HETATM   10  C   UNL     1     -42.920  58.136 -53.493  1.00  0.00     0.069 C 
ENDROOT
BRANCH   6  11
HETATM   11  C   UNL     1     -42.032  58.011 -57.045  1.00  0.00     0.156 C 
BRANCH  11  12
HETATM   12  C   UNL     1     -41.780  59.142 -58.010  1.00  0.00     0.223 C 
HETATM   13  N   UNL     1     -42.125  58.893 -59.321  1.00  0.00    -0.359 N 
HETATM   14  H   UNL     1     -42.558  58.010 -59.583  1.00  0.00     0.162 HD
HETATM   15  O   UNL     1     -41.265  60.193 -57.649  1.00  0.00    -0.273 OA
BRANCH  13  16
HETATM   16  C   UNL     1     -41.987  59.916 -60.353  1.00  0.00     0.150 C 
BRANCH  16  17
HETATM   17  C   UNL     1     -43.241  60.013 -61.241  1.00  0.00     0.254 C 
BRANCH  17  18
HETATM   18  N   UNL     1     -44.145  61.156 -60.841  1.00  0.00    -0.070 N 
HETATM   19  H   UNL     1     -44.349  61.732 -61.670  1.00  0.00     0.279 HD
HETATM   20  C   UNL     1     -43.554  62.074 -59.777  1.00  0.00     0.235 C 
HETATM   21  C   UNL     1     -44.354  61.765 -58.529  1.00  0.00     0.029 C 
HETATM   22  C   UNL     1     -45.745  61.519 -59.072  1.00  0.00     0.029 C 
HETATM   23  C   UNL     1     -45.490  60.671 -60.301  1.00  0.00     0.235 C 
ENDBRANCH  17  18
ENDBRANCH  16  17
ENDBRANCH  13  16
ENDBRANCH  11  12
ENDBRANCH   6  11
BRANCH   7  24
HETATM   24  C   UNL     1     -42.354  55.629 -54.175  1.00  0.00    -0.009 A 
HETATM   25  C   UNL     1     -42.410  54.607 -53.207  1.00  0.00     0.042 A 
HETATM   26 CL   UNL     1     -43.515  54.601 -51.881  1.00  0.00    -0.084 Cl
HETATM   27  C   UNL     1     -41.482  53.553 -53.205  1.00  0.00     0.024 A 
HETATM   28  C   UNL     1     -40.429  53.523 -54.114  1.00  0.00     0.002 A 
HETATM   29  C   UNL     1     -40.283  54.563 -55.016  1.00  0.00     0.001 A 
HETATM   30  C   UNL     1     -41.218  55.600 -55.033  1.00  0.00     0.011 A 
ENDBRANCH   7  24
BRANCH  10  31
HETATM   31  C   UNL     1     -41.549  58.703 -53.523  1.00  0.00     0.294 C 
HETATM   32  O   UNL     1     -41.177  59.412 -54.449  1.00  0.00    -0.259 OA
BRANCH  31  33
HETATM   33  O   UNL     1     -40.754  58.119 -52.612  1.00  0.00    -0.313 OA
BRANCH  33  34
HETATM   34  C   UNL     1     -41.163  58.180 -51.227  1.00  0.00     0.124 C 
HETATM   35  C   UNL     1     -40.884  56.839 -50.569  1.00  0.00     0.040 C 
HETATM   36  C   UNL     1     -40.369  59.301 -50.564  1.00  0.00     0.040 C 
ENDBRANCH  33  34
ENDBRANCH  31  33
ENDBRANCH  10  31
TORSDOF 9
ENDMDL
MODEL 7
REMARK VINA RESULT:      -6.5      3.780      8.225
REMARK  9 active torsions:
REMARK  status: ('A' for Active; 'I' for Inactive)
REMARK    1  A    between atoms: C_6  and  C_7 
REMARK    2  A    between atoms: C_7  and  C_8 
REMARK       I    between atoms: C_8  and  N_9 
REMARK    3  A    between atoms: N_9  and  C_10 
REMARK    4  A    between atoms: C_10  and  C_11 
REMARK    5  A    between atoms: C_11  and  N_12 
REMARK    6  A    between atoms: C_19  and  C_20 
REMARK    7  A    between atoms: C_29  and  C_30 
REMARK    8  A    between atoms: C_30  and  O_31 
REMARK    9  A    between atoms: O_31  and  C_32 
ROOT
HETATM    1  C   UNL     1     -48.801  60.550 -58.074  1.00  0.00     0.071 C 
HETATM    2  C   UNL     1     -47.310  60.587 -57.828  1.00  0.00     0.048 C 
HETATM    3  N   UNL     1     -46.928  61.522 -56.850  1.00  0.00    -0.229 NA
HETATM    4  C   UNL     1     -45.924  61.175 -56.106  1.00  0.00     0.170 C 
HETATM    5  N   UNL     1     -45.022  59.947 -56.465  1.00  0.00    -0.318 N 
HETATM    6  C   UNL     1     -44.982  59.197 -55.409  1.00  0.00     0.011 C 
HETATM    7  C   UNL     1     -44.989  59.878 -57.938  1.00  0.00     0.168 C 
HETATM    8  S   UNL     1     -45.649  61.676 -54.482  1.00  0.00    -0.086 SA
HETATM    9  C   UNL     1     -45.113  59.956 -54.093  1.00  0.00     0.135 C 
HETATM   10  C   UNL     1     -46.432  59.668 -58.314  1.00  0.00     0.069 C 
ENDROOT
BRANCH   6  11
HETATM   11  C   UNL     1     -45.054  57.705 -55.544  1.00  0.00     0.156 C 
BRANCH  11  12
HETATM   12  C   UNL     1     -43.991  56.950 -54.786  1.00  0.00     0.223 C 
HETATM   13  N   UNL     1     -44.413  55.796 -54.161  1.00  0.00    -0.359 N 
HETATM   14  H   UNL     1     -45.374  55.477 -54.257  1.00  0.00     0.162 HD
HETATM   15  O   UNL     1     -42.842  57.365 -54.705  1.00  0.00    -0.273 OA
BRANCH  13  16
HETATM   16  C   UNL     1     -43.480  54.937 -53.437  1.00  0.00     0.150 C 
BRANCH  16  17
HETATM   17  C   UNL     1     -42.539  54.178 -54.390  1.00  0.00     0.254 C 
BRANCH  17  18
HETATM   18  N   UNL     1     -41.141  54.037 -53.831  1.00  0.00    -0.070 N 
HETATM   19  H   UNL     1     -40.727  54.973 -53.714  1.00  0.00     0.279 HD
HETATM   20  C   UNL     1     -40.198  53.224 -54.711  1.00  0.00     0.235 C 
HETATM   21  C   UNL     1     -40.008  51.925 -53.957  1.00  0.00     0.029 C 
HETATM   22  C   UNL     1     -39.998  52.373 -52.511  1.00  0.00     0.029 C 
HETATM   23  C   UNL     1     -41.131  53.377 -52.453  1.00  0.00     0.235 C 
ENDBRANCH  17  18
ENDBRANCH  16  17
ENDBRANCH  13  16
ENDBRANCH  11  12
ENDBRANCH   6  11
BRANCH   7  24
HETATM   24  C   UNL     1     -43.836  59.261 -58.723  1.00  0.00    -0.009 A 
HETATM   25  C   UNL     1     -43.241  59.751 -59.903  1.00  0.00     0.042 A 
HETATM   26 CL   UNL     1     -43.750  61.190 -60.708  1.00  0.00    -0.084 Cl
HETATM   27  C   UNL     1     -42.237  59.027 -60.567  1.00  0.00     0.024 A 
HETATM   28  C   UNL     1     -41.849  57.767 -60.125  1.00  0.00     0.002 A 
HETATM   29  C   UNL     1     -42.483  57.211 -59.027  1.00  0.00     0.001 A 
HETATM   30  C   UNL     1     -43.466  57.938 -58.353  1.00  0.00     0.011 A 
ENDBRANCH   7  24
BRANCH  10  31
HETATM   31  C   UNL     1     -46.930  58.296 -58.585  1.00  0.00     0.294 C 
HETATM   32  O   UNL     1     -47.318  57.573 -57.677  1.00  0.00    -0.259 OA
BRANCH  31  33
HETATM   33  O   UNL     1     -46.628  57.900 -59.832  1.00  0.00    -0.313 OA
BRANCH  33  34
HETATM   34  C   UNL     1     -47.009  56.561 -60.221  1.00  0.00     0.124 C 
HETATM   35  C   UNL     1     -47.829  56.631 -61.497  1.00  0.00     0.040 C 
HETATM   36  C   UNL     1     -45.727  55.762 -60.426  1.00  0.00     0.040 C 
ENDBRANCH  33  34
ENDBRANCH  31  33
ENDBRANCH  10  31
TORSDOF 9
ENDMDL
MODEL 8
REMARK VINA RESULT:      -6.5      3.719      8.132
REMARK  9 active torsions:
REMARK  status: ('A' for Active; 'I' for Inactive)
REMARK    1  A    between atoms: C_6  and  C_7 
REMARK    2  A    between atoms: C_7  and  C_8 
REMARK       I    between atoms: C_8  and  N_9 
REMARK    3  A    between atoms: N_9  and  C_10 
REMARK    4  A    between atoms: C_10  and  C_11 
REMARK    5  A    between atoms: C_11  and  N_12 
REMARK    6  A    between atoms: C_19  and  C_20 
REMARK    7  A    between atoms: C_29  and  C_30 
REMARK    8  A    between atoms: C_30  and  O_31 
REMARK    9  A    between atoms: O_31  and  C_32 
ROOT
HETATM    1  C   UNL     1     -44.527  61.344 -53.991  1.00  0.00     0.071 C 
HETATM    2  C   UNL     1     -43.426  60.568 -54.676  1.00  0.00     0.048 C 
HETATM    3  N   UNL     1     -42.213  60.572 -53.965  1.00  0.00    -0.229 NA
HETATM    4  C   UNL     1     -41.515  59.483 -54.041  1.00  0.00     0.170 C 
HETATM    5  N   UNL     1     -41.853  58.363 -55.082  1.00  0.00    -0.318 N 
HETATM    6  C   UNL     1     -41.953  57.256 -54.415  1.00  0.00     0.011 C 
HETATM    7  C   UNL     1     -42.390  59.054 -56.269  1.00  0.00     0.168 C 
HETATM    8  S   UNL     1     -40.434  58.888 -52.840  1.00  0.00    -0.086 SA
HETATM    9  C   UNL     1     -41.079  57.193 -53.167  1.00  0.00     0.135 C 
HETATM   10  C   UNL     1     -43.619  59.749 -55.745  1.00  0.00     0.069 C 
ENDROOT
BRANCH   6  11
HETATM   11  C   UNL     1     -43.034  56.272 -54.751  1.00  0.00     0.156 C 
BRANCH  11  12
HETATM   12  C   UNL     1     -43.084  55.058 -53.857  1.00  0.00     0.223 C 
HETATM   13  N   UNL     1     -43.706  55.241 -52.641  1.00  0.00    -0.359 N 
HETATM   14  H   UNL     1     -44.131  56.135 -52.406  1.00  0.00     0.162 HD
HETATM   15  O   UNL     1     -42.566  53.998 -54.184  1.00  0.00    -0.273 OA
BRANCH  13  16
HETATM   16  C   UNL     1     -43.874  54.138 -51.698  1.00  0.00     0.150 C 
BRANCH  16  17
HETATM   17  C   UNL     1     -43.276  54.465 -50.318  1.00  0.00     0.254 C 
BRANCH  17  18
HETATM   18  N   UNL     1     -41.781  54.682 -50.372  1.00  0.00    -0.070 N 
HETATM   19  H   UNL     1     -41.580  55.522 -50.933  1.00  0.00     0.279 HD
HETATM   20  C   UNL     1     -41.005  53.522 -50.987  1.00  0.00     0.235 C 
HETATM   21  C   UNL     1     -40.289  52.886 -49.815  1.00  0.00     0.029 C 
HETATM   22  C   UNL     1     -39.924  54.078 -48.956  1.00  0.00     0.029 C 
HETATM   23  C   UNL     1     -41.179  54.924 -48.988  1.00  0.00     0.235 C 
ENDBRANCH  17  18
ENDBRANCH  16  17
ENDBRANCH  13  16
ENDBRANCH  11  12
ENDBRANCH   6  11
BRANCH   7  24
HETATM   24  C   UNL     1     -42.306  58.485 -57.681  1.00  0.00    -0.009 A 
HETATM   25  C   UNL     1     -42.105  59.193 -58.883  1.00  0.00     0.042 A 
HETATM   26 CL   UNL     1     -41.931  60.908 -58.967  1.00  0.00    -0.084 Cl
HETATM   27  C   UNL     1     -42.135  58.541 -60.127  1.00  0.00     0.024 A 
HETATM   28  C   UNL     1     -42.438  57.187 -60.220  1.00  0.00     0.002 A 
HETATM   29  C   UNL     1     -42.739  56.480 -59.068  1.00  0.00     0.001 A 
HETATM   30  C   UNL     1     -42.689  57.122 -57.829  1.00  0.00     0.011 A 
ENDBRANCH   7  24
BRANCH  10  31
HETATM   31  C   UNL     1     -44.951  59.116 -55.913  1.00  0.00     0.294 C 
HETATM   32  O   UNL     1     -45.406  58.364 -55.061  1.00  0.00    -0.259 OA
BRANCH  31  33
HETATM   33  O   UNL     1     -45.403  59.244 -57.171  1.00  0.00    -0.313 OA
BRANCH  33  34
HETATM   34  C   UNL     1     -46.225  60.393 -57.475  1.00  0.00     0.124 C 
HETATM   35  C   UNL     1     -45.571  61.188 -58.592  1.00  0.00     0.040 C 
HETATM   36  C   UNL     1     -47.598  59.877 -57.890  1.00  0.00     0.040 C 
ENDBRANCH  33  34
ENDBRANCH  31  33
ENDBRANCH  10  31
TORSDOF 9
ENDMDL
MODEL 9
REMARK VINA RESULT:      -6.5      3.557      7.774
REMARK  9 active torsions:
REMARK  status: ('A' for Active; 'I' for Inactive)
REMARK    1  A    between atoms: C_6  and  C_7 
REMARK    2  A    between atoms: C_7  and  C_8 
REMARK       I    between atoms: C_8  and  N_9 
REMARK    3  A    between atoms: N_9  and  C_10 
REMARK    4  A    between atoms: C_10  and  C_11 
REMARK    5  A    between atoms: C_11  and  N_12 
REMARK    6  A    between atoms: C_19  and  C_20 
REMARK    7  A    between atoms: C_29  and  C_30 
REMARK    8  A    between atoms: C_30  and  O_31 
REMARK    9  A    between atoms: O_31  and  C_32 
ROOT
HETATM    1  C   UNL     1     -44.688  61.004 -57.721  1.00  0.00     0.071 C 
HETATM    2  C   UNL     1     -43.783  60.457 -56.641  1.00  0.00     0.048 C 
HETATM    3  N   UNL     1     -43.200  61.455 -55.841  1.00  0.00    -0.229 NA
HETATM    4  C   UNL     1     -43.033  61.146 -54.593  1.00  0.00     0.170 C 
HETATM    5  N   UNL     1     -43.195  59.675 -54.083  1.00  0.00    -0.318 N 
HETATM    6  C   UNL     1     -44.029  59.717 -53.092  1.00  0.00     0.011 C 
HETATM    7  C   UNL     1     -42.750  58.806 -55.188  1.00  0.00     0.168 C 
HETATM    8  S   UNL     1     -43.028  62.250 -53.271  1.00  0.00    -0.086 SA
HETATM    9  C   UNL     1     -44.005  61.023 -52.305  1.00  0.00     0.135 C 
HETATM   10  C   UNL     1     -43.703  59.141 -56.305  1.00  0.00     0.069 C 
ENDROOT
BRANCH   6  11
HETATM   11  C   UNL     1     -45.071  58.649 -52.942  1.00  0.00     0.156 C 
BRANCH  11  12
HETATM   12  C   UNL     1     -44.892  57.756 -51.739  1.00  0.00     0.223 C 
HETATM   13  N   UNL     1     -44.246  56.562 -51.976  1.00  0.00    -0.359 N 
HETATM   14  H   UNL     1     -43.888  56.342 -52.903  1.00  0.00     0.162 HD
HETATM   15  O   UNL     1     -45.331  58.065 -50.639  1.00  0.00    -0.273 OA
BRANCH  13  16
HETATM   16  C   UNL     1     -43.957  55.625 -50.894  1.00  0.00     0.150 C 
BRANCH  16  17
HETATM   17  C   UNL     1     -42.512  55.765 -50.381  1.00  0.00     0.254 C 
BRANCH  17  18
HETATM   18  N   UNL     1     -41.961  54.465 -49.842  1.00  0.00    -0.070 N 
HETATM   19  H   UNL     1     -42.722  53.934 -49.396  1.00  0.00     0.279 HD
HETATM   20  C   UNL     1     -40.854  54.639 -48.809  1.00  0.00     0.235 C 
HETATM   21  C   UNL     1     -39.596  54.206 -49.530  1.00  0.00     0.029 C 
HETATM   22  C   UNL     1     -40.079  53.060 -50.392  1.00  0.00     0.029 C 
HETATM   23  C   UNL     1     -41.391  53.574 -50.946  1.00  0.00     0.235 C 
ENDBRANCH  17  18
ENDBRANCH  16  17
ENDBRANCH  13  16
ENDBRANCH  11  12
ENDBRANCH   6  11
BRANCH   7  24
HETATM   24  C   UNL     1     -42.187  57.404 -54.979  1.00  0.00    -0.009 A 
HETATM   25  C   UNL     1     -41.323  56.969 -53.955  1.00  0.00     0.042 A 
HETATM   26 CL   UNL     1     -40.710  58.000 -52.714  1.00  0.00    -0.084 Cl
HETATM   27  C   UNL     1     -40.815  55.659 -53.937  1.00  0.00     0.024 A 
HETATM   28  C   UNL     1     -41.088  54.770 -54.971  1.00  0.00     0.002 A 
HETATM   29  C   UNL     1     -41.852  55.195 -56.045  1.00  0.00     0.001 A 
HETATM   30  C   UNL     1     -42.376  56.489 -56.053  1.00  0.00     0.011 A 
ENDBRANCH   7  24
BRANCH  10  31
HETATM   31  C   UNL     1     -44.892  58.283 -56.540  1.00  0.00     0.294 C 
HETATM   32  O   UNL     1     -45.802  58.224 -55.724  1.00  0.00    -0.259 OA
BRANCH  31  33
HETATM   33  O   UNL     1     -44.688  57.425 -57.553  1.00  0.00    -0.313 OA
BRANCH  33  34
HETATM   34  C   UNL     1     -45.150  57.816 -58.866  1.00  0.00     0.124 C 
HETATM   35  C   UNL     1     -44.261  57.171 -59.915  1.00  0.00     0.040 C 
HETATM   36  C   UNL     1     -46.595  57.351 -59.000  1.00  0.00     0.040 C 
ENDBRANCH  33  34
ENDBRANCH  31  33
ENDBRANCH  10  31
TORSDOF 9
ENDMDL
MODEL 10
REMARK VINA RESULT:      -6.4      4.715      8.120
REMARK  9 active torsions:
REMARK  status: ('A' for Active; 'I' for Inactive)
REMARK    1  A    between atoms: C_6  and  C_7 
REMARK    2  A    between atoms: C_7  and  C_8 
REMARK       I    between atoms: C_8  and  N_9 
REMARK    3  A    between atoms: N_9  and  C_10 
REMARK    4  A    between atoms: C_10  and  C_11 
REMARK    5  A    between atoms: C_11  and  N_12 
REMARK    6  A    between atoms: C_19  and  C_20 
REMARK    7  A    between atoms: C_29  and  C_30 
REMARK    8  A    between atoms: C_30  and  O_31 
REMARK    9  A    between atoms: O_31  and  C_32 
ROOT
HETATM    1  C   UNL     1     -39.580  59.136 -52.447  1.00  0.00     0.071 C 
HETATM    2  C   UNL     1     -40.942  59.134 -53.104  1.00  0.00     0.048 C 
HETATM    3  N   UNL     1     -41.009  58.320 -54.248  1.00  0.00    -0.229 NA
HETATM    4  C   UNL     1     -42.140  57.716 -54.440  1.00  0.00     0.170 C 
HETATM    5  N   UNL     1     -43.422  58.097 -53.626  1.00  0.00    -0.318 N 
HETATM    6  C   UNL     1     -43.879  56.995 -53.120  1.00  0.00     0.011 C 
HETATM    7  C   UNL     1     -43.323  59.543 -53.356  1.00  0.00     0.168 C 
HETATM    8  S   UNL     1     -42.358  56.210 -55.246  1.00  0.00    -0.086 SA
HETATM    9  C   UNL     1     -43.590  55.752 -53.954  1.00  0.00     0.135 C 
HETATM   10  C   UNL     1     -42.062  59.664 -52.542  1.00  0.00     0.069 C 
ENDROOT
BRANCH   6  11
HETATM   11  C   UNL     1     -44.411  56.977 -51.718  1.00  0.00     0.156 C 
BRANCH  11  12
HETATM   12  C   UNL     1     -43.723  56.004 -50.793  1.00  0.00     0.223 C 
HETATM   13  N   UNL     1     -42.411  56.298 -50.490  1.00  0.00    -0.359 N 
HETATM   14  H   UNL     1     -41.975  57.145 -50.848  1.00  0.00     0.162 HD
HETATM   15  O   UNL     1     -44.290  55.002 -50.378  1.00  0.00    -0.273 OA
BRANCH  13  16
HETATM   16  C   UNL     1     -41.639  55.473 -49.565  1.00  0.00     0.150 C 
BRANCH  16  17
HETATM   17  C   UNL     1     -40.496  54.727 -50.276  1.00  0.00     0.254 C 
BRANCH  17  18
HETATM   18  N   UNL     1     -40.988  53.538 -51.070  1.00  0.00    -0.070 N 
HETATM   19  H   UNL     1     -42.000  53.423 -50.917  1.00  0.00     0.279 HD
HETATM   20  C   UNL     1     -40.315  52.221 -50.699  1.00  0.00     0.235 C 
HETATM   21  C   UNL     1     -39.422  51.910 -51.881  1.00  0.00     0.029 C 
HETATM   22  C   UNL     1     -40.239  52.396 -53.058  1.00  0.00     0.029 C 
HETATM   23  C   UNL     1     -40.788  53.722 -52.574  1.00  0.00     0.235 C 
ENDBRANCH  17  18
ENDBRANCH  16  17
ENDBRANCH  13  16
ENDBRANCH  11  12
ENDBRANCH   6  11
BRANCH   7  24
HETATM   24  C   UNL     1     -44.536  60.440 -53.133  1.00  0.00    -0.009 A 
HETATM   25  C   UNL     1     -44.638  61.824 -53.376  1.00  0.00     0.042 A 
HETATM   26 CL   UNL     1     -43.341  62.790 -53.980  1.00  0.00    -0.084 Cl
HETATM   27  C   UNL     1     -45.799  62.540 -53.040  1.00  0.00     0.024 A 
HETATM   28  C   UNL     1     -46.859  61.920 -52.387  1.00  0.00     0.002 A 
HETATM   29  C   UNL     1     -46.754  60.583 -52.042  1.00  0.00     0.001 A 
HETATM   30  C   UNL     1     -45.609  59.866 -52.394  1.00  0.00     0.011 A 
ENDBRANCH   7  24
BRANCH  10  31
HETATM   31  C   UNL     1     -42.144  59.723 -51.062  1.00  0.00     0.294 C 
HETATM   32  O   UNL     1     -41.356  59.105 -50.359  1.00  0.00    -0.259 OA
BRANCH  31  33
HETATM   33  O   UNL     1     -43.303  60.266 -50.654  1.00  0.00    -0.313 OA
BRANCH  33  34
HETATM   34  C   UNL     1     -43.239  61.329 -49.677  1.00  0.00     0.124 C 
HETATM   35  C   UNL     1     -42.856  62.622 -50.378  1.00  0.00     0.040 C 
HETATM   36  C   UNL     1     -44.613  61.436 -49.025  1.00  0.00     0.040 C 
ENDBRANCH  33  34
ENDBRANCH  31  33
ENDBRANCH  10  31
TORSDOF 9
ENDMDL
