MODEL 1
REMARK VINA RESULT:      -7.3      0.000      0.000
REMARK  4 active torsions:
REMARK  status: ('A' for Active; 'I' for Inactive)
REMARK    1  A    between atoms: C_7  and  N_8 
REMARK    2  A    between atoms: N_8  and  C_9 
REMARK    3  A    between atoms: C_9  and  C_10 
REMARK    4  A    between atoms: C_11  and  O_12 
ROOT
HETATM    1  N   UNL     1     -42.165  55.556 -54.940  1.00  0.00    -0.222 N 
HETATM    2  H   UNL     1     -41.410  56.067 -54.506  1.00  0.00     0.178 HD
ENDROOT
BRANCH   1   3
HETATM    3  C   UNL     1     -42.498  55.885 -56.195  1.00  0.00     0.679 A 
HETATM    4  N   UNL     1     -43.212  55.117 -57.000  1.00  0.00    -0.190 N 
HETATM    5  C   UNL     1     -43.379  55.734 -58.223  1.00  0.00     0.076 A 
HETATM    6  H   UNL     1     -43.591  54.209 -56.768  1.00  0.00     0.184 HD
HETATM    7  C   UNL     1     -42.699  56.950 -58.129  1.00  0.00     0.076 A 
HETATM    8  C   UNL     1     -44.047  55.336 -59.373  1.00  0.00     0.032 A 
HETATM    9  C   UNL     1     -42.631  57.853 -59.182  1.00  0.00     0.032 A 
HETATM   10  N   UNL     1     -42.177  56.985 -56.853  1.00  0.00    -0.190 N 
HETATM   11  C   UNL     1     -43.301  57.467 -60.353  1.00  0.00     0.002 A 
HETATM   12  C   UNL     1     -43.994  56.239 -60.447  1.00  0.00     0.002 A 
HETATM   13  H   UNL     1     -41.602  57.733 -56.486  1.00  0.00     0.184 HD
ENDBRANCH   1   3
BRANCH   1  14
HETATM   14  C   UNL     1     -42.693  54.366 -54.279  1.00  0.00     0.179 C 
BRANCH  14  15
HETATM   15  C   UNL     1     -41.615  53.521 -53.652  1.00  0.00    -0.006 A 
HETATM   16  C   UNL     1     -41.079  53.914 -52.417  1.00  0.00     0.073 A 
HETATM   17  C   UNL     1     -40.106  53.159 -51.765  1.00  0.00     0.038 A 
HETATM   18  C   UNL     1     -39.648  51.977 -52.349  1.00  0.00     0.022 A 
HETATM   19  C   UNL     1     -40.177  51.564 -53.568  1.00  0.00     0.011 A 
HETATM   20 BR   UNL     1     -39.561  49.963 -54.363  1.00  0.00    -0.051 Br
HETATM   21  C   UNL     1     -41.159  52.319 -54.215  1.00  0.00     0.030 A 
BRANCH  16  22
HETATM   22  O   UNL     1     -41.541  55.070 -51.854  1.00  0.00    -0.360 OA
HETATM   23  H   UNL     1     -42.516  55.077 -51.893  1.00  0.00     0.217 HD
ENDBRANCH  16  22
ENDBRANCH  14  15
ENDBRANCH   1  14
TORSDOF 4
ENDMDL
MODEL 2
REMARK VINA RESULT:      -7.1      5.219      7.231
REMARK  4 active torsions:
REMARK  status: ('A' for Active; 'I' for Inactive)
REMARK    1  A    between atoms: C_7  and  N_8 
REMARK    2  A    between atoms: N_8  and  C_9 
REMARK    3  A    between atoms: C_9  and  C_10 
REMARK    4  A    between atoms: C_11  and  O_12 
ROOT
HETATM    1  N   UNL     1     -40.658  54.673 -50.534  1.00  0.00    -0.222 N 
HETATM    2  H   UNL     1     -39.858  55.129 -50.120  1.00  0.00     0.178 HD
ENDROOT
BRANCH   1   3
HETATM    3  C   UNL     1     -40.435  53.576 -51.270  1.00  0.00     0.679 A 
HETATM    4  N   UNL     1     -40.068  52.408 -50.771  1.00  0.00    -0.190 N 
HETATM    5  C   UNL     1     -39.915  51.484 -51.785  1.00  0.00     0.076 A 
HETATM    6  H   UNL     1     -39.921  52.204 -49.792  1.00  0.00     0.184 HD
HETATM    7  C   UNL     1     -40.202  52.169 -52.967  1.00  0.00     0.076 A 
HETATM    8  C   UNL     1     -39.555  50.143 -51.764  1.00  0.00     0.032 A 
HETATM    9  C   UNL     1     -40.141  51.564 -54.216  1.00  0.00     0.032 A 
HETATM   10  N   UNL     1     -40.516  53.455 -52.584  1.00  0.00    -0.190 N 
HETATM   11  C   UNL     1     -39.778  50.208 -54.214  1.00  0.00     0.002 A 
HETATM   12  C   UNL     1     -39.493  49.513 -53.017  1.00  0.00     0.002 A 
HETATM   13  H   UNL     1     -40.744  54.208 -53.221  1.00  0.00     0.184 HD
ENDBRANCH   1   3
BRANCH   1  14
HETATM   14  C   UNL     1     -42.001  55.088 -50.139  1.00  0.00     0.179 C 
BRANCH  14  15
HETATM   15  C   UNL     1     -42.553  56.182 -51.013  1.00  0.00    -0.006 A 
HETATM   16  C   UNL     1     -43.941  56.379 -51.057  1.00  0.00     0.073 A 
HETATM   17  C   UNL     1     -44.516  57.397 -51.816  1.00  0.00     0.038 A 
HETATM   18  C   UNL     1     -43.695  58.249 -52.554  1.00  0.00     0.022 A 
HETATM   19  C   UNL     1     -42.315  58.079 -52.515  1.00  0.00     0.011 A 
HETATM   20 BR   UNL     1     -41.198  59.233 -53.512  1.00  0.00    -0.051 Br
HETATM   21  C   UNL     1     -41.741  57.062 -51.746  1.00  0.00     0.030 A 
BRANCH  16  22
HETATM   22  O   UNL     1     -44.733  55.540 -50.324  1.00  0.00    -0.360 OA
HETATM   23  H   UNL     1     -44.329  54.652 -50.310  1.00  0.00     0.217 HD
ENDBRANCH  16  22
ENDBRANCH  14  15
ENDBRANCH   1  14
TORSDOF 4
ENDMDL
MODEL 3
REMARK VINA RESULT:      -6.9      5.173      7.530
REMARK  4 active torsions:
REMARK  status: ('A' for Active; 'I' for Inactive)
REMARK    1  A    between atoms: C_7  and  N_8 
REMARK    2  A    between atoms: N_8  and  C_9 
REMARK    3  A    between atoms: C_9  and  C_10 
REMARK    4  A    between atoms: C_11  and  O_12 
ROOT
HETATM    1  N   UNL     1     -40.800  54.835 -51.154  1.00  0.00    -0.222 N 
HETATM    2  H   UNL     1     -40.221  55.174 -50.400  1.00  0.00     0.178 HD
ENDROOT
BRANCH   1   3
HETATM    3  C   UNL     1     -40.508  53.634 -51.672  1.00  0.00     0.679 A 
HETATM    4  N   UNL     1     -40.137  52.586 -50.956  1.00  0.00    -0.190 N 
HETATM    5  C   UNL     1     -39.903  51.505 -51.781  1.00  0.00     0.076 A 
HETATM    6  H   UNL     1     -40.038  52.563 -49.950  1.00  0.00     0.184 HD
HETATM    7  C   UNL     1     -40.143  51.960 -53.078  1.00  0.00     0.076 A 
HETATM    8  C   UNL     1     -39.508  50.203 -51.504  1.00  0.00     0.032 A 
HETATM    9  C   UNL     1     -39.997  51.148 -54.195  1.00  0.00     0.032 A 
HETATM   10  N   UNL     1     -40.513  53.281 -52.945  1.00  0.00    -0.190 N 
HETATM   11  C   UNL     1     -39.597  49.828 -53.935  1.00  0.00     0.002 A 
HETATM   12  C   UNL     1     -39.360  49.365 -52.620  1.00  0.00     0.002 A 
HETATM   13  H   UNL     1     -40.726  53.901 -53.717  1.00  0.00     0.184 HD
ENDBRANCH   1   3
BRANCH   1  14
HETATM   14  C   UNL     1     -42.031  55.547 -51.484  1.00  0.00     0.179 C 
BRANCH  14  15
HETATM   15  C   UNL     1     -41.784  56.973 -51.901  1.00  0.00    -0.006 A 
HETATM   16  C   UNL     1     -41.169  57.221 -53.137  1.00  0.00     0.073 A 
HETATM   17  C   UNL     1     -40.945  58.516 -53.599  1.00  0.00     0.038 A 
HETATM   18  C   UNL     1     -41.341  59.602 -52.819  1.00  0.00     0.022 A 
HETATM   19  C   UNL     1     -41.964  59.378 -51.595  1.00  0.00     0.011 A 
HETATM   20 BR   UNL     1     -42.505  60.847 -50.535  1.00  0.00    -0.051 Br
HETATM   21  C   UNL     1     -42.196  58.078 -51.138  1.00  0.00     0.030 A 
BRANCH  16  22
HETATM   22  O   UNL     1     -40.791  56.148 -53.893  1.00  0.00    -0.360 OA
HETATM   23  H   UNL     1     -40.145  55.616 -53.392  1.00  0.00     0.217 HD
ENDBRANCH  16  22
ENDBRANCH  14  15
ENDBRANCH   1  14
TORSDOF 4
ENDMDL
MODEL 4
REMARK VINA RESULT:      -6.9      3.166      7.143
REMARK  4 active torsions:
REMARK  status: ('A' for Active; 'I' for Inactive)
REMARK    1  A    between atoms: C_7  and  N_8 
REMARK    2  A    between atoms: N_8  and  C_9 
REMARK    3  A    between atoms: C_9  and  C_10 
REMARK    4  A    between atoms: C_11  and  O_12 
ROOT
HETATM    1  N   UNL     1     -41.320  55.623 -53.646  1.00  0.00    -0.222 N 
HETATM    2  H   UNL     1     -40.721  56.348 -53.280  1.00  0.00     0.178 HD
ENDROOT
BRANCH   1   3
HETATM    3  C   UNL     1     -40.933  54.351 -53.476  1.00  0.00     0.679 A 
HETATM    4  N   UNL     1     -40.499  53.854 -52.330  1.00  0.00    -0.190 N 
HETATM    5  C   UNL     1     -40.175  52.521 -52.483  1.00  0.00     0.076 A 
HETATM    6  H   UNL     1     -40.415  54.361 -51.460  1.00  0.00     0.184 HD
HETATM    7  C   UNL     1     -40.427  52.221 -53.823  1.00  0.00     0.076 A 
HETATM    8  C   UNL     1     -39.692  51.581 -51.582  1.00  0.00     0.032 A 
HETATM    9  C   UNL     1     -40.205  50.961 -54.362  1.00  0.00     0.032 A 
HETATM   10  N   UNL     1     -40.893  53.391 -54.383  1.00  0.00    -0.190 N 
HETATM   11  C   UNL     1     -39.716  49.997 -53.466  1.00  0.00     0.002 A 
HETATM   12  C   UNL     1     -39.467  50.299 -52.108  1.00  0.00     0.002 A 
HETATM   13  H   UNL     1     -41.138  53.506 -55.359  1.00  0.00     0.184 HD
ENDBRANCH   1   3
BRANCH   1  14
HETATM   14  C   UNL     1     -42.651  55.975 -54.133  1.00  0.00     0.179 C 
BRANCH  14  15
HETATM   15  C   UNL     1     -42.656  56.362 -55.588  1.00  0.00    -0.006 A 
HETATM   16  C   UNL     1     -43.063  55.415 -56.540  1.00  0.00     0.073 A 
HETATM   17  C   UNL     1     -43.126  55.720 -57.898  1.00  0.00     0.038 A 
HETATM   18  C   UNL     1     -42.777  56.998 -58.333  1.00  0.00     0.022 A 
HETATM   19  C   UNL     1     -42.381  57.956 -57.403  1.00  0.00     0.011 A 
HETATM   20 BR   UNL     1     -41.909  59.690 -57.986  1.00  0.00    -0.051 Br
HETATM   21  C   UNL     1     -42.328  57.650 -56.040  1.00  0.00     0.030 A 
BRANCH  16  22
HETATM   22  O   UNL     1     -43.408  54.169 -56.100  1.00  0.00    -0.360 OA
HETATM   23  H   UNL     1     -43.693  54.227 -55.168  1.00  0.00     0.217 HD
ENDBRANCH  16  22
ENDBRANCH  14  15
ENDBRANCH   1  14
TORSDOF 4
ENDMDL
MODEL 5
REMARK VINA RESULT:      -6.9      1.661      1.929
REMARK  4 active torsions:
REMARK  status: ('A' for Active; 'I' for Inactive)
REMARK    1  A    between atoms: C_7  and  N_8 
REMARK    2  A    between atoms: N_8  and  C_9 
REMARK    3  A    between atoms: C_9  and  C_10 
REMARK    4  A    between atoms: C_11  and  O_12 
ROOT
HETATM    1  N   UNL     1     -42.623  55.722 -54.547  1.00  0.00    -0.222 N 
HETATM    2  H   UNL     1     -43.474  55.582 -54.022  1.00  0.00     0.178 HD
ENDROOT
BRANCH   1   3
HETATM    3  C   UNL     1     -42.738  56.086 -55.831  1.00  0.00     0.679 A 
HETATM    4  N   UNL     1     -43.219  55.306 -56.784  1.00  0.00    -0.190 N 
HETATM    5  C   UNL     1     -43.202  55.967 -57.995  1.00  0.00     0.076 A 
HETATM    6  H   UNL     1     -43.559  54.362 -56.660  1.00  0.00     0.184 HD
HETATM    7  C   UNL     1     -42.655  57.224 -57.731  1.00  0.00     0.076 A 
HETATM    8  C   UNL     1     -43.604  55.576 -59.265  1.00  0.00     0.032 A 
HETATM    9  C   UNL     1     -42.464  58.180 -58.721  1.00  0.00     0.032 A 
HETATM   10  N   UNL     1     -42.390  57.237 -56.379  1.00  0.00    -0.190 N 
HETATM   11  C   UNL     1     -42.865  57.802 -60.012  1.00  0.00     0.002 A 
HETATM   12  C   UNL     1     -43.423  56.531 -60.278  1.00  0.00     0.002 A 
HETATM   13  H   UNL     1     -41.960  58.007 -55.882  1.00  0.00     0.184 HD
ENDBRANCH   1   3
BRANCH   1  14
HETATM   14  C   UNL     1     -41.345  55.742 -53.842  1.00  0.00     0.179 C 
BRANCH  14  15
HETATM   15  C   UNL     1     -40.835  54.361 -53.522  1.00  0.00    -0.006 A 
HETATM   16  C   UNL     1     -40.298  53.580 -54.556  1.00  0.00     0.073 A 
HETATM   17  C   UNL     1     -39.776  52.309 -54.322  1.00  0.00     0.038 A 
HETATM   18  C   UNL     1     -39.783  51.792 -53.026  1.00  0.00     0.022 A 
HETATM   19  C   UNL     1     -40.301  52.556 -51.984  1.00  0.00     0.011 A 
HETATM   20 BR   UNL     1     -40.310  51.860 -50.227  1.00  0.00    -0.051 Br
HETATM   21  C   UNL     1     -40.815  53.834 -52.221  1.00  0.00     0.030 A 
BRANCH  16  22
HETATM   22  O   UNL     1     -40.292  54.102 -55.819  1.00  0.00    -0.360 OA
HETATM   23  H   UNL     1     -39.717  54.889 -55.836  1.00  0.00     0.217 HD
ENDBRANCH  16  22
ENDBRANCH  14  15
ENDBRANCH   1  14
TORSDOF 4
ENDMDL
MODEL 6
REMARK VINA RESULT:      -6.9     14.482     15.954
REMARK  4 active torsions:
REMARK  status: ('A' for Active; 'I' for Inactive)
REMARK    1  A    between atoms: C_7  and  N_8 
REMARK    2  A    between atoms: N_8  and  C_9 
REMARK    3  A    between atoms: C_9  and  C_10 
REMARK    4  A    between atoms: C_11  and  O_12 
ROOT
HETATM    1  N   UNL     1     -35.541  41.948 -51.940  1.00  0.00    -0.222 N 
HETATM    2  H   UNL     1     -36.351  42.045 -51.345  1.00  0.00     0.178 HD
ENDROOT
BRANCH   1   3
HETATM    3  C   UNL     1     -35.739  41.954 -53.265  1.00  0.00     0.679 A 
HETATM    4  N   UNL     1     -36.929  41.891 -53.839  1.00  0.00    -0.190 N 
HETATM    5  C   UNL     1     -36.796  41.911 -55.213  1.00  0.00     0.076 A 
HETATM    6  H   UNL     1     -37.815  41.839 -53.357  1.00  0.00     0.184 HD
HETATM    7  C   UNL     1     -35.424  41.978 -55.459  1.00  0.00     0.076 A 
HETATM    8  C   UNL     1     -37.740  41.873 -56.231  1.00  0.00     0.032 A 
HETATM    9  C   UNL     1     -34.894  42.003 -56.743  1.00  0.00     0.032 A 
HETATM   10  N   UNL     1     -34.824  42.002 -54.218  1.00  0.00    -0.190 N 
HETATM   11  C   UNL     1     -35.833  41.965 -57.785  1.00  0.00     0.002 A 
HETATM   12  C   UNL     1     -37.223  41.903 -57.536  1.00  0.00     0.002 A 
HETATM   13  H   UNL     1     -33.825  42.020 -54.060  1.00  0.00     0.184 HD
ENDBRANCH   1   3
BRANCH   1  14
HETATM   14  C   UNL     1     -34.208  42.030 -51.350  1.00  0.00     0.179 C 
BRANCH  14  15
HETATM   15  C   UNL     1     -33.591  40.676 -51.115  1.00  0.00    -0.006 A 
HETATM   16  C   UNL     1     -32.508  40.278 -51.912  1.00  0.00     0.073 A 
HETATM   17  C   UNL     1     -31.867  39.055 -51.723  1.00  0.00     0.038 A 
HETATM   18  C   UNL     1     -32.309  38.197 -50.715  1.00  0.00     0.022 A 
HETATM   19  C   UNL     1     -33.375  38.579 -49.907  1.00  0.00     0.011 A 
HETATM   20 BR   UNL     1     -33.976  37.421 -48.539  1.00  0.00    -0.051 Br
HETATM   21  C   UNL     1     -34.009  39.810 -50.093  1.00  0.00     0.030 A 
BRANCH  16  22
HETATM   22  O   UNL     1     -32.081  41.131 -52.891  1.00  0.00    -0.360 OA
HETATM   23  H   UNL     1     -31.430  40.671 -53.453  1.00  0.00     0.217 HD
ENDBRANCH  16  22
ENDBRANCH  14  15
ENDBRANCH   1  14
TORSDOF 4
ENDMDL
MODEL 7
REMARK VINA RESULT:      -6.9      4.786      7.116
REMARK  4 active torsions:
REMARK  status: ('A' for Active; 'I' for Inactive)
REMARK    1  A    between atoms: C_7  and  N_8 
REMARK    2  A    between atoms: N_8  and  C_9 
REMARK    3  A    between atoms: C_9  and  C_10 
REMARK    4  A    between atoms: C_11  and  O_12 
ROOT
HETATM    1  N   UNL     1     -40.702  54.862 -50.564  1.00  0.00    -0.222 N 
HETATM    2  H   UNL     1     -39.923  55.304 -50.098  1.00  0.00     0.178 HD
ENDROOT
BRANCH   1   3
HETATM    3  C   UNL     1     -40.457  53.743 -51.258  1.00  0.00     0.679 A 
HETATM    4  N   UNL     1     -40.583  53.639 -52.570  1.00  0.00    -0.190 N 
HETATM    5  C   UNL     1     -40.263  52.360 -52.979  1.00  0.00     0.076 A 
HETATM    6  H   UNL     1     -40.867  54.379 -53.196  1.00  0.00     0.184 HD
HETATM    7  C   UNL     1     -39.938  51.661 -51.815  1.00  0.00     0.076 A 
HETATM    8  C   UNL     1     -40.236  51.775 -54.238  1.00  0.00     0.032 A 
HETATM    9  C   UNL     1     -39.571  50.321 -51.825  1.00  0.00     0.032 A 
HETATM   10  N   UNL     1     -40.076  52.568 -50.786  1.00  0.00    -0.190 N 
HETATM   11  C   UNL     1     -39.539  49.712 -53.089  1.00  0.00     0.002 A 
HETATM   12  C   UNL     1     -39.862  50.422 -54.268  1.00  0.00     0.002 A 
HETATM   13  H   UNL     1     -39.937  52.355 -49.807  1.00  0.00     0.184 HD
ENDBRANCH   1   3
BRANCH   1  14
HETATM   14  C   UNL     1     -42.058  55.325 -50.284  1.00  0.00     0.179 C 
BRANCH  14  15
HETATM   15  C   UNL     1     -42.487  56.451 -51.188  1.00  0.00    -0.006 A 
HETATM   16  C   UNL     1     -41.992  57.741 -50.945  1.00  0.00     0.073 A 
HETATM   17  C   UNL     1     -42.319  58.820 -51.764  1.00  0.00     0.038 A 
HETATM   18  C   UNL     1     -43.161  58.621 -52.858  1.00  0.00     0.022 A 
HETATM   19  C   UNL     1     -43.654  57.346 -53.123  1.00  0.00     0.011 A 
HETATM   20 BR   UNL     1     -44.794  57.071 -54.605  1.00  0.00    -0.051 Br
HETATM   21  C   UNL     1     -43.316  56.265 -52.305  1.00  0.00     0.030 A 
BRANCH  16  22
HETATM   22  O   UNL     1     -41.163  57.920 -49.874  1.00  0.00    -0.360 OA
HETATM   23  H   UNL     1     -41.437  57.320 -49.154  1.00  0.00     0.217 HD
ENDBRANCH  16  22
ENDBRANCH  14  15
ENDBRANCH   1  14
TORSDOF 4
ENDMDL
MODEL 8
REMARK VINA RESULT:      -6.9      3.938      5.359
REMARK  4 active torsions:
REMARK  status: ('A' for Active; 'I' for Inactive)
REMARK    1  A    between atoms: C_7  and  N_8 
REMARK    2  A    between atoms: N_8  and  C_9 
REMARK    3  A    between atoms: C_9  and  C_10 
REMARK    4  A    between atoms: C_11  and  O_12 
ROOT
HETATM    1  N   UNL     1     -43.009  55.207 -51.272  1.00  0.00    -0.222 N 
HETATM    2  H   UNL     1     -43.509  54.419 -50.888  1.00  0.00     0.178 HD
ENDROOT
BRANCH   1   3
HETATM    3  C   UNL     1     -43.698  56.336 -51.486  1.00  0.00     0.679 A 
HETATM    4  N   UNL     1     -43.775  56.950 -52.654  1.00  0.00    -0.190 N 
HETATM    5  C   UNL     1     -44.552  58.085 -52.546  1.00  0.00     0.076 A 
HETATM    6  H   UNL     1     -43.337  56.643 -53.512  1.00  0.00     0.184 HD
HETATM    7  C   UNL     1     -44.948  58.145 -51.209  1.00  0.00     0.076 A 
HETATM    8  C   UNL     1     -44.927  59.038 -53.483  1.00  0.00     0.032 A 
HETATM    9  C   UNL     1     -45.741  59.170 -50.709  1.00  0.00     0.032 A 
HETATM   10  N   UNL     1     -44.390  57.038 -50.606  1.00  0.00    -0.190 N 
HETATM   11  C   UNL     1     -46.129  60.144 -51.642  1.00  0.00     0.002 A 
HETATM   12  C   UNL     1     -45.733  60.080 -52.997  1.00  0.00     0.002 A 
HETATM   13  H   UNL     1     -44.471  56.815 -49.622  1.00  0.00     0.184 HD
ENDBRANCH   1   3
BRANCH   1  14
HETATM   14  C   UNL     1     -41.553  55.153 -51.362  1.00  0.00     0.179 C 
BRANCH  14  15
HETATM   15  C   UNL     1     -41.072  54.532 -52.648  1.00  0.00    -0.006 A 
HETATM   16  C   UNL     1     -40.775  55.368 -53.734  1.00  0.00     0.073 A 
HETATM   17  C   UNL     1     -40.291  54.862 -54.939  1.00  0.00     0.038 A 
HETATM   18  C   UNL     1     -40.093  53.489 -55.078  1.00  0.00     0.022 A 
HETATM   19  C   UNL     1     -40.370  52.643 -54.007  1.00  0.00     0.011 A 
HETATM   20 BR   UNL     1     -40.101  50.781 -54.189  1.00  0.00    -0.051 Br
HETATM   21  C   UNL     1     -40.847  53.154 -52.797  1.00  0.00     0.030 A 
BRANCH  16  22
HETATM   22  O   UNL     1     -40.969  56.712 -53.583  1.00  0.00    -0.360 OA
HETATM   23  H   UNL     1     -40.222  57.087 -53.078  1.00  0.00     0.217 HD
ENDBRANCH  16  22
ENDBRANCH  14  15
ENDBRANCH   1  14
TORSDOF 4
ENDMDL
MODEL 9
REMARK VINA RESULT:      -6.8      3.263      7.124
REMARK  4 active torsions:
REMARK  status: ('A' for Active; 'I' for Inactive)
REMARK    1  A    between atoms: C_7  and  N_8 
REMARK    2  A    between atoms: N_8  and  C_9 
REMARK    3  A    between atoms: C_9  and  C_10 
REMARK    4  A    between atoms: C_11  and  O_12 
ROOT
HETATM    1  N   UNL     1     -41.867  57.201 -55.150  1.00  0.00    -0.222 N 
HETATM    2  H   UNL     1     -41.378  58.044 -54.887  1.00  0.00     0.178 HD
ENDROOT
BRANCH   1   3
HETATM    3  C   UNL     1     -41.441  56.045 -54.625  1.00  0.00     0.679 A 
HETATM    4  N   UNL     1     -41.352  55.805 -53.328  1.00  0.00    -0.190 N 
HETATM    5  C   UNL     1     -40.875  54.528 -53.112  1.00  0.00     0.076 A 
HETATM    6  H   UNL     1     -41.597  56.451 -52.590  1.00  0.00     0.184 HD
HETATM    7  C   UNL     1     -40.657  53.986 -54.379  1.00  0.00     0.076 A 
HETATM    8  C   UNL     1     -40.622  53.825 -51.941  1.00  0.00     0.032 A 
HETATM    9  C   UNL     1     -40.160  52.703 -54.569  1.00  0.00     0.032 A 
HETATM   10  N   UNL     1     -41.025  54.969 -55.272  1.00  0.00    -0.190 N 
HETATM   11  C   UNL     1     -39.896  51.977 -53.396  1.00  0.00     0.002 A 
HETATM   12  C   UNL     1     -40.123  52.524 -52.113  1.00  0.00     0.002 A 
HETATM   13  H   UNL     1     -40.955  54.891 -56.279  1.00  0.00     0.184 HD
ENDBRANCH   1   3
BRANCH   1  14
HETATM   14  C   UNL     1     -43.121  57.306 -55.891  1.00  0.00     0.179 C 
BRANCH  14  15
HETATM   15  C   UNL     1     -42.926  57.211 -57.382  1.00  0.00    -0.006 A 
HETATM   16  C   UNL     1     -43.101  55.970 -58.011  1.00  0.00     0.073 A 
HETATM   17  C   UNL     1     -42.972  55.820 -59.390  1.00  0.00     0.038 A 
HETATM   18  C   UNL     1     -42.662  56.930 -60.175  1.00  0.00     0.022 A 
HETATM   19  C   UNL     1     -42.495  58.174 -59.572  1.00  0.00     0.011 A 
HETATM   20 BR   UNL     1     -42.077  59.682 -60.632  1.00  0.00    -0.051 Br
HETATM   21  C   UNL     1     -42.634  58.322 -58.189  1.00  0.00     0.030 A 
BRANCH  16  22
HETATM   22  O   UNL     1     -43.411  54.892 -57.230  1.00  0.00    -0.360 OA
HETATM   23  H   UNL     1     -43.078  54.081 -57.660  1.00  0.00     0.217 HD
ENDBRANCH  16  22
ENDBRANCH  14  15
ENDBRANCH   1  14
TORSDOF 4
ENDMDL
MODEL 10
REMARK VINA RESULT:      -6.8     14.766     16.858
REMARK  4 active torsions:
REMARK  status: ('A' for Active; 'I' for Inactive)
REMARK    1  A    between atoms: C_7  and  N_8 
REMARK    2  A    between atoms: N_8  and  C_9 
REMARK    3  A    between atoms: C_9  and  C_10 
REMARK    4  A    between atoms: C_11  and  O_12 
ROOT
HETATM    1  N   UNL     1     -33.923  41.499 -55.602  1.00  0.00    -0.222 N 
HETATM    2  H   UNL     1     -33.250  41.244 -56.311  1.00  0.00     0.178 HD
ENDROOT
BRANCH   1   3
HETATM    3  C   UNL     1     -33.669  41.125 -54.341  1.00  0.00     0.679 A 
HETATM    4  N   UNL     1     -34.515  41.278 -53.336  1.00  0.00    -0.190 N 
HETATM    5  C   UNL     1     -33.958  40.799 -52.168  1.00  0.00     0.076 A 
HETATM    6  H   UNL     1     -35.439  41.683 -53.399  1.00  0.00     0.184 HD
HETATM    7  C   UNL     1     -32.685  40.343 -52.515  1.00  0.00     0.076 A 
HETATM    8  C   UNL     1     -34.450  40.733 -50.871  1.00  0.00     0.032 A 
HETATM    9  C   UNL     1     -31.807  39.794 -51.589  1.00  0.00     0.032 A 
HETATM   10  N   UNL     1     -32.566  40.570 -53.870  1.00  0.00    -0.190 N 
HETATM   11  C   UNL     1     -32.288  39.721 -50.272  1.00  0.00     0.002 A 
HETATM   12  C   UNL     1     -33.579  40.177 -49.921  1.00  0.00     0.002 A 
HETATM   13  H   UNL     1     -31.739  40.371 -54.418  1.00  0.00     0.184 HD
ENDBRANCH   1   3
BRANCH   1  14
HETATM   14  C   UNL     1     -34.996  42.429 -55.939  1.00  0.00     0.179 C 
BRANCH  14  15
HETATM   15  C   UNL     1     -36.174  41.750 -56.587  1.00  0.00    -0.006 A 
HETATM   16  C   UNL     1     -37.337  41.542 -55.831  1.00  0.00     0.073 A 
HETATM   17  C   UNL     1     -38.474  40.953 -56.379  1.00  0.00     0.038 A 
HETATM   18  C   UNL     1     -38.466  40.557 -57.717  1.00  0.00     0.022 A 
HETATM   19  C   UNL     1     -37.326  40.766 -58.488  1.00  0.00     0.011 A 
HETATM   20 BR   UNL     1     -37.310  40.233 -60.301  1.00  0.00    -0.051 Br
HETATM   21  C   UNL     1     -36.190  41.365 -57.937  1.00  0.00     0.030 A 
BRANCH  16  22
HETATM   22  O   UNL     1     -37.333  41.940 -54.523  1.00  0.00    -0.360 OA
HETATM   23  H   UNL     1     -37.251  42.911 -54.486  1.00  0.00     0.217 HD
ENDBRANCH  16  22
ENDBRANCH  14  15
ENDBRANCH   1  14
TORSDOF 4
ENDMDL
