MODEL 1
REMARK VINA RESULT:      -9.6      0.000      0.000
REMARK  7 active torsions:
REMARK  status: ('A' for Active; 'I' for Inactive)
REMARK    1  A    between atoms: C_2  and  O_3 
REMARK    2  A    between atoms: O_3  and  C_4 
REMARK    3  A    between atoms: C_7  and  N_8 
REMARK    4  A    between atoms: C_9  and  C_11 
REMARK    5  A    between atoms: C_9  and  O_10 
REMARK       I    between atoms: C_11  and  N_12 
REMARK    6  A    between atoms: N_12  and  C_13 
REMARK    7  A    between atoms: C_13  and  C_14 
ROOT
HETATM    1  N   UNL     1     -43.316  56.496 -53.420  1.00  0.00    -0.254 N 
HETATM    2  C   UNL     1     -43.050  55.654 -54.604  1.00  0.00     0.256 C 
HETATM    3  C   UNL     1     -43.404  56.335 -55.913  1.00  0.00     0.034 A 
HETATM    4  C   UNL     1     -44.336  57.367 -55.884  1.00  0.00     0.048 A 
HETATM    5  N   UNL     1     -44.849  57.775 -54.660  1.00  0.00    -0.308 N 
HETATM    6  C   UNL     1     -44.384  57.383 -53.439  1.00  0.00     0.330 C 
HETATM    7  O   UNL     1     -44.897  57.895 -52.444  1.00  0.00    -0.246 OA
HETATM    8  C   UNL     1     -42.915  55.919 -57.165  1.00  0.00     0.015 A 
HETATM    9  C   UNL     1     -43.328  56.553 -58.340  1.00  0.00     0.001 A 
HETATM   10  C   UNL     1     -44.255  57.590 -58.285  1.00  0.00     0.002 A 
HETATM   11  C   UNL     1     -44.769  57.993 -57.055  1.00  0.00     0.030 A 
HETATM   12  H   UNL     1     -45.560  58.493 -54.623  1.00  0.00     0.170 HD
ENDROOT
BRANCH   2  13
HETATM   13  C   UNL     1     -41.568  55.088 -54.679  1.00  0.00     0.279 C 
HETATM   14  N   UNL     1     -41.505  53.703 -54.724  1.00  0.00    -0.352 N 
HETATM   15  H   UNL     1     -42.363  53.222 -54.980  1.00  0.00     0.162 HD
HETATM   16  O   UNL     1     -40.556  55.786 -54.676  1.00  0.00    -0.268 OA
BRANCH  14  17
HETATM   17  C   UNL     1     -40.247  53.015 -54.860  1.00  0.00     0.161 C 
BRANCH  17  18
HETATM   18  C   UNL     1     -40.062  52.025 -53.742  1.00  0.00    -0.040 A 
HETATM   19  C   UNL     1     -40.096  52.443 -52.403  1.00  0.00     0.012 A 
HETATM   20  C   UNL     1     -39.899  51.523 -51.371  1.00  0.00     0.043 A 
HETATM   21  C   UNL     1     -39.662  50.188 -51.678  1.00  0.00     0.116 A 
HETATM   22  F   UNL     1     -39.474  49.307 -50.687  1.00  0.00    -0.206 F 
HETATM   23  C   UNL     1     -39.614  49.756 -52.998  1.00  0.00     0.043 A 
HETATM   24  C   UNL     1     -39.809  50.672 -54.032  1.00  0.00     0.012 A 
ENDBRANCH  17  18
ENDBRANCH  14  17
ENDBRANCH   2  13
BRANCH   2  25
HETATM   25  O   UNL     1     -43.949  54.531 -54.509  1.00  0.00    -0.359 OA
HETATM   26  H   UNL     1     -44.040  54.226 -55.427  1.00  0.00     0.213 HD
ENDBRANCH   2  25
BRANCH   1  27
HETATM   27  C   UNL     1     -42.786  56.096 -52.153  1.00  0.00     0.043 A 
HETATM   28  C   UNL     1     -43.243  54.939 -51.508  1.00  0.00     0.032 A 
HETATM   29  C   UNL     1     -42.731  54.561 -50.260  1.00  0.00     0.039 A 
HETATM   30  C   UNL     1     -41.771  55.349 -49.628  1.00  0.00     0.068 A 
HETATM   31  C   UNL     1     -41.325  56.511 -50.260  1.00  0.00     0.039 A 
HETATM   32  C   UNL     1     -41.836  56.889 -51.504  1.00  0.00     0.032 A 
BRANCH  30  33
HETATM   33  O   UNL     1     -41.200  55.106 -48.411  1.00  0.00    -0.352 OA
BRANCH  33  34
HETATM   34  C   UNL     1     -40.310  53.997 -48.323  1.00  0.00     0.171 C 
HETATM   35  C   UNL     1     -39.203  54.207 -49.341  1.00  0.00     0.034 C 
ENDBRANCH  33  34
ENDBRANCH  30  33
ENDBRANCH   1  27
TORSDOF 7
ENDMDL
MODEL 2
REMARK VINA RESULT:      -8.7      3.216      6.765
REMARK  7 active torsions:
REMARK  status: ('A' for Active; 'I' for Inactive)
REMARK    1  A    between atoms: C_2  and  O_3 
REMARK    2  A    between atoms: O_3  and  C_4 
REMARK    3  A    between atoms: C_7  and  N_8 
REMARK    4  A    between atoms: C_9  and  C_11 
REMARK    5  A    between atoms: C_9  and  O_10 
REMARK       I    between atoms: C_11  and  N_12 
REMARK    6  A    between atoms: N_12  and  C_13 
REMARK    7  A    between atoms: C_13  and  C_14 
ROOT
HETATM    1  N   UNL     1     -41.761  55.382 -52.042  1.00  0.00    -0.254 N 
HETATM    2  C   UNL     1     -41.448  54.826 -53.373  1.00  0.00     0.256 C 
HETATM    3  C   UNL     1     -40.861  53.428 -53.314  1.00  0.00     0.034 A 
HETATM    4  C   UNL     1     -40.239  53.029 -52.136  1.00  0.00     0.048 A 
HETATM    5  N   UNL     1     -40.241  53.892 -51.048  1.00  0.00    -0.308 N 
HETATM    6  C   UNL     1     -40.967  55.043 -50.956  1.00  0.00     0.330 C 
HETATM    7  O   UNL     1     -40.919  55.660 -49.891  1.00  0.00    -0.246 OA
HETATM    8  C   UNL     1     -40.827  52.550 -54.412  1.00  0.00     0.015 A 
HETATM    9  C   UNL     1     -40.217  51.297 -54.307  1.00  0.00     0.001 A 
HETATM   10  C   UNL     1     -39.609  50.915 -53.114  1.00  0.00     0.002 A 
HETATM   11  C   UNL     1     -39.610  51.786 -52.027  1.00  0.00     0.030 A 
HETATM   12  H   UNL     1     -39.755  53.636 -50.199  1.00  0.00     0.170 HD
ENDROOT
BRANCH   2  13
HETATM   13  C   UNL     1     -42.667  54.852 -54.392  1.00  0.00     0.279 C 
HETATM   14  N   UNL     1     -42.352  55.413 -55.620  1.00  0.00    -0.352 N 
HETATM   15  H   UNL     1     -41.363  55.486 -55.840  1.00  0.00     0.162 HD
HETATM   16  O   UNL     1     -43.798  54.441 -54.134  1.00  0.00    -0.268 OA
BRANCH  14  17
HETATM   17  C   UNL     1     -43.315  55.461 -56.690  1.00  0.00     0.161 C 
BRANCH  17  18
HETATM   18  C   UNL     1     -42.824  56.345 -57.805  1.00  0.00    -0.040 A 
HETATM   19  C   UNL     1     -42.348  57.638 -57.536  1.00  0.00     0.012 A 
HETATM   20  C   UNL     1     -41.916  58.462 -58.578  1.00  0.00     0.043 A 
HETATM   21  C   UNL     1     -41.966  57.995 -59.886  1.00  0.00     0.116 A 
HETATM   22  F   UNL     1     -41.552  58.787 -60.884  1.00  0.00    -0.206 F 
HETATM   23  C   UNL     1     -42.445  56.723 -60.175  1.00  0.00     0.043 A 
HETATM   24  C   UNL     1     -42.878  55.898 -59.137  1.00  0.00     0.012 A 
ENDBRANCH  17  18
ENDBRANCH  14  17
ENDBRANCH   2  13
BRANCH   2  25
HETATM   25  O   UNL     1     -40.399  55.652 -53.918  1.00  0.00    -0.359 OA
HETATM   26  H   UNL     1     -39.701  55.018 -54.150  1.00  0.00     0.213 HD
ENDBRANCH   2  25
BRANCH   1  27
HETATM   27  C   UNL     1     -42.561  56.566 -51.956  1.00  0.00     0.043 A 
HETATM   28  C   UNL     1     -42.081  57.799 -52.417  1.00  0.00     0.032 A 
HETATM   29  C   UNL     1     -42.862  58.958 -52.316  1.00  0.00     0.039 A 
HETATM   30  C   UNL     1     -44.126  58.903 -51.731  1.00  0.00     0.068 A 
HETATM   31  C   UNL     1     -44.601  57.680 -51.257  1.00  0.00     0.039 A 
HETATM   32  C   UNL     1     -43.822  56.524 -51.355  1.00  0.00     0.032 A 
BRANCH  30  33
HETATM   33  O   UNL     1     -44.982  59.954 -51.558  1.00  0.00    -0.352 OA
BRANCH  33  34
HETATM   34  C   UNL     1     -45.341  60.282 -50.218  1.00  0.00     0.171 C 
HETATM   35  C   UNL     1     -44.228  61.134 -49.635  1.00  0.00     0.034 C 
ENDBRANCH  33  34
ENDBRANCH  30  33
ENDBRANCH   1  27
TORSDOF 7
ENDMDL
MODEL 3
REMARK VINA RESULT:      -8.7      3.095      6.895
REMARK  7 active torsions:
REMARK  status: ('A' for Active; 'I' for Inactive)
REMARK    1  A    between atoms: C_2  and  O_3 
REMARK    2  A    between atoms: O_3  and  C_4 
REMARK    3  A    between atoms: C_7  and  N_8 
REMARK    4  A    between atoms: C_9  and  C_11 
REMARK    5  A    between atoms: C_9  and  O_10 
REMARK       I    between atoms: C_11  and  N_12 
REMARK    6  A    between atoms: N_12  and  C_13 
REMARK    7  A    between atoms: C_13  and  C_14 
ROOT
HETATM    1  N   UNL     1     -41.638  55.197 -52.090  1.00  0.00    -0.254 N 
HETATM    2  C   UNL     1     -41.368  54.615 -53.421  1.00  0.00     0.256 C 
HETATM    3  C   UNL     1     -40.817  53.202 -53.354  1.00  0.00     0.034 A 
HETATM    4  C   UNL     1     -40.180  52.803 -52.184  1.00  0.00     0.048 A 
HETATM    5  N   UNL     1     -40.136  53.680 -51.109  1.00  0.00    -0.308 N 
HETATM    6  C   UNL     1     -40.829  54.851 -51.017  1.00  0.00     0.330 C 
HETATM    7  O   UNL     1     -40.742  55.481 -49.962  1.00  0.00    -0.246 OA
HETATM    8  C   UNL     1     -40.830  52.309 -54.441  1.00  0.00     0.015 A 
HETATM    9  C   UNL     1     -40.251  51.042 -54.331  1.00  0.00     0.001 A 
HETATM   10  C   UNL     1     -39.628  50.660 -53.146  1.00  0.00     0.002 A 
HETATM   11  C   UNL     1     -39.582  51.545 -52.072  1.00  0.00     0.030 A 
HETATM   12  H   UNL     1     -39.639  53.423 -50.267  1.00  0.00     0.170 HD
ENDROOT
BRANCH   2  13
HETATM   13  C   UNL     1     -42.608  54.660 -54.413  1.00  0.00     0.279 C 
HETATM   14  N   UNL     1     -42.304  55.193 -55.656  1.00  0.00    -0.352 N 
HETATM   15  H   UNL     1     -41.318  55.235 -55.899  1.00  0.00     0.162 HD
HETATM   16  O   UNL     1     -43.743  54.285 -54.124  1.00  0.00    -0.268 OA
BRANCH  14  17
HETATM   17  C   UNL     1     -43.288  55.252 -56.706  1.00  0.00     0.161 C 
BRANCH  17  18
HETATM   18  C   UNL     1     -42.856  56.210 -57.783  1.00  0.00    -0.040 A 
HETATM   19  C   UNL     1     -42.894  55.833 -59.135  1.00  0.00     0.012 A 
HETATM   20  C   UNL     1     -42.468  56.719 -60.127  1.00  0.00     0.043 A 
HETATM   21  C   UNL     1     -42.002  57.977 -59.768  1.00  0.00     0.116 A 
HETATM   22  F   UNL     1     -41.595  58.826 -60.721  1.00  0.00    -0.206 F 
HETATM   23  C   UNL     1     -41.946  58.367 -58.435  1.00  0.00     0.043 A 
HETATM   24  C   UNL     1     -42.369  57.484 -57.441  1.00  0.00     0.012 A 
ENDBRANCH  17  18
ENDBRANCH  14  17
ENDBRANCH   2  13
BRANCH   2  25
HETATM   25  O   UNL     1     -40.309  55.405 -53.999  1.00  0.00    -0.359 OA
HETATM   26  H   UNL     1     -39.874  54.795 -54.616  1.00  0.00     0.213 HD
ENDBRANCH   2  25
BRANCH   1  27
HETATM   27  C   UNL     1     -42.404  56.403 -52.004  1.00  0.00     0.043 A 
HETATM   28  C   UNL     1     -43.676  56.412 -51.418  1.00  0.00     0.032 A 
HETATM   29  C   UNL     1     -44.429  57.592 -51.351  1.00  0.00     0.039 A 
HETATM   30  C   UNL     1     -43.927  58.774 -51.890  1.00  0.00     0.068 A 
HETATM   31  C   UNL     1     -42.667  58.766 -52.489  1.00  0.00     0.039 A 
HETATM   32  C   UNL     1     -41.917  57.589 -52.558  1.00  0.00     0.032 A 
BRANCH  30  33
HETATM   33  O   UNL     1     -44.558  59.987 -51.905  1.00  0.00    -0.352 OA
BRANCH  33  34
HETATM   34  C   UNL     1     -45.645  60.141 -52.815  1.00  0.00     0.171 C 
HETATM   35  C   UNL     1     -46.822  60.706 -52.041  1.00  0.00     0.034 C 
ENDBRANCH  33  34
ENDBRANCH  30  33
ENDBRANCH   1  27
TORSDOF 7
ENDMDL
MODEL 4
REMARK VINA RESULT:      -8.6      3.239      6.381
REMARK  7 active torsions:
REMARK  status: ('A' for Active; 'I' for Inactive)
REMARK    1  A    between atoms: C_2  and  O_3 
REMARK    2  A    between atoms: O_3  and  C_4 
REMARK    3  A    between atoms: C_7  and  N_8 
REMARK    4  A    between atoms: C_9  and  C_11 
REMARK    5  A    between atoms: C_9  and  O_10 
REMARK       I    between atoms: C_11  and  N_12 
REMARK    6  A    between atoms: N_12  and  C_13 
REMARK    7  A    between atoms: C_13  and  C_14 
ROOT
HETATM    1  N   UNL     1     -43.386  56.132 -52.547  1.00  0.00    -0.254 N 
HETATM    2  C   UNL     1     -44.059  57.050 -53.489  1.00  0.00     0.256 C 
HETATM    3  C   UNL     1     -44.716  58.233 -52.803  1.00  0.00     0.034 A 
HETATM    4  C   UNL     1     -45.057  58.105 -51.461  1.00  0.00     0.048 A 
HETATM    5  N   UNL     1     -44.722  56.937 -50.790  1.00  0.00    -0.308 N 
HETATM    6  C   UNL     1     -43.911  55.953 -51.275  1.00  0.00     0.330 C 
HETATM    7  O   UNL     1     -43.648  55.013 -50.525  1.00  0.00    -0.246 OA
HETATM    8  C   UNL     1     -45.086  59.414 -53.472  1.00  0.00     0.015 A 
HETATM    9  C   UNL     1     -45.743  60.443 -52.793  1.00  0.00     0.001 A 
HETATM   10  C   UNL     1     -46.065  60.297 -51.446  1.00  0.00     0.002 A 
HETATM   11  C   UNL     1     -45.731  59.121 -50.779  1.00  0.00     0.030 A 
HETATM   12  H   UNL     1     -45.001  56.809 -49.826  1.00  0.00     0.170 HD
ENDROOT
BRANCH   2  13
HETATM   13  C   UNL     1     -43.130  57.564 -54.671  1.00  0.00     0.279 C 
HETATM   14  N   UNL     1     -43.573  57.184 -55.929  1.00  0.00    -0.352 N 
HETATM   15  H   UNL     1     -44.540  56.880 -55.992  1.00  0.00     0.162 HD
HETATM   16  O   UNL     1     -42.101  58.218 -54.512  1.00  0.00    -0.268 OA
BRANCH  14  17
HETATM   17  C   UNL     1     -42.893  57.615 -57.123  1.00  0.00     0.161 C 
BRANCH  17  18
HETATM   18  C   UNL     1     -43.496  56.966 -58.339  1.00  0.00    -0.040 A 
HETATM   19  C   UNL     1     -43.406  55.578 -58.528  1.00  0.00     0.012 A 
HETATM   20  C   UNL     1     -43.947  54.985 -59.671  1.00  0.00     0.043 A 
HETATM   21  C   UNL     1     -44.570  55.779 -60.626  1.00  0.00     0.116 A 
HETATM   22  F   UNL     1     -45.088  55.209 -61.722  1.00  0.00    -0.206 F 
HETATM   23  C   UNL     1     -44.660  57.156 -60.464  1.00  0.00     0.043 A 
HETATM   24  C   UNL     1     -44.120  57.753 -59.324  1.00  0.00     0.012 A 
ENDBRANCH  17  18
ENDBRANCH  14  17
ENDBRANCH   2  13
BRANCH   2  25
HETATM   25  O   UNL     1     -45.145  56.302 -54.072  1.00  0.00    -0.359 OA
HETATM   26  H   UNL     1     -45.805  56.256 -53.362  1.00  0.00     0.213 HD
ENDBRANCH   2  25
BRANCH   1  27
HETATM   27  C   UNL     1     -42.503  55.132 -53.066  1.00  0.00     0.043 A 
HETATM   28  C   UNL     1     -42.950  54.183 -53.995  1.00  0.00     0.032 A 
HETATM   29  C   UNL     1     -42.086  53.196 -54.487  1.00  0.00     0.039 A 
HETATM   30  C   UNL     1     -40.768  53.132 -54.039  1.00  0.00     0.068 A 
HETATM   31  C   UNL     1     -40.324  54.066 -53.103  1.00  0.00     0.039 A 
HETATM   32  C   UNL     1     -41.185  55.049 -52.610  1.00  0.00     0.032 A 
BRANCH  30  33
HETATM   33  O   UNL     1     -39.828  52.218 -54.424  1.00  0.00    -0.352 OA
BRANCH  33  34
HETATM   34  C   UNL     1     -39.646  51.081 -53.583  1.00  0.00     0.171 C 
HETATM   35  C   UNL     1     -39.798  49.839 -54.442  1.00  0.00     0.034 C 
ENDBRANCH  33  34
ENDBRANCH  30  33
ENDBRANCH   1  27
TORSDOF 7
ENDMDL
MODEL 5
REMARK VINA RESULT:      -8.5      1.693      2.509
REMARK  7 active torsions:
REMARK  status: ('A' for Active; 'I' for Inactive)
REMARK    1  A    between atoms: C_2  and  O_3 
REMARK    2  A    between atoms: O_3  and  C_4 
REMARK    3  A    between atoms: C_7  and  N_8 
REMARK    4  A    between atoms: C_9  and  C_11 
REMARK    5  A    between atoms: C_9  and  O_10 
REMARK       I    between atoms: C_11  and  N_12 
REMARK    6  A    between atoms: N_12  and  C_13 
REMARK    7  A    between atoms: C_13  and  C_14 
ROOT
HETATM    1  N   UNL     1     -44.155  58.344 -53.830  1.00  0.00    -0.254 N 
HETATM    2  C   UNL     1     -44.439  57.539 -55.035  1.00  0.00     0.256 C 
HETATM    3  C   UNL     1     -44.994  58.360 -56.185  1.00  0.00     0.034 A 
HETATM    4  C   UNL     1     -45.622  59.565 -55.886  1.00  0.00     0.048 A 
HETATM    5  N   UNL     1     -45.653  59.998 -54.567  1.00  0.00    -0.308 N 
HETATM    6  C   UNL     1     -44.955  59.440 -53.537  1.00  0.00     0.330 C 
HETATM    7  O   UNL     1     -45.029  59.989 -52.437  1.00  0.00    -0.246 OA
HETATM    8  C   UNL     1     -44.995  57.926 -57.523  1.00  0.00     0.015 A 
HETATM    9  C   UNL     1     -45.577  58.705 -58.527  1.00  0.00     0.001 A 
HETATM   10  C   UNL     1     -46.190  59.913 -58.205  1.00  0.00     0.002 A 
HETATM   11  C   UNL     1     -46.223  60.341 -56.880  1.00  0.00     0.030 A 
HETATM   12  H   UNL     1     -46.142  60.849 -54.326  1.00  0.00     0.170 HD
ENDROOT
BRANCH   2  13
HETATM   13  C   UNL     1     -43.209  56.672 -55.542  1.00  0.00     0.279 C 
HETATM   14  N   UNL     1     -43.383  55.307 -55.367  1.00  0.00    -0.352 N 
HETATM   15  H   UNL     1     -44.336  54.992 -55.208  1.00  0.00     0.162 HD
HETATM   16  O   UNL     1     -42.180  57.140 -56.027  1.00  0.00    -0.268 OA
BRANCH  14  17
HETATM   17  C   UNL     1     -42.399  54.361 -55.828  1.00  0.00     0.161 C 
BRANCH  17  18
HETATM   18  C   UNL     1     -41.645  53.774 -54.666  1.00  0.00    -0.040 A 
HETATM   19  C   UNL     1     -40.515  52.969 -54.880  1.00  0.00     0.012 A 
HETATM   20  C   UNL     1     -39.834  52.407 -53.798  1.00  0.00     0.043 A 
HETATM   21  C   UNL     1     -40.286  52.645 -52.505  1.00  0.00     0.116 A 
HETATM   22  F   UNL     1     -39.631  52.105 -51.469  1.00  0.00    -0.206 F 
HETATM   23  C   UNL     1     -41.408  53.430 -52.272  1.00  0.00     0.043 A 
HETATM   24  C   UNL     1     -42.092  53.991 -53.351  1.00  0.00     0.012 A 
ENDBRANCH  17  18
ENDBRANCH  14  17
ENDBRANCH   2  13
BRANCH   2  25
HETATM   25  O   UNL     1     -45.501  56.633 -54.673  1.00  0.00    -0.359 OA
HETATM   26  H   UNL     1     -45.080  55.758 -54.700  1.00  0.00     0.213 HD
ENDBRANCH   2  25
BRANCH   1  27
HETATM   27  C   UNL     1     -43.384  57.762 -52.775  1.00  0.00     0.043 A 
HETATM   28  C   UNL     1     -43.972  56.904 -51.836  1.00  0.00     0.032 A 
HETATM   29  C   UNL     1     -43.216  56.349 -50.795  1.00  0.00     0.039 A 
HETATM   30  C   UNL     1     -41.865  56.665 -50.665  1.00  0.00     0.068 A 
HETATM   31  C   UNL     1     -41.280  57.532 -51.588  1.00  0.00     0.039 A 
HETATM   32  C   UNL     1     -42.033  58.087 -52.625  1.00  0.00     0.032 A 
BRANCH  30  33
HETATM   33  O   UNL     1     -41.019  56.209 -49.694  1.00  0.00    -0.352 OA
BRANCH  33  34
HETATM   34  C   UNL     1     -41.351  54.967 -49.078  1.00  0.00     0.171 C 
HETATM   35  C   UNL     1     -40.066  54.178 -48.899  1.00  0.00     0.034 C 
ENDBRANCH  33  34
ENDBRANCH  30  33
ENDBRANCH   1  27
TORSDOF 7
ENDMDL
MODEL 6
REMARK VINA RESULT:      -8.3      3.199      7.045
REMARK  7 active torsions:
REMARK  status: ('A' for Active; 'I' for Inactive)
REMARK    1  A    between atoms: C_2  and  O_3 
REMARK    2  A    between atoms: O_3  and  C_4 
REMARK    3  A    between atoms: C_7  and  N_8 
REMARK    4  A    between atoms: C_9  and  C_11 
REMARK    5  A    between atoms: C_9  and  O_10 
REMARK       I    between atoms: C_11  and  N_12 
REMARK    6  A    between atoms: N_12  and  C_13 
REMARK    7  A    between atoms: C_13  and  C_14 
ROOT
HETATM    1  N   UNL     1     -41.819  55.425 -51.770  1.00  0.00    -0.254 N 
HETATM    2  C   UNL     1     -41.438  54.973 -53.124  1.00  0.00     0.256 C 
HETATM    3  C   UNL     1     -40.854  53.573 -53.144  1.00  0.00     0.034 A 
HETATM    4  C   UNL     1     -40.291  53.081 -51.970  1.00  0.00     0.048 A 
HETATM    5  N   UNL     1     -40.349  53.857 -50.820  1.00  0.00    -0.308 N 
HETATM    6  C   UNL     1     -41.080  54.999 -50.675  1.00  0.00     0.330 C 
HETATM    7  O   UNL     1     -41.087  55.532 -49.565  1.00  0.00    -0.246 OA
HETATM    8  C   UNL     1     -40.763  52.783 -54.304  1.00  0.00     0.015 A 
HETATM    9  C   UNL     1     -40.158  51.523 -54.266  1.00  0.00     0.001 A 
HETATM   10  C   UNL     1     -39.611  51.048 -53.077  1.00  0.00     0.002 A 
HETATM   11  C   UNL     1     -39.668  51.832 -51.927  1.00  0.00     0.030 A 
HETATM   12  H   UNL     1     -39.907  53.534 -49.970  1.00  0.00     0.170 HD
ENDROOT
BRANCH   2  13
HETATM   13  C   UNL     1     -42.604  55.082 -54.197  1.00  0.00     0.279 C 
HETATM   14  N   UNL     1     -42.327  55.968 -55.228  1.00  0.00    -0.352 N 
HETATM   15  H   UNL     1     -41.353  56.230 -55.347  1.00  0.00     0.162 HD
HETATM   16  O   UNL     1     -43.667  54.468 -54.133  1.00  0.00    -0.268 OA
BRANCH  14  17
HETATM   17  C   UNL     1     -43.241  56.147 -56.326  1.00  0.00     0.161 C 
BRANCH  17  18
HETATM   18  C   UNL     1     -43.950  57.470 -56.216  1.00  0.00    -0.040 A 
HETATM   19  C   UNL     1     -43.931  58.384 -57.281  1.00  0.00     0.012 A 
HETATM   20  C   UNL     1     -44.570  59.620 -57.162  1.00  0.00     0.043 A 
HETATM   21  C   UNL     1     -45.222  59.943 -55.978  1.00  0.00     0.116 A 
HETATM   22  F   UNL     1     -45.835  61.129 -55.866  1.00  0.00    -0.206 F 
HETATM   23  C   UNL     1     -45.244  59.057 -54.908  1.00  0.00     0.043 A 
HETATM   24  C   UNL     1     -44.605  57.822 -55.022  1.00  0.00     0.012 A 
ENDBRANCH  17  18
ENDBRANCH  14  17
ENDBRANCH   2  13
BRANCH   2  25
HETATM   25  O   UNL     1     -40.363  55.835 -53.548  1.00  0.00    -0.359 OA
HETATM   26  H   UNL     1     -40.018  56.204 -52.719  1.00  0.00     0.213 HD
ENDBRANCH   2  25
BRANCH   1  27
HETATM   27  C   UNL     1     -42.623  56.601 -51.634  1.00  0.00     0.043 A 
HETATM   28  C   UNL     1     -43.969  56.518 -51.256  1.00  0.00     0.032 A 
HETATM   29  C   UNL     1     -44.756  57.671 -51.139  1.00  0.00     0.039 A 
HETATM   30  C   UNL     1     -44.212  58.922 -51.421  1.00  0.00     0.068 A 
HETATM   31  C   UNL     1     -42.876  59.008 -51.812  1.00  0.00     0.039 A 
HETATM   32  C   UNL     1     -42.091  57.858 -51.932  1.00  0.00     0.032 A 
BRANCH  30  33
HETATM   33  O   UNL     1     -44.867  60.120 -51.361  1.00  0.00    -0.352 OA
BRANCH  33  34
HETATM   34  C   UNL     1     -46.291  60.078 -51.322  1.00  0.00     0.171 C 
HETATM   35  C   UNL     1     -46.814  61.138 -52.274  1.00  0.00     0.034 C 
ENDBRANCH  33  34
ENDBRANCH  30  33
ENDBRANCH   1  27
TORSDOF 7
ENDMDL
MODEL 7
REMARK VINA RESULT:      -8.0     14.639     17.716
REMARK  7 active torsions:
REMARK  status: ('A' for Active; 'I' for Inactive)
REMARK    1  A    between atoms: C_2  and  O_3 
REMARK    2  A    between atoms: O_3  and  C_4 
REMARK    3  A    between atoms: C_7  and  N_8 
REMARK    4  A    between atoms: C_9  and  C_11 
REMARK    5  A    between atoms: C_9  and  O_10 
REMARK       I    between atoms: C_11  and  N_12 
REMARK    6  A    between atoms: N_12  and  C_13 
REMARK    7  A    between atoms: C_13  and  C_14 
ROOT
HETATM    1  N   UNL     1     -35.029  40.967 -54.013  1.00  0.00    -0.254 N 
HETATM    2  C   UNL     1     -33.748  40.232 -54.000  1.00  0.00     0.256 C 
HETATM    3  C   UNL     1     -33.287  39.860 -52.603  1.00  0.00     0.034 A 
HETATM    4  C   UNL     1     -33.767  40.610 -51.534  1.00  0.00     0.048 A 
HETATM    5  N   UNL     1     -34.694  41.614 -51.779  1.00  0.00    -0.308 N 
HETATM    6  C   UNL     1     -35.336  41.823 -52.964  1.00  0.00     0.330 C 
HETATM    7  O   UNL     1     -36.190  42.710 -53.000  1.00  0.00    -0.246 OA
HETATM    8  C   UNL     1     -32.330  38.865 -52.337  1.00  0.00     0.015 A 
HETATM    9  C   UNL     1     -31.904  38.613 -51.030  1.00  0.00     0.001 A 
HETATM   10  C   UNL     1     -32.406  39.370 -49.975  1.00  0.00     0.002 A 
HETATM   11  C   UNL     1     -33.333  40.379 -50.227  1.00  0.00     0.030 A 
HETATM   12  H   UNL     1     -35.021  42.197 -51.020  1.00  0.00     0.170 HD
ENDROOT
BRANCH   2  13
HETATM   13  C   UNL     1     -33.729  38.944 -54.930  1.00  0.00     0.279 C 
HETATM   14  N   UNL     1     -34.881  38.178 -54.840  1.00  0.00    -0.352 N 
HETATM   15  H   UNL     1     -35.694  38.633 -54.434  1.00  0.00     0.162 HD
HETATM   16  O   UNL     1     -32.787  38.623 -55.653  1.00  0.00    -0.268 OA
BRANCH  14  17
HETATM   17  C   UNL     1     -35.069  37.009 -55.660  1.00  0.00     0.161 C 
BRANCH  17  18
HETATM   18  C   UNL     1     -35.844  37.352 -56.903  1.00  0.00    -0.040 A 
HETATM   19  C   UNL     1     -35.215  37.980 -57.989  1.00  0.00     0.012 A 
HETATM   20  C   UNL     1     -35.946  38.318 -59.130  1.00  0.00     0.043 A 
HETATM   21  C   UNL     1     -37.305  38.034 -59.182  1.00  0.00     0.116 A 
HETATM   22  F   UNL     1     -38.005  38.358 -60.277  1.00  0.00    -0.206 F 
HETATM   23  C   UNL     1     -37.950  37.422 -58.113  1.00  0.00     0.043 A 
HETATM   24  C   UNL     1     -37.223  37.085 -56.971  1.00  0.00     0.012 A 
ENDBRANCH  17  18
ENDBRANCH  14  17
ENDBRANCH   2  13
BRANCH   2  25
HETATM   25  O   UNL     1     -32.752  41.150 -54.494  1.00  0.00    -0.359 OA
HETATM   26  H   UNL     1     -31.910  40.739 -54.239  1.00  0.00     0.213 HD
ENDBRANCH   2  25
BRANCH   1  27
HETATM   27  C   UNL     1     -35.714  41.142 -55.257  1.00  0.00     0.043 A 
HETATM   28  C   UNL     1     -35.136  41.869 -56.307  1.00  0.00     0.032 A 
HETATM   29  C   UNL     1     -35.819  42.051 -57.517  1.00  0.00     0.039 A 
HETATM   30  C   UNL     1     -37.099  41.527 -57.685  1.00  0.00     0.068 A 
HETATM   31  C   UNL     1     -37.684  40.816 -56.637  1.00  0.00     0.039 A 
HETATM   32  C   UNL     1     -37.005  40.636 -55.429  1.00  0.00     0.032 A 
BRANCH  30  33
HETATM   33  O   UNL     1     -37.878  41.641 -58.802  1.00  0.00    -0.352 OA
BRANCH  33  34
HETATM   34  C   UNL     1     -37.205  41.701 -60.058  1.00  0.00     0.171 C 
HETATM   35  C   UNL     1     -37.447  43.078 -60.650  1.00  0.00     0.034 C 
ENDBRANCH  33  34
ENDBRANCH  30  33
ENDBRANCH   1  27
TORSDOF 7
ENDMDL
MODEL 8
REMARK VINA RESULT:      -8.0     14.555     16.907
REMARK  7 active torsions:
REMARK  status: ('A' for Active; 'I' for Inactive)
REMARK    1  A    between atoms: C_2  and  O_3 
REMARK    2  A    between atoms: O_3  and  C_4 
REMARK    3  A    between atoms: C_7  and  N_8 
REMARK    4  A    between atoms: C_9  and  C_11 
REMARK    5  A    between atoms: C_9  and  O_10 
REMARK       I    between atoms: C_11  and  N_12 
REMARK    6  A    between atoms: N_12  and  C_13 
REMARK    7  A    between atoms: C_13  and  C_14 
ROOT
HETATM    1  N   UNL     1     -34.513  39.448 -56.397  1.00  0.00    -0.254 N 
HETATM    2  C   UNL     1     -34.945  40.785 -56.850  1.00  0.00     0.256 C 
HETATM    3  C   UNL     1     -35.891  40.738 -58.036  1.00  0.00     0.034 A 
HETATM    4  C   UNL     1     -35.866  39.609 -58.849  1.00  0.00     0.048 A 
HETATM    5  N   UNL     1     -35.034  38.552 -58.506  1.00  0.00    -0.308 N 
HETATM    6  C   UNL     1     -34.361  38.428 -57.326  1.00  0.00     0.330 C 
HETATM    7  O   UNL     1     -33.723  37.391 -57.142  1.00  0.00    -0.246 OA
HETATM    8  C   UNL     1     -36.721  41.808 -58.414  1.00  0.00     0.015 A 
HETATM    9  C   UNL     1     -37.526  41.721 -59.553  1.00  0.00     0.001 A 
HETATM   10  C   UNL     1     -37.491  40.577 -60.346  1.00  0.00     0.002 A 
HETATM   11  C   UNL     1     -36.651  39.521 -60.000  1.00  0.00     0.030 A 
HETATM   12  H   UNL     1     -34.970  37.742 -59.108  1.00  0.00     0.170 HD
ENDROOT
BRANCH   2  13
HETATM   13  C   UNL     1     -35.570  41.690 -55.703  1.00  0.00     0.279 C 
HETATM   14  N   UNL     1     -36.626  41.089 -55.036  1.00  0.00    -0.352 N 
HETATM   15  H   UNL     1     -36.710  40.081 -55.142  1.00  0.00     0.162 HD
HETATM   16  O   UNL     1     -35.187  42.826 -55.427  1.00  0.00    -0.268 OA
BRANCH  14  17
HETATM   17  C   UNL     1     -37.274  41.734 -53.923  1.00  0.00     0.161 C 
BRANCH  17  18
HETATM   18  C   UNL     1     -36.786  41.158 -52.621  1.00  0.00    -0.040 A 
HETATM   19  C   UNL     1     -35.595  41.618 -52.037  1.00  0.00     0.012 A 
HETATM   20  C   UNL     1     -35.135  41.062 -50.841  1.00  0.00     0.043 A 
HETATM   21  C   UNL     1     -35.862  40.045 -50.233  1.00  0.00     0.116 A 
HETATM   22  F   UNL     1     -35.420  39.514 -49.086  1.00  0.00    -0.206 F 
HETATM   23  C   UNL     1     -37.037  39.569 -50.801  1.00  0.00     0.043 A 
HETATM   24  C   UNL     1     -37.499  40.120 -51.997  1.00  0.00     0.012 A 
ENDBRANCH  17  18
ENDBRANCH  14  17
ENDBRANCH   2  13
BRANCH   2  25
HETATM   25  O   UNL     1     -33.761  41.446 -57.340  1.00  0.00    -0.359 OA
HETATM   26  H   UNL     1     -33.161  41.446 -56.576  1.00  0.00     0.213 HD
ENDBRANCH   2  25
BRANCH   1  27
HETATM   27  C   UNL     1     -33.847  39.326 -55.136  1.00  0.00     0.043 A 
HETATM   28  C   UNL     1     -32.604  39.932 -54.913  1.00  0.00     0.032 A 
HETATM   29  C   UNL     1     -31.947  39.796 -53.682  1.00  0.00     0.039 A 
HETATM   30  C   UNL     1     -32.517  39.031 -52.666  1.00  0.00     0.068 A 
HETATM   31  C   UNL     1     -33.747  38.413 -52.890  1.00  0.00     0.039 A 
HETATM   32  C   UNL     1     -34.401  38.546 -54.118  1.00  0.00     0.032 A 
BRANCH  30  33
HETATM   33  O   UNL     1     -31.982  38.805 -51.429  1.00  0.00    -0.352 OA
BRANCH  33  34
HETATM   34  C   UNL     1     -31.598  39.950 -50.670  1.00  0.00     0.171 C 
HETATM   35  C   UNL     1     -32.008  39.711 -49.229  1.00  0.00     0.034 C 
ENDBRANCH  33  34
ENDBRANCH  30  33
ENDBRANCH   1  27
TORSDOF 7
ENDMDL
MODEL 9
REMARK VINA RESULT:      -7.9      3.255      6.005
REMARK  7 active torsions:
REMARK  status: ('A' for Active; 'I' for Inactive)
REMARK    1  A    between atoms: C_2  and  O_3 
REMARK    2  A    between atoms: O_3  and  C_4 
REMARK    3  A    between atoms: C_7  and  N_8 
REMARK    4  A    between atoms: C_9  and  C_11 
REMARK    5  A    between atoms: C_9  and  O_10 
REMARK       I    between atoms: C_11  and  N_12 
REMARK    6  A    between atoms: N_12  and  C_13 
REMARK    7  A    between atoms: C_13  and  C_14 
ROOT
HETATM    1  N   UNL     1     -42.097  56.536 -52.478  1.00  0.00    -0.254 N 
HETATM    2  C   UNL     1     -43.449  56.694 -53.049  1.00  0.00     0.256 C 
HETATM    3  C   UNL     1     -43.817  58.141 -53.321  1.00  0.00     0.034 A 
HETATM    4  C   UNL     1     -43.152  59.132 -52.606  1.00  0.00     0.048 A 
HETATM    5  N   UNL     1     -42.138  58.764 -51.732  1.00  0.00    -0.308 N 
HETATM    6  C   UNL     1     -41.591  57.519 -51.637  1.00  0.00     0.330 C 
HETATM    7  O   UNL     1     -40.644  57.371 -50.864  1.00  0.00    -0.246 OA
HETATM    8  C   UNL     1     -44.858  58.531 -54.183  1.00  0.00     0.015 A 
HETATM    9  C   UNL     1     -45.186  59.881 -54.343  1.00  0.00     0.001 A 
HETATM   10  C   UNL     1     -44.499  60.855 -53.625  1.00  0.00     0.002 A 
HETATM   11  C   UNL     1     -43.485  60.481 -52.745  1.00  0.00     0.030 A 
HETATM   12  H   UNL     1     -41.674  59.467 -51.172  1.00  0.00     0.170 HD
ENDROOT
BRANCH   2  13
HETATM   13  C   UNL     1     -43.711  55.822 -54.350  1.00  0.00     0.279 C 
HETATM   14  N   UNL     1     -43.125  56.342 -55.494  1.00  0.00    -0.352 N 
HETATM   15  H   UNL     1     -42.391  57.030 -55.350  1.00  0.00     0.162 HD
HETATM   16  O   UNL     1     -44.383  54.792 -54.373  1.00  0.00    -0.268 OA
BRANCH  14  17
HETATM   17  C   UNL     1     -43.201  55.650 -56.755  1.00  0.00     0.161 C 
BRANCH  17  18
HETATM   18  C   UNL     1     -42.750  56.545 -57.878  1.00  0.00    -0.040 A 
HETATM   19  C   UNL     1     -42.349  57.866 -57.624  1.00  0.00     0.012 A 
HETATM   20  C   UNL     1     -41.955  58.699 -58.673  1.00  0.00     0.043 A 
HETATM   21  C   UNL     1     -41.967  58.212 -59.975  1.00  0.00     0.116 A 
HETATM   22  F   UNL     1     -41.588  59.012 -60.981  1.00  0.00    -0.206 F 
HETATM   23  C   UNL     1     -42.370  56.911 -60.250  1.00  0.00     0.043 A 
HETATM   24  C   UNL     1     -42.766  56.077 -59.204  1.00  0.00     0.012 A 
ENDBRANCH  17  18
ENDBRANCH  14  17
ENDBRANCH   2  13
BRANCH   2  25
HETATM   25  O   UNL     1     -44.370  56.257 -52.029  1.00  0.00    -0.359 OA
HETATM   26  H   UNL     1     -44.011  56.638 -51.212  1.00  0.00     0.213 HD
ENDBRANCH   2  25
BRANCH   1  27
HETATM   27  C   UNL     1     -41.516  55.230 -52.424  1.00  0.00     0.043 A 
HETATM   28  C   UNL     1     -41.602  54.446 -51.265  1.00  0.00     0.032 A 
HETATM   29  C   UNL     1     -41.017  53.173 -51.213  1.00  0.00     0.039 A 
HETATM   30  C   UNL     1     -40.318  52.677 -52.311  1.00  0.00     0.068 A 
HETATM   31  C   UNL     1     -40.217  53.461 -53.461  1.00  0.00     0.039 A 
HETATM   32  C   UNL     1     -40.798  54.731 -53.514  1.00  0.00     0.032 A 
BRANCH  30  33
HETATM   33  O   UNL     1     -39.692  51.466 -52.390  1.00  0.00    -0.352 OA
BRANCH  33  34
HETATM   34  C   UNL     1     -39.171  51.087 -53.662  1.00  0.00     0.171 C 
HETATM   35  C   UNL     1     -39.907  49.839 -54.114  1.00  0.00     0.034 C 
ENDBRANCH  33  34
ENDBRANCH  30  33
ENDBRANCH   1  27
TORSDOF 7
ENDMDL
MODEL 10
REMARK VINA RESULT:      -7.8      2.366      3.316
REMARK  7 active torsions:
REMARK  status: ('A' for Active; 'I' for Inactive)
REMARK    1  A    between atoms: C_2  and  O_3 
REMARK    2  A    between atoms: O_3  and  C_4 
REMARK    3  A    between atoms: C_7  and  N_8 
REMARK    4  A    between atoms: C_9  and  C_11 
REMARK    5  A    between atoms: C_9  and  O_10 
REMARK       I    between atoms: C_11  and  N_12 
REMARK    6  A    between atoms: N_12  and  C_13 
REMARK    7  A    between atoms: C_13  and  C_14 
ROOT
HETATM    1  N   UNL     1     -42.876  58.027 -55.471  1.00  0.00    -0.254 N 
HETATM    2  C   UNL     1     -43.266  56.682 -55.940  1.00  0.00     0.256 C 
HETATM    3  C   UNL     1     -43.464  56.608 -57.443  1.00  0.00     0.034 A 
HETATM    4  C   UNL     1     -43.752  57.785 -58.125  1.00  0.00     0.048 A 
HETATM    5  N   UNL     1     -43.778  58.981 -57.420  1.00  0.00    -0.308 N 
HETATM    6  C   UNL     1     -43.360  59.148 -56.133  1.00  0.00     0.330 C 
HETATM    7  O   UNL     1     -43.375  60.290 -55.674  1.00  0.00    -0.246 OA
HETATM    8  C   UNL     1     -43.467  55.403 -58.170  1.00  0.00     0.015 A 
HETATM    9  C   UNL     1     -43.715  55.399 -59.545  1.00  0.00     0.001 A 
HETATM   10  C   UNL     1     -43.992  56.591 -60.208  1.00  0.00     0.002 A 
HETATM   11  C   UNL     1     -44.021  57.788 -59.495  1.00  0.00     0.030 A 
HETATM   12  H   UNL     1     -44.030  59.840 -57.891  1.00  0.00     0.170 HD
ENDROOT
BRANCH   2  13
HETATM   13  C   UNL     1     -42.288  55.522 -55.471  1.00  0.00     0.279 C 
HETATM   14  N   UNL     1     -42.864  54.643 -54.566  1.00  0.00    -0.352 N 
HETATM   15  H   UNL     1     -43.878  54.655 -54.511  1.00  0.00     0.162 HD
HETATM   16  O   UNL     1     -41.121  55.403 -55.842  1.00  0.00    -0.268 OA
BRANCH  14  17
HETATM   17  C   UNL     1     -42.148  53.492 -54.080  1.00  0.00     0.161 C 
BRANCH  17  18
HETATM   18  C   UNL     1     -41.611  53.745 -52.698  1.00  0.00    -0.040 A 
HETATM   19  C   UNL     1     -42.297  54.585 -51.807  1.00  0.00     0.012 A 
HETATM   20  C   UNL     1     -41.780  54.836 -50.534  1.00  0.00     0.043 A 
HETATM   21  C   UNL     1     -40.577  54.252 -50.155  1.00  0.00     0.116 A 
HETATM   22  F   UNL     1     -40.083  54.493 -48.934  1.00  0.00    -0.206 F 
HETATM   23  C   UNL     1     -39.877  53.426 -51.026  1.00  0.00     0.043 A 
HETATM   24  C   UNL     1     -40.389  53.175 -52.299  1.00  0.00     0.012 A 
ENDBRANCH  17  18
ENDBRANCH  14  17
ENDBRANCH   2  13
BRANCH   2  25
HETATM   25  O   UNL     1     -44.567  56.420 -55.376  1.00  0.00    -0.359 OA
HETATM   26  H   UNL     1     -44.965  57.302 -55.289  1.00  0.00     0.213 HD
ENDBRANCH   2  25
BRANCH   1  27
HETATM   27  C   UNL     1     -42.397  58.182 -54.132  1.00  0.00     0.043 A 
HETATM   28  C   UNL     1     -43.268  58.108 -53.037  1.00  0.00     0.032 A 
HETATM   29  C   UNL     1     -42.796  58.276 -51.729  1.00  0.00     0.039 A 
HETATM   30  C   UNL     1     -41.448  58.543 -51.500  1.00  0.00     0.068 A 
HETATM   31  C   UNL     1     -40.580  58.633 -52.588  1.00  0.00     0.039 A 
HETATM   32  C   UNL     1     -41.050  58.468 -53.893  1.00  0.00     0.032 A 
BRANCH  30  33
HETATM   33  O   UNL     1     -40.859  58.741 -50.282  1.00  0.00    -0.352 OA
BRANCH  33  34
HETATM   34  C   UNL     1     -40.108  59.941 -50.113  1.00  0.00     0.171 C 
HETATM   35  C   UNL     1     -38.640  59.562 -50.034  1.00  0.00     0.034 C 
ENDBRANCH  33  34
ENDBRANCH  30  33
ENDBRANCH   1  27
TORSDOF 7
ENDMDL
