MODEL 1
REMARK VINA RESULT:      -9.1      0.000      0.000
REMARK  7 active torsions:
REMARK  status: ('A' for Active; 'I' for Inactive)
REMARK    1  A    between atoms: N_2  and  C_4 
REMARK    2  A    between atoms: N_2  and  C_23 
REMARK    3  A    between atoms: C_4  and  C_5 
REMARK       I    between atoms: C_5  and  N_6 
REMARK    4  A    between atoms: N_6  and  C_7 
REMARK    5  A    between atoms: C_8  and  O_9 
REMARK    6  A    between atoms: C_23  and  C_24 
REMARK       I    between atoms: C_24  and  N_25 
REMARK    7  A    between atoms: N_25  and  C_26 
ROOT
HETATM    1  C   UNL     1     -43.212  57.353 -51.443  1.00  0.00     0.248 C 
HETATM    2  N   UNL     1     -41.975  57.105 -51.971  1.00  0.00    -0.323 N 
HETATM    3  O   UNL     1     -43.991  56.535 -50.949  1.00  0.00    -0.271 OA
HETATM    4  H   UNL     1     -41.298  57.864 -52.046  1.00  0.00     0.169 HD
ENDROOT
BRANCH   1   5
HETATM    5  C   UNL     1     -43.625  58.827 -51.401  1.00  0.00     0.337 C 
BRANCH   5   6
HETATM    6  N   UNL     1     -43.547  59.397 -52.832  1.00  0.00    -0.058 N 
HETATM    7  C   UNL     1     -42.797  60.685 -52.898  1.00  0.00     0.270 C 
HETATM    8  H   UNL     1     -42.981  58.681 -53.326  1.00  0.00     0.280 HD
BRANCH   6   9
HETATM    9  C   UNL     1     -44.895  59.469 -53.548  1.00  0.00     0.337 C 
BRANCH   9  10
HETATM   10  C   UNL     1     -45.076  58.455 -54.684  1.00  0.00     0.248 C 
HETATM   11  N   UNL     1     -45.101  58.998 -55.953  1.00  0.00    -0.326 N 
HETATM   12  H   UNL     1     -44.828  59.968 -56.076  1.00  0.00     0.169 HD
HETATM   13  O   UNL     1     -45.079  57.254 -54.415  1.00  0.00    -0.271 OA
BRANCH  11  14
HETATM   14  C   UNL     1     -45.343  58.290 -57.153  1.00  0.00     0.036 A 
HETATM   15  C   UNL     1     -44.344  57.644 -57.887  1.00  0.00     0.055 A 
HETATM   16  C   UNL     1     -44.660  56.942 -59.059  1.00  0.00     0.058 A 
HETATM   17 CL   UNL     1     -43.363  56.169 -59.901  1.00  0.00    -0.082 Cl
HETATM   18  C   UNL     1     -45.983  56.880 -59.505  1.00  0.00     0.055 A 
HETATM   19 CL   UNL     1     -46.443  56.038 -60.938  1.00  0.00    -0.083 Cl
HETATM   20  C   UNL     1     -46.984  57.517 -58.771  1.00  0.00     0.028 A 
HETATM   21  C   UNL     1     -46.667  58.212 -57.598  1.00  0.00     0.031 A 
ENDBRANCH  11  14
ENDBRANCH   9  10
ENDBRANCH   6   9
ENDBRANCH   5   6
ENDBRANCH   1   5
BRANCH   2  22
HETATM   22  C   UNL     1     -41.429  55.846 -52.307  1.00  0.00     0.071 A 
HETATM   23  C   UNL     1     -41.355  55.545 -53.680  1.00  0.00     0.096 A 
HETATM   24  C   UNL     1     -40.951  54.286 -54.147  1.00  0.00     0.054 A 
HETATM   25  C   UNL     1     -40.578  53.318 -53.195  1.00  0.00     0.014 A 
HETATM   26  C   UNL     1     -40.611  53.665 -51.849  1.00  0.00     0.089 A 
HETATM   27  C   UNL     1     -40.160  51.954 -53.237  1.00  0.00     0.011 A 
HETATM   28  O   UNL     1     -40.215  52.617 -51.075  1.00  0.00    -0.309 OA
HETATM   29  C   UNL     1     -41.019  54.907 -51.357  1.00  0.00     0.070 A 
HETATM   30  C   UNL     1     -39.949  51.579 -51.915  1.00  0.00     0.087 A 
HETATM   31  C   UNL     1     -39.533  50.310 -51.518  1.00  0.00     0.038 A 
HETATM   32  C   UNL     1     -39.331  49.372 -52.536  1.00  0.00     0.003 A 
HETATM   33  C   UNL     1     -39.537  49.706 -53.877  1.00  0.00     0.001 A 
HETATM   34  C   UNL     1     -39.949  50.995 -54.246  1.00  0.00     0.015 A 
BRANCH  23  35
HETATM   35  O   UNL     1     -41.749  56.534 -54.556  1.00  0.00    -0.354 OA
HETATM   36  C   UNL     1     -42.094  55.988 -55.832  1.00  0.00     0.210 C 
ENDBRANCH  23  35
ENDBRANCH   2  22
TORSDOF 7
ENDMDL
MODEL 2
REMARK VINA RESULT:      -9.0      1.933      2.593
REMARK  7 active torsions:
REMARK  status: ('A' for Active; 'I' for Inactive)
REMARK    1  A    between atoms: N_2  and  C_4 
REMARK    2  A    between atoms: N_2  and  C_23 
REMARK    3  A    between atoms: C_4  and  C_5 
REMARK       I    between atoms: C_5  and  N_6 
REMARK    4  A    between atoms: N_6  and  C_7 
REMARK    5  A    between atoms: C_8  and  O_9 
REMARK    6  A    between atoms: C_23  and  C_24 
REMARK       I    between atoms: C_24  and  N_25 
REMARK    7  A    between atoms: N_25  and  C_26 
ROOT
HETATM    1  C   UNL     1     -43.224  57.406 -51.594  1.00  0.00     0.248 C 
HETATM    2  N   UNL     1     -42.024  57.149 -52.196  1.00  0.00    -0.323 N 
HETATM    3  O   UNL     1     -43.955  56.602 -51.011  1.00  0.00    -0.271 OA
HETATM    4  H   UNL     1     -41.366  57.912 -52.352  1.00  0.00     0.169 HD
ENDROOT
BRANCH   1   5
HETATM    5  C   UNL     1     -43.656  58.876 -51.589  1.00  0.00     0.337 C 
BRANCH   5   6
HETATM    6  N   UNL     1     -42.396  59.755 -51.714  1.00  0.00    -0.058 N 
HETATM    7  C   UNL     1     -42.002  60.382 -50.418  1.00  0.00     0.270 C 
HETATM    8  H   UNL     1     -41.664  59.061 -51.959  1.00  0.00     0.280 HD
BRANCH   6   9
HETATM    9  C   UNL     1     -42.451  60.766 -52.858  1.00  0.00     0.337 C 
BRANCH   9  10
HETATM   10  C   UNL     1     -42.017  60.219 -54.223  1.00  0.00     0.248 C 
HETATM   11  N   UNL     1     -42.633  60.806 -55.311  1.00  0.00    -0.326 N 
HETATM   12  H   UNL     1     -43.177  61.652 -55.167  1.00  0.00     0.169 HD
HETATM   13  O   UNL     1     -41.101  59.398 -54.272  1.00  0.00    -0.271 OA
BRANCH  11  14
HETATM   14  C   UNL     1     -42.472  60.421 -56.662  1.00  0.00     0.036 A 
HETATM   15  C   UNL     1     -43.055  59.279 -57.217  1.00  0.00     0.055 A 
HETATM   16  C   UNL     1     -42.869  58.968 -58.572  1.00  0.00     0.058 A 
HETATM   17 CL   UNL     1     -43.631  57.539 -59.176  1.00  0.00    -0.082 Cl
HETATM   18  C   UNL     1     -42.096  59.803 -59.383  1.00  0.00     0.055 A 
HETATM   19 CL   UNL     1     -41.822  59.481 -61.055  1.00  0.00    -0.083 Cl
HETATM   20  C   UNL     1     -41.518  60.948 -58.834  1.00  0.00     0.028 A 
HETATM   21  C   UNL     1     -41.710  61.259 -57.483  1.00  0.00     0.031 A 
ENDBRANCH  11  14
ENDBRANCH   9  10
ENDBRANCH   6   9
ENDBRANCH   5   6
ENDBRANCH   1   5
BRANCH   2  22
HETATM   22  C   UNL     1     -41.483  55.883 -52.514  1.00  0.00     0.071 A 
HETATM   23  C   UNL     1     -41.501  55.521 -53.874  1.00  0.00     0.096 A 
HETATM   24  C   UNL     1     -41.112  54.246 -54.312  1.00  0.00     0.054 A 
HETATM   25  C   UNL     1     -40.659  53.328 -53.346  1.00  0.00     0.014 A 
HETATM   26  C   UNL     1     -40.603  53.735 -52.018  1.00  0.00     0.089 A 
HETATM   27  C   UNL     1     -40.224  51.969 -53.358  1.00  0.00     0.011 A 
HETATM   28  O   UNL     1     -40.138  52.728 -51.229  1.00  0.00    -0.309 OA
HETATM   29  C   UNL     1     -40.994  54.993 -51.555  1.00  0.00     0.070 A 
HETATM   30  C   UNL     1     -39.916  51.656 -52.038  1.00  0.00     0.087 A 
HETATM   31  C   UNL     1     -39.453  50.412 -51.616  1.00  0.00     0.038 A 
HETATM   32  C   UNL     1     -39.309  49.430 -52.602  1.00  0.00     0.003 A 
HETATM   33  C   UNL     1     -39.614  49.702 -53.939  1.00  0.00     0.001 A 
HETATM   34  C   UNL     1     -40.070  50.967 -54.335  1.00  0.00     0.015 A 
BRANCH  23  35
HETATM   35  O   UNL     1     -41.970  56.465 -54.763  1.00  0.00    -0.354 OA
HETATM   36  C   UNL     1     -42.737  55.857 -55.806  1.00  0.00     0.210 C 
ENDBRANCH  23  35
ENDBRANCH   2  22
TORSDOF 7
ENDMDL
MODEL 3
REMARK VINA RESULT:      -8.6      2.391      3.428
REMARK  7 active torsions:
REMARK  status: ('A' for Active; 'I' for Inactive)
REMARK    1  A    between atoms: N_2  and  C_4 
REMARK    2  A    between atoms: N_2  and  C_23 
REMARK    3  A    between atoms: C_4  and  C_5 
REMARK       I    between atoms: C_5  and  N_6 
REMARK    4  A    between atoms: N_6  and  C_7 
REMARK    5  A    between atoms: C_8  and  O_9 
REMARK    6  A    between atoms: C_23  and  C_24 
REMARK       I    between atoms: C_24  and  N_25 
REMARK    7  A    between atoms: N_25  and  C_26 
ROOT
HETATM    1  C   UNL     1     -41.035  58.101 -50.973  1.00  0.00     0.248 C 
HETATM    2  N   UNL     1     -41.630  56.950 -50.536  1.00  0.00    -0.323 N 
HETATM    3  O   UNL     1     -40.297  58.235 -51.952  1.00  0.00    -0.271 OA
HETATM    4  H   UNL     1     -42.455  57.006 -49.939  1.00  0.00     0.169 HD
ENDROOT
BRANCH   1   5
HETATM    5  C   UNL     1     -41.397  59.366 -50.190  1.00  0.00     0.337 C 
BRANCH   5   6
HETATM    6  N   UNL     1     -42.318  60.237 -51.067  1.00  0.00    -0.058 N 
HETATM    7  C   UNL     1     -42.570  61.584 -50.475  1.00  0.00     0.270 C 
HETATM    8  H   UNL     1     -41.747  60.374 -51.922  1.00  0.00     0.280 HD
BRANCH   6   9
HETATM    9  C   UNL     1     -43.607  59.540 -51.501  1.00  0.00     0.337 C 
BRANCH   9  10
HETATM   10  C   UNL     1     -43.760  59.354 -53.015  1.00  0.00     0.248 C 
HETATM   11  N   UNL     1     -42.677  58.771 -53.644  1.00  0.00    -0.326 N 
HETATM   12  H   UNL     1     -41.949  58.349 -53.075  1.00  0.00     0.169 HD
HETATM   13  O   UNL     1     -44.838  59.623 -53.543  1.00  0.00    -0.271 OA
BRANCH  11  14
HETATM   14  C   UNL     1     -42.535  58.572 -55.037  1.00  0.00     0.036 A 
HETATM   15  C   UNL     1     -42.776  57.352 -55.674  1.00  0.00     0.055 A 
HETATM   16  C   UNL     1     -42.636  57.232 -57.064  1.00  0.00     0.058 A 
HETATM   17 CL   UNL     1     -42.959  55.687 -57.769  1.00  0.00    -0.082 Cl
HETATM   18  C   UNL     1     -42.253  58.337 -57.829  1.00  0.00     0.055 A 
HETATM   19 CL   UNL     1     -42.058  58.262 -59.541  1.00  0.00    -0.083 Cl
HETATM   20  C   UNL     1     -42.018  59.559 -57.197  1.00  0.00     0.028 A 
HETATM   21  C   UNL     1     -42.165  59.678 -55.810  1.00  0.00     0.031 A 
ENDBRANCH  11  14
ENDBRANCH   9  10
ENDBRANCH   6   9
ENDBRANCH   5   6
ENDBRANCH   1   5
BRANCH   2  22
HETATM   22  C   UNL     1     -41.332  55.629 -50.940  1.00  0.00     0.071 A 
HETATM   23  C   UNL     1     -40.902  54.750 -49.928  1.00  0.00     0.096 A 
HETATM   24  C   UNL     1     -40.456  53.451 -50.209  1.00  0.00     0.054 A 
HETATM   25  C   UNL     1     -40.480  53.021 -51.549  1.00  0.00     0.014 A 
HETATM   26  C   UNL     1     -40.961  53.895 -52.518  1.00  0.00     0.089 A 
HETATM   27  C   UNL     1     -40.093  51.838 -52.247  1.00  0.00     0.011 A 
HETATM   28  O   UNL     1     -40.918  53.315 -53.749  1.00  0.00    -0.309 OA
HETATM   29  C   UNL     1     -41.401  55.196 -52.266  1.00  0.00     0.070 A 
HETATM   30  C   UNL     1     -40.386  52.073 -53.587  1.00  0.00     0.087 A 
HETATM   31  C   UNL     1     -40.153  51.157 -54.610  1.00  0.00     0.038 A 
HETATM   32  C   UNL     1     -39.578  49.937 -54.240  1.00  0.00     0.003 A 
HETATM   33  C   UNL     1     -39.262  49.664 -52.906  1.00  0.00     0.001 A 
HETATM   34  C   UNL     1     -39.516  50.603 -51.896  1.00  0.00     0.015 A 
BRANCH  23  35
HETATM   35  O   UNL     1     -40.891  55.242 -48.640  1.00  0.00    -0.354 OA
HETATM   36  C   UNL     1     -40.503  54.233 -47.704  1.00  0.00     0.210 C 
ENDBRANCH  23  35
ENDBRANCH   2  22
TORSDOF 7
ENDMDL
MODEL 4
REMARK VINA RESULT:      -8.6      3.438      5.731
REMARK  7 active torsions:
REMARK  status: ('A' for Active; 'I' for Inactive)
REMARK    1  A    between atoms: N_2  and  C_4 
REMARK    2  A    between atoms: N_2  and  C_23 
REMARK    3  A    between atoms: C_4  and  C_5 
REMARK       I    between atoms: C_5  and  N_6 
REMARK    4  A    between atoms: N_6  and  C_7 
REMARK    5  A    between atoms: C_8  and  O_9 
REMARK    6  A    between atoms: C_23  and  C_24 
REMARK       I    between atoms: C_24  and  N_25 
REMARK    7  A    between atoms: N_25  and  C_26 
ROOT
HETATM    1  C   UNL     1     -43.527  56.587 -57.929  1.00  0.00     0.248 C 
HETATM    2  N   UNL     1     -43.837  56.569 -56.597  1.00  0.00    -0.323 N 
HETATM    3  O   UNL     1     -42.883  55.744 -58.557  1.00  0.00    -0.271 OA
HETATM    4  H   UNL     1     -44.625  57.120 -56.256  1.00  0.00     0.169 HD
ENDROOT
BRANCH   1   5
HETATM    5  C   UNL     1     -44.117  57.755 -58.725  1.00  0.00     0.337 C 
BRANCH   5   6
HETATM    6  N   UNL     1     -44.517  58.868 -57.736  1.00  0.00    -0.058 N 
HETATM    7  C   UNL     1     -45.944  59.280 -57.881  1.00  0.00     0.270 C 
HETATM    8  H   UNL     1     -44.421  58.394 -56.818  1.00  0.00     0.280 HD
BRANCH   6   9
HETATM    9  C   UNL     1     -43.564  60.062 -57.722  1.00  0.00     0.337 C 
BRANCH   9  10
HETATM   10  C   UNL     1     -42.555  60.067 -56.568  1.00  0.00     0.248 C 
HETATM   11  N   UNL     1     -43.042  59.595 -55.364  1.00  0.00    -0.326 N 
HETATM   12  H   UNL     1     -43.940  59.122 -55.351  1.00  0.00     0.169 HD
HETATM   13  O   UNL     1     -41.386  60.376 -56.799  1.00  0.00    -0.271 OA
BRANCH  11  14
HETATM   14  C   UNL     1     -42.341  59.580 -54.136  1.00  0.00     0.036 A 
HETATM   15  C   UNL     1     -42.689  60.368 -53.035  1.00  0.00     0.055 A 
HETATM   16  C   UNL     1     -41.960  60.287 -51.840  1.00  0.00     0.058 A 
HETATM   17 CL   UNL     1     -42.463  61.294 -50.528  1.00  0.00    -0.082 Cl
HETATM   18  C   UNL     1     -40.875  59.412 -51.737  1.00  0.00     0.055 A 
HETATM   19 CL   UNL     1     -39.933  59.263 -50.300  1.00  0.00    -0.083 Cl
HETATM   20  C   UNL     1     -40.529  58.619 -52.832  1.00  0.00     0.028 A 
HETATM   21  C   UNL     1     -41.261  58.697 -54.022  1.00  0.00     0.031 A 
ENDBRANCH  11  14
ENDBRANCH   9  10
ENDBRANCH   6   9
ENDBRANCH   5   6
ENDBRANCH   1   5
BRANCH   2  22
HETATM   22  C   UNL     1     -43.278  55.735 -55.603  1.00  0.00     0.071 A 
HETATM   23  C   UNL     1     -43.686  55.984 -54.279  1.00  0.00     0.096 A 
HETATM   24  C   UNL     1     -43.118  55.316 -53.184  1.00  0.00     0.054 A 
HETATM   25  C   UNL     1     -42.135  54.343 -53.445  1.00  0.00     0.014 A 
HETATM   26  C   UNL     1     -41.793  54.082 -54.767  1.00  0.00     0.089 A 
HETATM   27  C   UNL     1     -41.307  53.492 -52.653  1.00  0.00     0.011 A 
HETATM   28  O   UNL     1     -40.837  53.115 -54.833  1.00  0.00    -0.309 OA
HETATM   29  C   UNL     1     -42.335  54.741 -55.873  1.00  0.00     0.070 A 
HETATM   30  C   UNL     1     -40.538  52.763 -53.553  1.00  0.00     0.087 A 
HETATM   31  C   UNL     1     -39.588  51.814 -53.181  1.00  0.00     0.038 A 
HETATM   32  C   UNL     1     -39.412  51.609 -51.808  1.00  0.00     0.003 A 
HETATM   33  C   UNL     1     -40.161  52.326 -50.870  1.00  0.00     0.001 A 
HETATM   34  C   UNL     1     -41.115  53.270 -51.276  1.00  0.00     0.015 A 
BRANCH  23  35
HETATM   35  O   UNL     1     -44.643  56.960 -54.096  1.00  0.00    -0.354 OA
HETATM   36  C   UNL     1     -44.650  57.432 -52.745  1.00  0.00     0.210 C 
ENDBRANCH  23  35
ENDBRANCH   2  22
TORSDOF 7
ENDMDL
MODEL 5
REMARK VINA RESULT:      -8.5      4.920      6.839
REMARK  7 active torsions:
REMARK  status: ('A' for Active; 'I' for Inactive)
REMARK    1  A    between atoms: N_2  and  C_4 
REMARK    2  A    between atoms: N_2  and  C_23 
REMARK    3  A    between atoms: C_4  and  C_5 
REMARK       I    between atoms: C_5  and  N_6 
REMARK    4  A    between atoms: N_6  and  C_7 
REMARK    5  A    between atoms: C_8  and  O_9 
REMARK    6  A    between atoms: C_23  and  C_24 
REMARK       I    between atoms: C_24  and  N_25 
REMARK    7  A    between atoms: N_25  and  C_26 
ROOT
HETATM    1  C   UNL     1     -43.389  57.539 -53.635  1.00  0.00     0.248 C 
HETATM    2  N   UNL     1     -42.061  57.214 -53.657  1.00  0.00    -0.323 N 
HETATM    3  O   UNL     1     -44.338  56.788 -53.400  1.00  0.00    -0.271 OA
HETATM    4  H   UNL     1     -41.361  57.946 -53.537  1.00  0.00     0.169 HD
ENDROOT
BRANCH   1   5
HETATM    5  C   UNL     1     -43.706  59.021 -53.855  1.00  0.00     0.337 C 
BRANCH   5   6
HETATM    6  N   UNL     1     -44.723  59.468 -52.786  1.00  0.00    -0.058 N 
HETATM    7  C   UNL     1     -45.423  60.734 -53.152  1.00  0.00     0.270 C 
HETATM    8  H   UNL     1     -45.424  58.704 -52.814  1.00  0.00     0.280 HD
BRANCH   6   9
HETATM    9  C   UNL     1     -44.160  59.501 -51.366  1.00  0.00     0.337 C 
BRANCH   9  10
HETATM   10  C   UNL     1     -45.152  59.958 -50.290  1.00  0.00     0.248 C 
HETATM   11  N   UNL     1     -44.930  61.228 -49.793  1.00  0.00    -0.326 N 
HETATM   12  H   UNL     1     -44.268  61.832 -50.271  1.00  0.00     0.169 HD
HETATM   13  O   UNL     1     -46.114  59.239 -50.023  1.00  0.00    -0.271 OA
BRANCH  11  14
HETATM   14  C   UNL     1     -45.647  61.842 -48.739  1.00  0.00     0.036 A 
HETATM   15  C   UNL     1     -46.783  62.632 -48.932  1.00  0.00     0.055 A 
HETATM   16  C   UNL     1     -47.457  63.194 -47.838  1.00  0.00     0.058 A 
HETATM   17 CL   UNL     1     -48.856  64.153 -48.168  1.00  0.00    -0.082 Cl
HETATM   18  C   UNL     1     -46.996  62.967 -46.539  1.00  0.00     0.055 A 
HETATM   19 CL   UNL     1     -47.771  63.629 -45.147  1.00  0.00    -0.083 Cl
HETATM   20  C   UNL     1     -45.865  62.173 -46.342  1.00  0.00     0.028 A 
HETATM   21  C   UNL     1     -45.198  61.608 -47.435  1.00  0.00     0.031 A 
ENDBRANCH  11  14
ENDBRANCH   9  10
ENDBRANCH   6   9
ENDBRANCH   5   6
ENDBRANCH   1   5
BRANCH   2  22
HETATM   22  C   UNL     1     -41.501  55.917 -53.678  1.00  0.00     0.071 A 
HETATM   23  C   UNL     1     -41.385  55.308 -54.942  1.00  0.00     0.096 A 
HETATM   24  C   UNL     1     -40.964  53.979 -55.095  1.00  0.00     0.054 A 
HETATM   25  C   UNL     1     -40.617  53.261 -53.935  1.00  0.00     0.014 A 
HETATM   26  C   UNL     1     -40.691  53.908 -52.706  1.00  0.00     0.089 A 
HETATM   27  C   UNL     1     -40.194  51.928 -53.649  1.00  0.00     0.011 A 
HETATM   28  O   UNL     1     -40.316  53.070 -51.701  1.00  0.00    -0.309 OA
HETATM   29  C   UNL     1     -41.117  55.226 -52.527  1.00  0.00     0.070 A 
HETATM   30  C   UNL     1     -40.022  51.870 -52.270  1.00  0.00     0.087 A 
HETATM   31  C   UNL     1     -39.614  50.730 -51.581  1.00  0.00     0.038 A 
HETATM   32  C   UNL     1     -39.379  49.585 -52.348  1.00  0.00     0.003 A 
HETATM   33  C   UNL     1     -39.546  49.599 -53.736  1.00  0.00     0.001 A 
HETATM   34  C   UNL     1     -39.950  50.764 -54.403  1.00  0.00     0.015 A 
BRANCH  23  35
HETATM   35  O   UNL     1     -41.755  56.065 -56.034  1.00  0.00    -0.354 OA
HETATM   36  C   UNL     1     -42.830  55.450 -56.750  1.00  0.00     0.210 C 
ENDBRANCH  23  35
ENDBRANCH   2  22
TORSDOF 7
ENDMDL
MODEL 6
REMARK VINA RESULT:      -8.2      4.243      8.856
REMARK  7 active torsions:
REMARK  status: ('A' for Active; 'I' for Inactive)
REMARK    1  A    between atoms: N_2  and  C_4 
REMARK    2  A    between atoms: N_2  and  C_23 
REMARK    3  A    between atoms: C_4  and  C_5 
REMARK       I    between atoms: C_5  and  N_6 
REMARK    4  A    between atoms: N_6  and  C_7 
REMARK    5  A    between atoms: C_8  and  O_9 
REMARK    6  A    between atoms: C_23  and  C_24 
REMARK       I    between atoms: C_24  and  N_25 
REMARK    7  A    between atoms: N_25  and  C_26 
ROOT
HETATM    1  C   UNL     1     -43.942  57.518 -54.749  1.00  0.00     0.248 C 
HETATM    2  N   UNL     1     -43.037  57.376 -55.764  1.00  0.00    -0.323 N 
HETATM    3  O   UNL     1     -44.845  58.353 -54.665  1.00  0.00    -0.271 OA
HETATM    4  H   UNL     1     -42.562  56.482 -55.893  1.00  0.00     0.169 HD
ENDROOT
BRANCH   1   5
HETATM    5  C   UNL     1     -43.853  56.468 -53.638  1.00  0.00     0.337 C 
BRANCH   5   6
HETATM    6  N   UNL     1     -43.495  57.181 -52.319  1.00  0.00    -0.058 N 
HETATM    7  C   UNL     1     -42.410  58.192 -52.488  1.00  0.00     0.270 C 
HETATM    8  H   UNL     1     -44.369  57.694 -52.099  1.00  0.00     0.280 HD
BRANCH   6   9
HETATM    9  C   UNL     1     -43.231  56.233 -51.149  1.00  0.00     0.337 C 
BRANCH   9  10
HETATM   10  C   UNL     1     -42.824  54.811 -51.551  1.00  0.00     0.248 C 
HETATM   11  N   UNL     1     -41.502  54.666 -51.926  1.00  0.00    -0.326 N 
HETATM   12  H   UNL     1     -40.856  55.430 -51.748  1.00  0.00     0.169 HD
HETATM   13  O   UNL     1     -43.637  53.898 -51.417  1.00  0.00    -0.271 OA
BRANCH  11  14
HETATM   14  C   UNL     1     -40.906  53.482 -52.420  1.00  0.00     0.036 A 
HETATM   15  C   UNL     1     -40.379  52.480 -51.601  1.00  0.00     0.055 A 
HETATM   16  C   UNL     1     -39.820  51.322 -52.160  1.00  0.00     0.058 A 
HETATM   17 CL   UNL     1     -39.196  50.131 -51.073  1.00  0.00    -0.082 Cl
HETATM   18  C   UNL     1     -39.786  51.158 -53.547  1.00  0.00     0.055 A 
HETATM   19 CL   UNL     1     -39.111  49.762 -54.303  1.00  0.00    -0.083 Cl
HETATM   20  C   UNL     1     -40.317  52.154 -54.368  1.00  0.00     0.028 A 
HETATM   21  C   UNL     1     -40.880  53.306 -53.807  1.00  0.00     0.031 A 
ENDBRANCH  11  14
ENDBRANCH   9  10
ENDBRANCH   6   9
ENDBRANCH   5   6
ENDBRANCH   1   5
BRANCH   2  22
HETATM   22  C   UNL     1     -42.766  58.297 -56.801  1.00  0.00     0.071 A 
HETATM   23  C   UNL     1     -43.264  57.966 -58.075  1.00  0.00     0.096 A 
HETATM   24  C   UNL     1     -42.963  58.726 -59.214  1.00  0.00     0.054 A 
HETATM   25  C   UNL     1     -42.163  59.873 -59.049  1.00  0.00     0.014 A 
HETATM   26  C   UNL     1     -41.732  60.202 -57.769  1.00  0.00     0.089 A 
HETATM   27  C   UNL     1     -41.610  60.863 -59.915  1.00  0.00     0.011 A 
HETATM   28  O   UNL     1     -40.980  61.337 -57.795  1.00  0.00    -0.309 OA
HETATM   29  C   UNL     1     -42.009  59.457 -56.621  1.00  0.00     0.070 A 
HETATM   30  C   UNL     1     -40.900  61.733 -59.094  1.00  0.00     0.087 A 
HETATM   31  C   UNL     1     -40.200  62.846 -59.554  1.00  0.00     0.038 A 
HETATM   32  C   UNL     1     -40.223  63.074 -60.934  1.00  0.00     0.003 A 
HETATM   33  C   UNL     1     -40.920  62.220 -61.794  1.00  0.00     0.001 A 
HETATM   34  C   UNL     1     -41.622  61.111 -61.301  1.00  0.00     0.015 A 
BRANCH  23  35
HETATM   35  O   UNL     1     -44.029  56.822 -58.166  1.00  0.00    -0.354 OA
HETATM   36  C   UNL     1     -44.748  56.777 -59.402  1.00  0.00     0.210 C 
ENDBRANCH  23  35
ENDBRANCH   2  22
TORSDOF 7
ENDMDL
MODEL 7
REMARK VINA RESULT:      -8.2      1.743      2.807
REMARK  7 active torsions:
REMARK  status: ('A' for Active; 'I' for Inactive)
REMARK    1  A    between atoms: N_2  and  C_4 
REMARK    2  A    between atoms: N_2  and  C_23 
REMARK    3  A    between atoms: C_4  and  C_5 
REMARK       I    between atoms: C_5  and  N_6 
REMARK    4  A    between atoms: N_6  and  C_7 
REMARK    5  A    between atoms: C_8  and  O_9 
REMARK    6  A    between atoms: C_23  and  C_24 
REMARK       I    between atoms: C_24  and  N_25 
REMARK    7  A    between atoms: N_25  and  C_26 
ROOT
HETATM    1  C   UNL     1     -42.304  57.723 -54.828  1.00  0.00     0.248 C 
HETATM    2  N   UNL     1     -41.242  57.234 -54.121  1.00  0.00    -0.323 N 
HETATM    3  O   UNL     1     -43.399  57.183 -55.001  1.00  0.00    -0.271 OA
HETATM    4  H   UNL     1     -40.530  57.877 -53.772  1.00  0.00     0.169 HD
ENDROOT
BRANCH   1   5
HETATM    5  C   UNL     1     -42.120  59.132 -55.400  1.00  0.00     0.337 C 
BRANCH   5   6
HETATM    6  N   UNL     1     -43.160  60.064 -54.748  1.00  0.00    -0.058 N 
HETATM    7  C   UNL     1     -43.531  59.634 -53.368  1.00  0.00     0.270 C 
HETATM    8  H   UNL     1     -42.638  60.957 -54.666  1.00  0.00     0.280 HD
BRANCH   6   9
HETATM    9  C   UNL     1     -44.382  60.343 -55.621  1.00  0.00     0.337 C 
BRANCH   9  10
HETATM   10  C   UNL     1     -44.364  59.660 -56.993  1.00  0.00     0.248 C 
HETATM   11  N   UNL     1     -45.045  58.460 -57.056  1.00  0.00    -0.326 N 
HETATM   12  H   UNL     1     -45.646  58.196 -56.282  1.00  0.00     0.169 HD
HETATM   13  O   UNL     1     -43.857  60.250 -57.946  1.00  0.00    -0.271 OA
BRANCH  11  14
HETATM   14  C   UNL     1     -45.102  57.598 -58.176  1.00  0.00     0.036 A 
HETATM   15  C   UNL     1     -46.231  57.453 -58.987  1.00  0.00     0.055 A 
HETATM   16  C   UNL     1     -46.210  56.594 -60.095  1.00  0.00     0.058 A 
HETATM   17 CL   UNL     1     -47.650  56.481 -61.045  1.00  0.00    -0.082 Cl
HETATM   18  C   UNL     1     -45.054  55.872 -60.401  1.00  0.00     0.055 A 
HETATM   19 CL   UNL     1     -44.958  54.796 -61.745  1.00  0.00    -0.083 Cl
HETATM   20  C   UNL     1     -43.922  56.019 -59.598  1.00  0.00     0.028 A 
HETATM   21  C   UNL     1     -43.943  56.882 -58.496  1.00  0.00     0.031 A 
ENDBRANCH  11  14
ENDBRANCH   9  10
ENDBRANCH   6   9
ENDBRANCH   5   6
ENDBRANCH   1   5
BRANCH   2  22
HETATM   22  C   UNL     1     -41.062  55.911 -53.657  1.00  0.00     0.071 A 
HETATM   23  C   UNL     1     -41.121  55.726 -52.263  1.00  0.00     0.096 A 
HETATM   24  C   UNL     1     -40.837  54.492 -51.661  1.00  0.00     0.054 A 
HETATM   25  C   UNL     1     -40.519  53.407 -52.501  1.00  0.00     0.014 A 
HETATM   26  C   UNL     1     -40.523  53.610 -53.876  1.00  0.00     0.089 A 
HETATM   27  C   UNL     1     -40.143  52.044 -52.307  1.00  0.00     0.011 A 
HETATM   28  O   UNL     1     -40.202  52.459 -54.530  1.00  0.00    -0.309 OA
HETATM   29  C   UNL     1     -40.791  54.831 -54.499  1.00  0.00     0.070 A 
HETATM   30  C   UNL     1     -39.965  51.514 -53.581  1.00  0.00     0.087 A 
HETATM   31  C   UNL     1     -39.586  50.197 -53.833  1.00  0.00     0.038 A 
HETATM   32  C   UNL     1     -39.369  49.383 -52.717  1.00  0.00     0.003 A 
HETATM   33  C   UNL     1     -39.531  49.879 -51.420  1.00  0.00     0.001 A 
HETATM   34  C   UNL     1     -39.921  51.207 -51.197  1.00  0.00     0.015 A 
BRANCH  23  35
HETATM   35  O   UNL     1     -41.423  56.835 -51.500  1.00  0.00    -0.354 OA
HETATM   36  C   UNL     1     -41.335  56.542 -50.103  1.00  0.00     0.210 C 
ENDBRANCH  23  35
ENDBRANCH   2  22
TORSDOF 7
ENDMDL
MODEL 8
REMARK VINA RESULT:      -8.2      1.806      2.429
REMARK  7 active torsions:
REMARK  status: ('A' for Active; 'I' for Inactive)
REMARK    1  A    between atoms: N_2  and  C_4 
REMARK    2  A    between atoms: N_2  and  C_23 
REMARK    3  A    between atoms: C_4  and  C_5 
REMARK       I    between atoms: C_5  and  N_6 
REMARK    4  A    between atoms: N_6  and  C_7 
REMARK    5  A    between atoms: C_8  and  O_9 
REMARK    6  A    between atoms: C_23  and  C_24 
REMARK       I    between atoms: C_24  and  N_25 
REMARK    7  A    between atoms: N_25  and  C_26 
ROOT
HETATM    1  C   UNL     1     -43.445  57.788 -53.287  1.00  0.00     0.248 C 
HETATM    2  N   UNL     1     -42.209  57.426 -53.746  1.00  0.00    -0.323 N 
HETATM    3  O   UNL     1     -44.211  57.115 -52.593  1.00  0.00    -0.271 OA
HETATM    4  H   UNL     1     -41.542  58.147 -54.019  1.00  0.00     0.169 HD
ENDROOT
BRANCH   1   5
HETATM    5  C   UNL     1     -43.876  59.219 -53.621  1.00  0.00     0.337 C 
BRANCH   5   6
HETATM    6  N   UNL     1     -44.164  59.303 -55.133  1.00  0.00    -0.058 N 
HETATM    7  C   UNL     1     -44.703  60.633 -55.543  1.00  0.00     0.270 C 
HETATM    8  H   UNL     1     -43.217  59.209 -55.545  1.00  0.00     0.280 HD
BRANCH   6   9
HETATM    9  C   UNL     1     -45.000  58.143 -55.674  1.00  0.00     0.337 C 
BRANCH   9  10
HETATM   10  C   UNL     1     -45.218  58.159 -57.191  1.00  0.00     0.248 C 
HETATM   11  N   UNL     1     -46.532  58.014 -57.593  1.00  0.00    -0.326 N 
HETATM   12  H   UNL     1     -47.268  58.086 -56.897  1.00  0.00     0.169 HD
HETATM   13  O   UNL     1     -44.263  58.400 -57.928  1.00  0.00    -0.271 OA
BRANCH  11  14
HETATM   14  C   UNL     1     -46.983  57.909 -58.930  1.00  0.00     0.036 A 
HETATM   15  C   UNL     1     -47.448  58.993 -59.678  1.00  0.00     0.055 A 
HETATM   16  C   UNL     1     -47.861  58.819 -61.007  1.00  0.00     0.058 A 
HETATM   17 CL   UNL     1     -48.417  60.216 -61.860  1.00  0.00    -0.082 Cl
HETATM   18  C   UNL     1     -47.809  57.554 -61.598  1.00  0.00     0.055 A 
HETATM   19 CL   UNL     1     -48.303  57.266 -63.225  1.00  0.00    -0.083 Cl
HETATM   20  C   UNL     1     -47.338  56.470 -60.856  1.00  0.00     0.028 A 
HETATM   21  C   UNL     1     -46.921  56.647 -59.532  1.00  0.00     0.031 A 
ENDBRANCH  11  14
ENDBRANCH   9  10
ENDBRANCH   6   9
ENDBRANCH   5   6
ENDBRANCH   1   5
BRANCH   2  22
HETATM   22  C   UNL     1     -41.649  56.128 -53.754  1.00  0.00     0.071 A 
HETATM   23  C   UNL     1     -41.631  55.464 -54.995  1.00  0.00     0.096 A 
HETATM   24  C   UNL     1     -41.220  54.130 -55.121  1.00  0.00     0.054 A 
HETATM   25  C   UNL     1     -40.780  53.463 -53.962  1.00  0.00     0.014 A 
HETATM   26  C   UNL     1     -40.759  54.164 -52.761  1.00  0.00     0.089 A 
HETATM   27  C   UNL     1     -40.332  52.144 -53.652  1.00  0.00     0.011 A 
HETATM   28  O   UNL     1     -40.303  53.371 -51.753  1.00  0.00    -0.309 OA
HETATM   29  C   UNL     1     -41.174  55.489 -52.607  1.00  0.00     0.070 A 
HETATM   30  C   UNL     1     -40.052  52.146 -52.290  1.00  0.00     0.087 A 
HETATM   31  C   UNL     1     -39.588  51.038 -51.585  1.00  0.00     0.038 A 
HETATM   32  C   UNL     1     -39.411  49.859 -52.317  1.00  0.00     0.003 A 
HETATM   33  C   UNL     1     -39.687  49.813 -53.687  1.00  0.00     0.001 A 
HETATM   34  C   UNL     1     -40.145  50.948 -54.371  1.00  0.00     0.015 A 
BRANCH  23  35
HETATM   35  O   UNL     1     -42.088  56.173 -56.086  1.00  0.00    -0.354 OA
HETATM   36  C   UNL     1     -42.836  55.334 -56.972  1.00  0.00     0.210 C 
ENDBRANCH  23  35
ENDBRANCH   2  22
TORSDOF 7
ENDMDL
MODEL 9
REMARK VINA RESULT:      -8.0      3.501      3.974
REMARK  7 active torsions:
REMARK  status: ('A' for Active; 'I' for Inactive)
REMARK    1  A    between atoms: N_2  and  C_4 
REMARK    2  A    between atoms: N_2  and  C_23 
REMARK    3  A    between atoms: C_4  and  C_5 
REMARK       I    between atoms: C_5  and  N_6 
REMARK    4  A    between atoms: N_6  and  C_7 
REMARK    5  A    between atoms: C_8  and  O_9 
REMARK    6  A    between atoms: C_23  and  C_24 
REMARK       I    between atoms: C_24  and  N_25 
REMARK    7  A    between atoms: N_25  and  C_26 
ROOT
HETATM    1  C   UNL     1     -43.305  57.815 -53.023  1.00  0.00     0.248 C 
HETATM    2  N   UNL     1     -42.019  57.460 -53.322  1.00  0.00    -0.323 N 
HETATM    3  O   UNL     1     -44.192  57.092 -52.564  1.00  0.00    -0.271 OA
HETATM    4  H   UNL     1     -41.298  58.179 -53.380  1.00  0.00     0.169 HD
ENDROOT
BRANCH   1   5
HETATM    5  C   UNL     1     -43.639  59.297 -53.218  1.00  0.00     0.337 C 
BRANCH   5   6
HETATM    6  N   UNL     1     -43.739  59.581 -54.729  1.00  0.00    -0.058 N 
HETATM    7  C   UNL     1     -44.614  58.604 -55.441  1.00  0.00     0.270 C 
HETATM    8  H   UNL     1     -44.218  60.502 -54.751  1.00  0.00     0.280 HD
BRANCH   6   9
HETATM    9  C   UNL     1     -42.389  59.767 -55.420  1.00  0.00     0.337 C 
BRANCH   9  10
HETATM   10  C   UNL     1     -42.424  60.640 -56.680  1.00  0.00     0.248 C 
HETATM   11  N   UNL     1     -41.443  60.360 -57.611  1.00  0.00    -0.326 N 
HETATM   12  H   UNL     1     -40.893  59.514 -57.504  1.00  0.00     0.169 HD
HETATM   13  O   UNL     1     -43.353  61.433 -56.829  1.00  0.00    -0.271 OA
BRANCH  11  14
HETATM   14  C   UNL     1     -41.209  61.077 -58.808  1.00  0.00     0.036 A 
HETATM   15  C   UNL     1     -41.814  60.766 -60.029  1.00  0.00     0.055 A 
HETATM   16  C   UNL     1     -41.551  61.533 -61.173  1.00  0.00     0.058 A 
HETATM   17 CL   UNL     1     -42.346  61.080 -62.639  1.00  0.00    -0.082 Cl
HETATM   18  C   UNL     1     -40.678  62.622 -61.101  1.00  0.00     0.055 A 
HETATM   19 CL   UNL     1     -40.305  63.607 -62.468  1.00  0.00    -0.083 Cl
HETATM   20  C   UNL     1     -40.077  62.940 -59.883  1.00  0.00     0.028 A 
HETATM   21  C   UNL     1     -40.346  62.176 -58.741  1.00  0.00     0.031 A 
ENDBRANCH  11  14
ENDBRANCH   9  10
ENDBRANCH   6   9
ENDBRANCH   5   6
ENDBRANCH   1   5
BRANCH   2  22
HETATM   22  C   UNL     1     -41.497  56.150 -53.422  1.00  0.00     0.071 A 
HETATM   23  C   UNL     1     -41.496  55.576 -54.707  1.00  0.00     0.096 A 
HETATM   24  C   UNL     1     -41.124  54.242 -54.927  1.00  0.00     0.054 A 
HETATM   25  C   UNL     1     -40.707  53.482 -53.818  1.00  0.00     0.014 A 
HETATM   26  C   UNL     1     -40.668  54.095 -52.570  1.00  0.00     0.089 A 
HETATM   27  C   UNL     1     -40.299  52.132 -53.602  1.00  0.00     0.011 A 
HETATM   28  O   UNL     1     -40.239  53.220 -51.620  1.00  0.00    -0.309 OA
HETATM   29  C   UNL     1     -41.044  55.417 -52.323  1.00  0.00     0.070 A 
HETATM   30  C   UNL     1     -40.022  52.029 -52.243  1.00  0.00     0.087 A 
HETATM   31  C   UNL     1     -39.593  50.861 -51.618  1.00  0.00     0.038 A 
HETATM   32  C   UNL     1     -39.449  49.732 -52.432  1.00  0.00     0.003 A 
HETATM   33  C   UNL     1     -39.722  49.791 -53.801  1.00  0.00     0.001 A 
HETATM   34  C   UNL     1     -40.146  50.984 -54.404  1.00  0.00     0.015 A 
BRANCH  23  35
HETATM   35  O   UNL     1     -41.929  56.373 -55.745  1.00  0.00    -0.354 OA
HETATM   36  C   UNL     1     -42.714  55.625 -56.679  1.00  0.00     0.210 C 
ENDBRANCH  23  35
ENDBRANCH   2  22
TORSDOF 7
ENDMDL
MODEL 10
REMARK VINA RESULT:      -7.9      4.086      8.997
REMARK  7 active torsions:
REMARK  status: ('A' for Active; 'I' for Inactive)
REMARK    1  A    between atoms: N_2  and  C_4 
REMARK    2  A    between atoms: N_2  and  C_23 
REMARK    3  A    between atoms: C_4  and  C_5 
REMARK       I    between atoms: C_5  and  N_6 
REMARK    4  A    between atoms: N_6  and  C_7 
REMARK    5  A    between atoms: C_8  and  O_9 
REMARK    6  A    between atoms: C_23  and  C_24 
REMARK       I    between atoms: C_24  and  N_25 
REMARK    7  A    between atoms: N_25  and  C_26 
ROOT
HETATM    1  C   UNL     1     -44.196  58.255 -53.743  1.00  0.00     0.248 C 
HETATM    2  N   UNL     1     -45.154  59.176 -53.420  1.00  0.00    -0.323 N 
HETATM    3  O   UNL     1     -43.369  57.741 -52.986  1.00  0.00    -0.271 OA
HETATM    4  H   UNL     1     -45.971  59.284 -54.021  1.00  0.00     0.169 HD
ENDROOT
BRANCH   1   5
HETATM    5  C   UNL     1     -44.218  57.765 -55.194  1.00  0.00     0.337 C 
BRANCH   5   6
HETATM    6  N   UNL     1     -42.769  57.488 -55.639  1.00  0.00    -0.058 N 
HETATM    7  C   UNL     1     -42.200  58.593 -56.466  1.00  0.00     0.270 C 
HETATM    8  H   UNL     1     -42.257  57.480 -54.736  1.00  0.00     0.280 HD
BRANCH   6   9
HETATM    9  C   UNL     1     -42.564  56.116 -56.278  1.00  0.00     0.337 C 
BRANCH   9  10
HETATM   10  C   UNL     1     -42.399  54.960 -55.284  1.00  0.00     0.248 C 
HETATM   11  N   UNL     1     -41.097  54.700 -54.902  1.00  0.00    -0.326 N 
HETATM   12  H   UNL     1     -40.373  55.369 -55.143  1.00  0.00     0.169 HD
HETATM   13  O   UNL     1     -43.405  54.425 -54.820  1.00  0.00    -0.271 OA
BRANCH  11  14
HETATM   14  C   UNL     1     -40.675  53.637 -54.070  1.00  0.00     0.036 A 
HETATM   15  C   UNL     1     -40.306  52.377 -54.550  1.00  0.00     0.055 A 
HETATM   16  C   UNL     1     -39.877  51.374 -53.667  1.00  0.00     0.058 A 
HETATM   17 CL   UNL     1     -39.435  49.848 -54.347  1.00  0.00    -0.082 Cl
HETATM   18  C   UNL     1     -39.814  51.628 -52.295  1.00  0.00     0.055 A 
HETATM   19 CL   UNL     1     -39.300  50.442 -51.152  1.00  0.00    -0.083 Cl
HETATM   20  C   UNL     1     -40.175  52.887 -51.813  1.00  0.00     0.028 A 
HETATM   21  C   UNL     1     -40.597  53.888 -52.696  1.00  0.00     0.031 A 
ENDBRANCH  11  14
ENDBRANCH   9  10
ENDBRANCH   6   9
ENDBRANCH   5   6
ENDBRANCH   1   5
BRANCH   2  22
HETATM   22  C   UNL     1     -45.242  59.932 -52.230  1.00  0.00     0.071 A 
HETATM   23  C   UNL     1     -44.863  61.285 -52.321  1.00  0.00     0.096 A 
HETATM   24  C   UNL     1     -44.784  62.115 -51.193  1.00  0.00     0.054 A 
HETATM   25  C   UNL     1     -45.134  61.566 -49.945  1.00  0.00     0.014 A 
HETATM   26  C   UNL     1     -45.557  60.242 -49.897  1.00  0.00     0.089 A 
HETATM   27  C   UNL     1     -45.156  62.032 -48.596  1.00  0.00     0.011 A 
HETATM   28  O   UNL     1     -45.859  59.883 -48.620  1.00  0.00    -0.309 OA
HETATM   29  C   UNL     1     -45.634  59.392 -51.003  1.00  0.00     0.070 A 
HETATM   30  C   UNL     1     -45.610  60.963 -47.831  1.00  0.00     0.087 A 
HETATM   31  C   UNL     1     -45.773  61.005 -46.448  1.00  0.00     0.038 A 
HETATM   32  C   UNL     1     -45.441  62.207 -45.815  1.00  0.00     0.003 A 
HETATM   33  C   UNL     1     -44.976  63.303 -46.547  1.00  0.00     0.001 A 
HETATM   34  C   UNL     1     -44.830  63.234 -47.939  1.00  0.00     0.015 A 
BRANCH  23  35
HETATM   35  O   UNL     1     -44.519  61.752 -53.572  1.00  0.00    -0.354 OA
HETATM   36  C   UNL     1     -43.116  62.021 -53.656  1.00  0.00     0.210 C 
ENDBRANCH  23  35
ENDBRANCH   2  22
TORSDOF 7
ENDMDL
