MODEL 1
REMARK VINA RESULT:      -8.6      0.000      0.000
REMARK  8 active torsions:
REMARK  status: ('A' for Active; 'I' for Inactive)
REMARK    1  A    between atoms: C_4  and  N_5 
REMARK    2  A    between atoms: C_7  and  C_8 
REMARK    3  A    between atoms: C_8  and  N_9 
REMARK       I    between atoms: N_9  and  C_10 
REMARK       I    between atoms: C_10  and  N_11 
REMARK    4  A    between atoms: N_11  and  C_12 
REMARK    5  A    between atoms: C_12  and  C_13 
REMARK    6  A    between atoms: C_13  and  N_14 
REMARK       I    between atoms: N_14  and  C_15 
REMARK    7  A    between atoms: C_15  and  C_16 
REMARK    8  A    between atoms: C_17  and  O_18 
ROOT
HETATM    1  N   UNL     1     -42.637  56.472 -51.818  1.00  0.00    -0.337 N 
HETATM    2  C   UNL     1     -42.555  55.584 -50.790  1.00  0.00     0.316 C 
HETATM    3  N   UNL     1     -41.458  55.810 -50.006  1.00  0.00    -0.342 N 
HETATM    4  O   UNL     1     -43.365  54.687 -50.596  1.00  0.00    -0.248 OA
HETATM    5  H   UNL     1     -42.142  57.351 -51.746  1.00  0.00     0.164 HD
HETATM    6  H   UNL     1     -40.693  56.313 -50.431  1.00  0.00     0.164 HD
ENDROOT
BRANCH   1   7
HETATM    7  C   UNL     1     -43.813  56.503 -52.658  1.00  0.00     0.185 C 
BRANCH   7   8
HETATM    8  C   UNL     1     -43.497  55.949 -54.014  1.00  0.00     0.074 A 
HETATM    9  N   UNL     1     -43.418  56.733 -55.101  1.00  0.00    -0.171 NA
HETATM   10  N   UNL     1     -43.097  55.894 -56.124  1.00  0.00    -0.245 N 
HETATM   11  C   UNL     1     -43.028  54.588 -55.688  1.00  0.00     0.121 A 
HETATM   12  C   UNL     1     -43.273  54.595 -54.337  1.00  0.00     0.050 A 
BRANCH  10  13
HETATM   13  C   UNL     1     -42.874  56.392 -57.438  1.00  0.00     0.058 A 
HETATM   14  C   UNL     1     -43.195  55.591 -58.545  1.00  0.00     0.031 A 
HETATM   15  C   UNL     1     -42.996  56.067 -59.843  1.00  0.00     0.002 A 
HETATM   16  C   UNL     1     -42.475  57.342 -60.046  1.00  0.00     0.000 A 
HETATM   17  C   UNL     1     -42.150  58.144 -58.954  1.00  0.00     0.002 A 
HETATM   18  C   UNL     1     -42.348  57.675 -57.651  1.00  0.00     0.031 A 
ENDBRANCH  10  13
ENDBRANCH   7   8
ENDBRANCH   1   7
BRANCH   3  19
HETATM   19  C   UNL     1     -41.131  54.921 -48.903  1.00  0.00     0.144 C 
BRANCH  19  20
HETATM   20  C   UNL     1     -39.810  54.175 -49.126  1.00  0.00     0.142 C 
BRANCH  20  21
HETATM   21  N   UNL     1     -39.742  53.533 -50.434  1.00  0.00    -0.355 N 
HETATM   22  C   UNL     1     -40.078  52.207 -50.593  1.00  0.00     0.254 C 
HETATM   23  O   UNL     1     -40.436  51.495 -49.657  1.00  0.00    -0.268 OA
HETATM   24  H   UNL     1     -39.604  54.134 -51.233  1.00  0.00     0.162 HD
BRANCH  22  25
HETATM   25  C   UNL     1     -40.030  51.626 -51.966  1.00  0.00     0.065 A 
HETATM   26  C   UNL     1     -39.644  50.285 -52.133  1.00  0.00     0.081 A 
HETATM   27  C   UNL     1     -39.591  49.709 -53.401  1.00  0.00     0.037 A 
HETATM   28  C   UNL     1     -39.906  50.470 -54.523  1.00  0.00     0.003 A 
HETATM   29  C   UNL     1     -40.270  51.808 -54.378  1.00  0.00     0.001 A 
HETATM   30  C   UNL     1     -40.329  52.388 -53.106  1.00  0.00     0.020 A 
BRANCH  26  31
HETATM   31  O   UNL     1     -39.298  49.466 -51.089  1.00  0.00    -0.360 OA
HETATM   32  H   UNL     1     -40.027  49.499 -50.427  1.00  0.00     0.217 HD
ENDBRANCH  26  31
ENDBRANCH  22  25
ENDBRANCH  20  21
ENDBRANCH  19  20
ENDBRANCH   3  19
TORSDOF 8
ENDMDL
MODEL 2
REMARK VINA RESULT:      -8.3      2.735      6.524
REMARK  8 active torsions:
REMARK  status: ('A' for Active; 'I' for Inactive)
REMARK    1  A    between atoms: C_4  and  N_5 
REMARK    2  A    between atoms: C_7  and  C_8 
REMARK    3  A    between atoms: C_8  and  N_9 
REMARK       I    between atoms: N_9  and  C_10 
REMARK       I    between atoms: C_10  and  N_11 
REMARK    4  A    between atoms: N_11  and  C_12 
REMARK    5  A    between atoms: C_12  and  C_13 
REMARK    6  A    between atoms: C_13  and  N_14 
REMARK       I    between atoms: N_14  and  C_15 
REMARK    7  A    between atoms: C_15  and  C_16 
REMARK    8  A    between atoms: C_17  and  O_18 
ROOT
HETATM    1  N   UNL     1     -43.968  55.786 -55.588  1.00  0.00    -0.337 N 
HETATM    2  C   UNL     1     -43.926  57.118 -55.308  1.00  0.00     0.316 C 
HETATM    3  N   UNL     1     -44.916  57.489 -54.441  1.00  0.00    -0.342 N 
HETATM    4  O   UNL     1     -43.104  57.890 -55.783  1.00  0.00    -0.248 OA
HETATM    5  H   UNL     1     -44.445  55.166 -54.947  1.00  0.00     0.164 HD
HETATM    6  H   UNL     1     -45.725  56.888 -54.393  1.00  0.00     0.164 HD
ENDROOT
BRANCH   1   7
HETATM    7  C   UNL     1     -42.906  55.171 -56.351  1.00  0.00     0.185 C 
BRANCH   7   8
HETATM    8  C   UNL     1     -41.827  54.678 -55.435  1.00  0.00     0.074 A 
HETATM    9  N   UNL     1     -41.787  53.407 -55.004  1.00  0.00    -0.171 NA
HETATM   10  N   UNL     1     -40.675  53.330 -54.223  1.00  0.00    -0.245 N 
HETATM   11  C   UNL     1     -40.053  54.557 -54.126  1.00  0.00     0.121 A 
HETATM   12  C   UNL     1     -40.767  55.438 -54.900  1.00  0.00     0.050 A 
BRANCH  10  13
HETATM   13  C   UNL     1     -40.278  52.097 -53.632  1.00  0.00     0.058 A 
HETATM   14  C   UNL     1     -39.911  52.067 -52.277  1.00  0.00     0.031 A 
HETATM   15  C   UNL     1     -39.533  50.865 -51.675  1.00  0.00     0.002 A 
HETATM   16  C   UNL     1     -39.515  49.687 -52.418  1.00  0.00     0.000 A 
HETATM   17  C   UNL     1     -39.875  49.707 -53.764  1.00  0.00     0.002 A 
HETATM   18  C   UNL     1     -40.257  50.908 -54.374  1.00  0.00     0.031 A 
ENDBRANCH  10  13
ENDBRANCH   7   8
ENDBRANCH   1   7
BRANCH   3  19
HETATM   19  C   UNL     1     -45.108  58.884 -54.078  1.00  0.00     0.144 C 
BRANCH  19  20
HETATM   20  C   UNL     1     -44.487  59.224 -52.718  1.00  0.00     0.142 C 
BRANCH  20  21
HETATM   21  N   UNL     1     -44.022  58.042 -52.002  1.00  0.00    -0.355 N 
HETATM   22  C   UNL     1     -42.694  57.676 -52.020  1.00  0.00     0.254 C 
HETATM   23  O   UNL     1     -41.840  58.305 -52.642  1.00  0.00    -0.268 OA
HETATM   24  H   UNL     1     -44.673  57.607 -51.364  1.00  0.00     0.162 HD
BRANCH  22  25
HETATM   25  C   UNL     1     -42.280  56.482 -51.229  1.00  0.00     0.065 A 
HETATM   26  C   UNL     1     -42.784  55.217 -51.577  1.00  0.00     0.081 A 
HETATM   27  C   UNL     1     -42.415  54.079 -50.861  1.00  0.00     0.037 A 
HETATM   28  C   UNL     1     -41.552  54.191 -49.775  1.00  0.00     0.003 A 
HETATM   29  C   UNL     1     -41.060  55.441 -49.402  1.00  0.00     0.001 A 
HETATM   30  C   UNL     1     -41.424  56.585 -50.121  1.00  0.00     0.020 A 
BRANCH  26  31
HETATM   31  O   UNL     1     -43.653  55.013 -52.618  1.00  0.00    -0.360 OA
HETATM   32  H   UNL     1     -43.125  54.985 -53.449  1.00  0.00     0.217 HD
ENDBRANCH  26  31
ENDBRANCH  22  25
ENDBRANCH  20  21
ENDBRANCH  19  20
ENDBRANCH   3  19
TORSDOF 8
ENDMDL
MODEL 3
REMARK VINA RESULT:      -8.3      3.425      7.854
REMARK  8 active torsions:
REMARK  status: ('A' for Active; 'I' for Inactive)
REMARK    1  A    between atoms: C_4  and  N_5 
REMARK    2  A    between atoms: C_7  and  C_8 
REMARK    3  A    between atoms: C_8  and  N_9 
REMARK       I    between atoms: N_9  and  C_10 
REMARK       I    between atoms: C_10  and  N_11 
REMARK    4  A    between atoms: N_11  and  C_12 
REMARK    5  A    between atoms: C_12  and  C_13 
REMARK    6  A    between atoms: C_13  and  N_14 
REMARK       I    between atoms: N_14  and  C_15 
REMARK    7  A    between atoms: C_15  and  C_16 
REMARK    8  A    between atoms: C_17  and  O_18 
ROOT
HETATM    1  N   UNL     1     -42.210  57.716 -53.350  1.00  0.00    -0.337 N 
HETATM    2  C   UNL     1     -42.005  59.056 -53.477  1.00  0.00     0.316 C 
HETATM    3  N   UNL     1     -43.052  59.676 -54.100  1.00  0.00    -0.342 N 
HETATM    4  O   UNL     1     -40.999  59.633 -53.086  1.00  0.00    -0.248 OA
HETATM    5  H   UNL     1     -43.155  57.359 -53.398  1.00  0.00     0.164 HD
HETATM    6  H   UNL     1     -43.639  59.099 -54.682  1.00  0.00     0.164 HD
ENDROOT
BRANCH   1   7
HETATM    7  C   UNL     1     -41.296  56.912 -52.571  1.00  0.00     0.185 C 
BRANCH   7   8
HETATM    8  C   UNL     1     -40.959  55.650 -53.305  1.00  0.00     0.074 A 
HETATM    9  N   UNL     1     -40.679  54.506 -52.661  1.00  0.00    -0.171 NA
HETATM   10  N   UNL     1     -40.448  53.591 -53.642  1.00  0.00    -0.245 N 
HETATM   11  C   UNL     1     -40.533  54.173 -54.890  1.00  0.00     0.121 A 
HETATM   12  C   UNL     1     -40.867  55.491 -54.704  1.00  0.00     0.050 A 
BRANCH  10  13
HETATM   13  C   UNL     1     -40.170  52.232 -53.326  1.00  0.00     0.058 A 
HETATM   14  C   UNL     1     -40.236  51.260 -54.336  1.00  0.00     0.031 A 
HETATM   15  C   UNL     1     -39.954  49.923 -54.049  1.00  0.00     0.002 A 
HETATM   16  C   UNL     1     -39.607  49.545 -52.754  1.00  0.00     0.000 A 
HETATM   17  C   UNL     1     -39.542  50.502 -51.743  1.00  0.00     0.002 A 
HETATM   18  C   UNL     1     -39.822  51.844 -52.024  1.00  0.00     0.031 A 
ENDBRANCH  10  13
ENDBRANCH   7   8
ENDBRANCH   1   7
BRANCH   3  19
HETATM   19  C   UNL     1     -42.998  61.094 -54.418  1.00  0.00     0.144 C 
BRANCH  19  20
HETATM   20  C   UNL     1     -43.059  61.357 -55.927  1.00  0.00     0.142 C 
BRANCH  20  21
HETATM   21  N   UNL     1     -43.197  60.131 -56.705  1.00  0.00    -0.355 N 
HETATM   22  C   UNL     1     -42.164  59.668 -57.490  1.00  0.00     0.254 C 
HETATM   23  O   UNL     1     -41.090  60.257 -57.591  1.00  0.00    -0.268 OA
HETATM   24  H   UNL     1     -44.005  59.556 -56.515  1.00  0.00     0.162 HD
BRANCH  22  25
HETATM   25  C   UNL     1     -42.357  58.384 -58.224  1.00  0.00     0.065 A 
HETATM   26  C   UNL     1     -42.956  57.297 -57.563  1.00  0.00     0.081 A 
HETATM   27  C   UNL     1     -43.154  56.083 -58.219  1.00  0.00     0.037 A 
HETATM   28  C   UNL     1     -42.741  55.932 -59.540  1.00  0.00     0.003 A 
HETATM   29  C   UNL     1     -42.126  56.992 -60.203  1.00  0.00     0.001 A 
HETATM   30  C   UNL     1     -41.929  58.214 -59.550  1.00  0.00     0.020 A 
BRANCH  26  31
HETATM   31  O   UNL     1     -43.376  57.348 -56.259  1.00  0.00    -0.360 OA
HETATM   32  H   UNL     1     -42.811  56.732 -55.738  1.00  0.00     0.217 HD
ENDBRANCH  26  31
ENDBRANCH  22  25
ENDBRANCH  20  21
ENDBRANCH  19  20
ENDBRANCH   3  19
TORSDOF 8
ENDMDL
MODEL 4
REMARK VINA RESULT:      -8.2      2.482      7.297
REMARK  8 active torsions:
REMARK  status: ('A' for Active; 'I' for Inactive)
REMARK    1  A    between atoms: C_4  and  N_5 
REMARK    2  A    between atoms: C_7  and  C_8 
REMARK    3  A    between atoms: C_8  and  N_9 
REMARK       I    between atoms: N_9  and  C_10 
REMARK       I    between atoms: C_10  and  N_11 
REMARK    4  A    between atoms: N_11  and  C_12 
REMARK    5  A    between atoms: C_12  and  C_13 
REMARK    6  A    between atoms: C_13  and  N_14 
REMARK       I    between atoms: N_14  and  C_15 
REMARK    7  A    between atoms: C_15  and  C_16 
REMARK    8  A    between atoms: C_17  and  O_18 
ROOT
HETATM    1  N   UNL     1     -42.377  56.987 -50.614  1.00  0.00    -0.337 N 
HETATM    2  C   UNL     1     -42.665  57.504 -51.840  1.00  0.00     0.316 C 
HETATM    3  N   UNL     1     -43.983  57.847 -51.952  1.00  0.00    -0.342 N 
HETATM    4  O   UNL     1     -41.841  57.639 -52.734  1.00  0.00    -0.248 OA
HETATM    5  H   UNL     1     -42.995  57.188 -49.840  1.00  0.00     0.164 HD
HETATM    6  H   UNL     1     -44.626  57.386 -51.326  1.00  0.00     0.164 HD
ENDROOT
BRANCH   1   7
HETATM    7  C   UNL     1     -41.006  56.720 -50.242  1.00  0.00     0.185 C 
BRANCH   7   8
HETATM    8  C   UNL     1     -40.741  55.245 -50.257  1.00  0.00     0.074 A 
HETATM    9  N   UNL     1     -40.640  54.553 -51.403  1.00  0.00    -0.171 NA
HETATM   10  N   UNL     1     -40.380  53.272 -51.024  1.00  0.00    -0.245 N 
HETATM   11  C   UNL     1     -40.369  53.155 -49.650  1.00  0.00     0.121 A 
HETATM   12  C   UNL     1     -40.590  54.407 -49.133  1.00  0.00     0.050 A 
BRANCH  10  13
HETATM   13  C   UNL     1     -40.154  52.253 -51.992  1.00  0.00     0.058 A 
HETATM   14  C   UNL     1     -39.689  50.996 -51.576  1.00  0.00     0.031 A 
HETATM   15  C   UNL     1     -39.474  49.978 -52.509  1.00  0.00     0.002 A 
HETATM   16  C   UNL     1     -39.719  50.208 -53.861  1.00  0.00     0.000 A 
HETATM   17  C   UNL     1     -40.177  51.454 -54.284  1.00  0.00     0.002 A 
HETATM   18  C   UNL     1     -40.397  52.477 -53.355  1.00  0.00     0.031 A 
ENDBRANCH  10  13
ENDBRANCH   7   8
ENDBRANCH   1   7
BRANCH   3  19
HETATM   19  C   UNL     1     -44.523  58.336 -53.210  1.00  0.00     0.144 C 
BRANCH  19  20
HETATM   20  C   UNL     1     -44.924  57.197 -54.156  1.00  0.00     0.142 C 
BRANCH  20  21
HETATM   21  N   UNL     1     -44.412  57.384 -55.508  1.00  0.00    -0.355 N 
HETATM   22  C   UNL     1     -43.432  56.561 -56.018  1.00  0.00     0.254 C 
HETATM   23  O   UNL     1     -42.930  55.644 -55.370  1.00  0.00    -0.268 OA
HETATM   24  H   UNL     1     -44.916  58.024 -56.105  1.00  0.00     0.162 HD
BRANCH  22  25
HETATM   25  C   UNL     1     -42.987  56.780 -57.425  1.00  0.00     0.065 A 
HETATM   26  C   UNL     1     -43.243  55.791 -58.390  1.00  0.00     0.081 A 
HETATM   27  C   UNL     1     -42.844  55.965 -59.714  1.00  0.00     0.037 A 
HETATM   28  C   UNL     1     -42.168  57.122 -60.090  1.00  0.00     0.003 A 
HETATM   29  C   UNL     1     -41.887  58.104 -59.141  1.00  0.00     0.001 A 
HETATM   30  C   UNL     1     -42.290  57.936 -57.812  1.00  0.00     0.020 A 
BRANCH  26  31
HETATM   31  O   UNL     1     -43.885  54.613 -58.108  1.00  0.00    -0.360 OA
HETATM   32  H   UNL     1     -43.442  53.900 -58.623  1.00  0.00     0.217 HD
ENDBRANCH  26  31
ENDBRANCH  22  25
ENDBRANCH  20  21
ENDBRANCH  19  20
ENDBRANCH   3  19
TORSDOF 8
ENDMDL
MODEL 5
REMARK VINA RESULT:      -8.2      2.777      6.787
REMARK  8 active torsions:
REMARK  status: ('A' for Active; 'I' for Inactive)
REMARK    1  A    between atoms: C_4  and  N_5 
REMARK    2  A    between atoms: C_7  and  C_8 
REMARK    3  A    between atoms: C_8  and  N_9 
REMARK       I    between atoms: N_9  and  C_10 
REMARK       I    between atoms: C_10  and  N_11 
REMARK    4  A    between atoms: N_11  and  C_12 
REMARK    5  A    between atoms: C_12  and  C_13 
REMARK    6  A    between atoms: C_13  and  N_14 
REMARK       I    between atoms: N_14  and  C_15 
REMARK    7  A    between atoms: C_15  and  C_16 
REMARK    8  A    between atoms: C_17  and  O_18 
ROOT
HETATM    1  N   UNL     1     -42.400  57.767 -50.770  1.00  0.00    -0.337 N 
HETATM    2  C   UNL     1     -42.560  59.010 -51.301  1.00  0.00     0.316 C 
HETATM    3  N   UNL     1     -43.861  59.254 -51.646  1.00  0.00    -0.342 N 
HETATM    4  O   UNL     1     -41.647  59.810 -51.455  1.00  0.00    -0.248 OA
HETATM    5  H   UNL     1     -43.205  57.291 -50.385  1.00  0.00     0.164 HD
HETATM    6  H   UNL     1     -44.444  58.448 -51.812  1.00  0.00     0.164 HD
ENDROOT
BRANCH   1   7
HETATM    7  C   UNL     1     -41.133  57.383 -50.189  1.00  0.00     0.185 C 
BRANCH   7   8
HETATM    8  C   UNL     1     -40.976  55.893 -50.225  1.00  0.00     0.074 A 
HETATM    9  N   UNL     1     -40.750  55.229 -51.370  1.00  0.00    -0.171 NA
HETATM   10  N   UNL     1     -40.644  53.921 -51.009  1.00  0.00    -0.245 N 
HETATM   11  C   UNL     1     -40.854  53.763 -49.656  1.00  0.00     0.121 A 
HETATM   12  C   UNL     1     -41.062  55.013 -49.127  1.00  0.00     0.050 A 
BRANCH  10  13
HETATM   13  C   UNL     1     -40.345  52.917 -51.973  1.00  0.00     0.058 A 
HETATM   14  C   UNL     1     -40.552  53.184 -53.336  1.00  0.00     0.031 A 
HETATM   15  C   UNL     1     -40.251  52.218 -54.298  1.00  0.00     0.002 A 
HETATM   16  C   UNL     1     -39.745  50.980 -53.909  1.00  0.00     0.000 A 
HETATM   17  C   UNL     1     -39.539  50.704 -52.559  1.00  0.00     0.002 A 
HETATM   18  C   UNL     1     -39.836  51.668 -51.589  1.00  0.00     0.031 A 
ENDBRANCH  10  13
ENDBRANCH   7   8
ENDBRANCH   1   7
BRANCH   3  19
HETATM   19  C   UNL     1     -44.237  60.490 -52.314  1.00  0.00     0.144 C 
BRANCH  19  20
HETATM   20  C   UNL     1     -44.516  60.285 -53.808  1.00  0.00     0.142 C 
BRANCH  20  21
HETATM   21  N   UNL     1     -44.440  58.884 -54.205  1.00  0.00    -0.355 N 
HETATM   22  C   UNL     1     -43.279  58.355 -54.727  1.00  0.00     0.254 C 
HETATM   23  O   UNL     1     -42.262  59.024 -54.898  1.00  0.00    -0.268 OA
HETATM   24  H   UNL     1     -45.206  58.287 -53.930  1.00  0.00     0.162 HD
BRANCH  22  25
HETATM   25  C   UNL     1     -43.257  56.904 -55.070  1.00  0.00     0.065 A 
HETATM   26  C   UNL     1     -43.702  55.966 -54.123  1.00  0.00     0.081 A 
HETATM   27  C   UNL     1     -43.698  54.602 -54.411  1.00  0.00     0.037 A 
HETATM   28  C   UNL     1     -43.233  54.154 -55.645  1.00  0.00     0.003 A 
HETATM   29  C   UNL     1     -42.768  55.069 -56.588  1.00  0.00     0.001 A 
HETATM   30  C   UNL     1     -42.775  56.439 -56.304  1.00  0.00     0.020 A 
BRANCH  26  31
HETATM   31  O   UNL     1     -44.159  56.312 -52.877  1.00  0.00    -0.360 OA
HETATM   32  H   UNL     1     -44.002  55.547 -52.277  1.00  0.00     0.217 HD
ENDBRANCH  26  31
ENDBRANCH  22  25
ENDBRANCH  20  21
ENDBRANCH  19  20
ENDBRANCH   3  19
TORSDOF 8
ENDMDL
MODEL 6
REMARK VINA RESULT:      -8.1      3.021      6.039
REMARK  8 active torsions:
REMARK  status: ('A' for Active; 'I' for Inactive)
REMARK    1  A    between atoms: C_4  and  N_5 
REMARK    2  A    between atoms: C_7  and  C_8 
REMARK    3  A    between atoms: C_8  and  N_9 
REMARK       I    between atoms: N_9  and  C_10 
REMARK       I    between atoms: C_10  and  N_11 
REMARK    4  A    between atoms: N_11  and  C_12 
REMARK    5  A    between atoms: C_12  and  C_13 
REMARK    6  A    between atoms: C_13  and  N_14 
REMARK       I    between atoms: N_14  and  C_15 
REMARK    7  A    between atoms: C_15  and  C_16 
REMARK    8  A    between atoms: C_17  and  O_18 
ROOT
HETATM    1  N   UNL     1     -42.775  58.381 -54.867  1.00  0.00    -0.337 N 
HETATM    2  C   UNL     1     -42.182  59.311 -54.069  1.00  0.00     0.316 C 
HETATM    3  N   UNL     1     -43.059  59.841 -53.163  1.00  0.00    -0.342 N 
HETATM    4  O   UNL     1     -41.005  59.636 -54.157  1.00  0.00    -0.248 OA
HETATM    5  H   UNL     1     -43.628  57.939 -54.552  1.00  0.00     0.164 HD
HETATM    6  H   UNL     1     -44.039  59.782 -53.395  1.00  0.00     0.164 HD
ENDROOT
BRANCH   1   7
HETATM    7  C   UNL     1     -41.977  57.587 -55.774  1.00  0.00     0.185 C 
BRANCH   7   8
HETATM    8  C   UNL     1     -42.108  56.132 -55.441  1.00  0.00     0.074 A 
HETATM    9  N   UNL     1     -41.152  55.467 -54.773  1.00  0.00    -0.171 NA
HETATM   10  N   UNL     1     -41.626  54.198 -54.641  1.00  0.00    -0.245 N 
HETATM   11  C   UNL     1     -42.845  54.058 -55.268  1.00  0.00     0.121 A 
HETATM   12  C   UNL     1     -43.182  55.285 -55.784  1.00  0.00     0.050 A 
BRANCH  10  13
HETATM   13  C   UNL     1     -40.890  53.212 -53.925  1.00  0.00     0.058 A 
HETATM   14  C   UNL     1     -40.672  51.954 -54.508  1.00  0.00     0.031 A 
HETATM   15  C   UNL     1     -39.941  50.978 -53.827  1.00  0.00     0.002 A 
HETATM   16  C   UNL     1     -39.425  51.248 -52.562  1.00  0.00     0.000 A 
HETATM   17  C   UNL     1     -39.639  52.493 -51.973  1.00  0.00     0.002 A 
HETATM   18  C   UNL     1     -40.369  53.476 -52.650  1.00  0.00     0.031 A 
ENDBRANCH  10  13
ENDBRANCH   7   8
ENDBRANCH   1   7
BRANCH   3  19
HETATM   19  C   UNL     1     -42.654  60.917 -52.273  1.00  0.00     0.144 C 
BRANCH  19  20
HETATM   20  C   UNL     1     -42.224  60.402 -50.894  1.00  0.00     0.142 C 
BRANCH  20  21
HETATM   21  N   UNL     1     -42.512  58.985 -50.709  1.00  0.00    -0.355 N 
HETATM   22  C   UNL     1     -41.516  58.038 -50.810  1.00  0.00     0.254 C 
HETATM   23  O   UNL     1     -40.349  58.325 -51.071  1.00  0.00    -0.268 OA
HETATM   24  H   UNL     1     -43.421  58.746 -50.342  1.00  0.00     0.162 HD
BRANCH  22  25
HETATM   25  C   UNL     1     -41.872  56.611 -50.564  1.00  0.00     0.065 A 
HETATM   26  C   UNL     1     -42.887  56.013 -51.331  1.00  0.00     0.081 A 
HETATM   27  C   UNL     1     -43.243  54.680 -51.130  1.00  0.00     0.037 A 
HETATM   28  C   UNL     1     -42.602  53.930 -50.148  1.00  0.00     0.003 A 
HETATM   29  C   UNL     1     -41.608  54.514 -49.364  1.00  0.00     0.001 A 
HETATM   30  C   UNL     1     -41.244  55.850 -49.566  1.00  0.00     0.020 A 
BRANCH  26  31
HETATM   31  O   UNL     1     -43.585  56.678 -52.306  1.00  0.00    -0.360 OA
HETATM   32  H   UNL     1     -44.540  56.466 -52.188  1.00  0.00     0.217 HD
ENDBRANCH  26  31
ENDBRANCH  22  25
ENDBRANCH  20  21
ENDBRANCH  19  20
ENDBRANCH   3  19
TORSDOF 8
ENDMDL
MODEL 7
REMARK VINA RESULT:      -8.0      3.500      8.271
REMARK  8 active torsions:
REMARK  status: ('A' for Active; 'I' for Inactive)
REMARK    1  A    between atoms: C_4  and  N_5 
REMARK    2  A    between atoms: C_7  and  C_8 
REMARK    3  A    between atoms: C_8  and  N_9 
REMARK       I    between atoms: N_9  and  C_10 
REMARK       I    between atoms: C_10  and  N_11 
REMARK    4  A    between atoms: N_11  and  C_12 
REMARK    5  A    between atoms: C_12  and  C_13 
REMARK    6  A    between atoms: C_13  and  N_14 
REMARK       I    between atoms: N_14  and  C_15 
REMARK    7  A    between atoms: C_15  and  C_16 
REMARK    8  A    between atoms: C_17  and  O_18 
ROOT
HETATM    1  N   UNL     1     -41.693  57.863 -53.720  1.00  0.00    -0.337 N 
HETATM    2  C   UNL     1     -42.521  58.538 -54.565  1.00  0.00     0.316 C 
HETATM    3  N   UNL     1     -41.881  59.576 -55.184  1.00  0.00    -0.342 N 
HETATM    4  O   UNL     1     -43.697  58.252 -54.742  1.00  0.00    -0.248 OA
HETATM    5  H   UNL     1     -40.694  57.939 -53.850  1.00  0.00     0.164 HD
HETATM    6  H   UNL     1     -41.060  59.941 -54.725  1.00  0.00     0.164 HD
ENDROOT
BRANCH   1   7
HETATM    7  C   UNL     1     -42.135  56.634 -53.101  1.00  0.00     0.185 C 
BRANCH   7   8
HETATM    8  C   UNL     1     -41.350  55.474 -53.633  1.00  0.00     0.074 A 
HETATM    9  N   UNL     1     -41.213  54.331 -52.941  1.00  0.00    -0.171 NA
HETATM   10  N   UNL     1     -40.467  53.518 -53.739  1.00  0.00    -0.245 N 
HETATM   11  C   UNL     1     -40.098  54.167 -54.898  1.00  0.00     0.121 A 
HETATM   12  C   UNL     1     -40.657  55.420 -54.860  1.00  0.00     0.050 A 
BRANCH  10  13
HETATM   13  C   UNL     1     -40.165  52.184 -53.346  1.00  0.00     0.058 A 
HETATM   14  C   UNL     1     -40.230  51.153 -54.297  1.00  0.00     0.031 A 
HETATM   15  C   UNL     1     -39.923  49.839 -53.936  1.00  0.00     0.002 A 
HETATM   16  C   UNL     1     -39.554  49.544 -52.626  1.00  0.00     0.000 A 
HETATM   17  C   UNL     1     -39.490  50.560 -51.674  1.00  0.00     0.002 A 
HETATM   18  C   UNL     1     -39.794  51.878 -52.029  1.00  0.00     0.031 A 
ENDBRANCH  10  13
ENDBRANCH   7   8
ENDBRANCH   1   7
BRANCH   3  19
HETATM   19  C   UNL     1     -42.604  60.483 -56.061  1.00  0.00     0.144 C 
BRANCH  19  20
HETATM   20  C   UNL     1     -42.234  60.289 -57.536  1.00  0.00     0.142 C 
BRANCH  20  21
HETATM   21  N   UNL     1     -43.219  59.494 -58.262  1.00  0.00    -0.355 N 
HETATM   22  C   UNL     1     -43.129  58.120 -58.308  1.00  0.00     0.254 C 
HETATM   23  O   UNL     1     -42.222  57.494 -57.762  1.00  0.00    -0.268 OA
HETATM   24  H   UNL     1     -44.049  59.972 -58.580  1.00  0.00     0.162 HD
BRANCH  22  25
HETATM   25  C   UNL     1     -44.195  57.367 -59.029  1.00  0.00     0.065 A 
HETATM   26  C   UNL     1     -43.831  56.417 -59.998  1.00  0.00     0.081 A 
HETATM   27  C   UNL     1     -44.801  55.693 -60.689  1.00  0.00     0.037 A 
HETATM   28  C   UNL     1     -46.151  55.920 -60.434  1.00  0.00     0.003 A 
HETATM   29  C   UNL     1     -46.530  56.875 -59.492  1.00  0.00     0.001 A 
HETATM   30  C   UNL     1     -45.559  57.600 -58.793  1.00  0.00     0.020 A 
BRANCH  26  31
HETATM   31  O   UNL     1     -42.530  56.140 -60.329  1.00  0.00    -0.360 OA
HETATM   32  H   UNL     1     -41.972  56.332 -59.541  1.00  0.00     0.217 HD
ENDBRANCH  26  31
ENDBRANCH  22  25
ENDBRANCH  20  21
ENDBRANCH  19  20
ENDBRANCH   3  19
TORSDOF 8
ENDMDL
MODEL 8
REMARK VINA RESULT:      -7.9      3.630      9.268
REMARK  8 active torsions:
REMARK  status: ('A' for Active; 'I' for Inactive)
REMARK    1  A    between atoms: C_4  and  N_5 
REMARK    2  A    between atoms: C_7  and  C_8 
REMARK    3  A    between atoms: C_8  and  N_9 
REMARK       I    between atoms: N_9  and  C_10 
REMARK       I    between atoms: C_10  and  N_11 
REMARK    4  A    between atoms: N_11  and  C_12 
REMARK    5  A    between atoms: C_12  and  C_13 
REMARK    6  A    between atoms: C_13  and  N_14 
REMARK       I    between atoms: N_14  and  C_15 
REMARK    7  A    between atoms: C_15  and  C_16 
REMARK    8  A    between atoms: C_17  and  O_18 
ROOT
HETATM    1  N   UNL     1     -43.831  56.279 -55.869  1.00  0.00    -0.337 N 
HETATM    2  C   UNL     1     -43.158  56.540 -57.023  1.00  0.00     0.316 C 
HETATM    3  N   UNL     1     -43.689  55.865 -58.087  1.00  0.00    -0.342 N 
HETATM    4  O   UNL     1     -42.190  57.285 -57.096  1.00  0.00    -0.248 OA
HETATM    5  H   UNL     1     -44.777  55.926 -55.923  1.00  0.00     0.164 HD
HETATM    6  H   UNL     1     -44.226  55.037 -57.876  1.00  0.00     0.164 HD
ENDROOT
BRANCH   1   7
HETATM    7  C   UNL     1     -43.529  57.025 -54.668  1.00  0.00     0.185 C 
BRANCH   7   8
HETATM    8  C   UNL     1     -42.675  56.204 -53.749  1.00  0.00     0.074 A 
HETATM    9  N   UNL     1     -42.268  54.967 -54.073  1.00  0.00    -0.171 NA
HETATM   10  N   UNL     1     -41.509  54.554 -53.022  1.00  0.00    -0.245 N 
HETATM   11  C   UNL     1     -41.485  55.507 -52.025  1.00  0.00     0.121 A 
HETATM   12  C   UNL     1     -42.220  56.579 -52.468  1.00  0.00     0.050 A 
BRANCH  10  13
HETATM   13  C   UNL     1     -40.855  53.290 -53.041  1.00  0.00     0.058 A 
HETATM   14  C   UNL     1     -40.912  52.501 -54.201  1.00  0.00     0.031 A 
HETATM   15  C   UNL     1     -40.266  51.264 -54.245  1.00  0.00     0.002 A 
HETATM   16  C   UNL     1     -39.562  50.804 -53.135  1.00  0.00     0.000 A 
HETATM   17  C   UNL     1     -39.503  51.578 -51.978  1.00  0.00     0.002 A 
HETATM   18  C   UNL     1     -40.146  52.819 -51.927  1.00  0.00     0.031 A 
ENDBRANCH  10  13
ENDBRANCH   7   8
ENDBRANCH   1   7
BRANCH   3  19
HETATM   19  C   UNL     1     -43.066  55.931 -59.399  1.00  0.00     0.144 C 
BRANCH  19  20
HETATM   20  C   UNL     1     -43.634  57.067 -60.259  1.00  0.00     0.142 C 
BRANCH  20  21
HETATM   21  N   UNL     1     -42.752  58.227 -60.309  1.00  0.00    -0.355 N 
HETATM   22  C   UNL     1     -43.023  59.359 -59.572  1.00  0.00     0.254 C 
HETATM   23  O   UNL     1     -44.014  59.461 -58.851  1.00  0.00    -0.268 OA
HETATM   24  H   UNL     1     -41.861  58.105 -60.767  1.00  0.00     0.162 HD
BRANCH  22  25
HETATM   25  C   UNL     1     -42.054  60.491 -59.635  1.00  0.00     0.065 A 
HETATM   26  C   UNL     1     -41.363  60.871 -58.472  1.00  0.00     0.081 A 
HETATM   27  C   UNL     1     -40.448  61.922 -58.496  1.00  0.00     0.037 A 
HETATM   28  C   UNL     1     -40.223  62.621 -59.679  1.00  0.00     0.003 A 
HETATM   29  C   UNL     1     -40.916  62.271 -60.837  1.00  0.00     0.001 A 
HETATM   30  C   UNL     1     -41.832  61.213 -60.818  1.00  0.00     0.020 A 
BRANCH  26  31
HETATM   31  O   UNL     1     -41.533  60.255 -57.259  1.00  0.00    -0.360 OA
HETATM   32  H   UNL     1     -40.656  60.220 -56.814  1.00  0.00     0.217 HD
ENDBRANCH  26  31
ENDBRANCH  22  25
ENDBRANCH  20  21
ENDBRANCH  19  20
ENDBRANCH   3  19
TORSDOF 8
ENDMDL
MODEL 9
REMARK VINA RESULT:      -7.9      3.778      7.079
REMARK  8 active torsions:
REMARK  status: ('A' for Active; 'I' for Inactive)
REMARK    1  A    between atoms: C_4  and  N_5 
REMARK    2  A    between atoms: C_7  and  C_8 
REMARK    3  A    between atoms: C_8  and  N_9 
REMARK       I    between atoms: N_9  and  C_10 
REMARK       I    between atoms: C_10  and  N_11 
REMARK    4  A    between atoms: N_11  and  C_12 
REMARK    5  A    between atoms: C_12  and  C_13 
REMARK    6  A    between atoms: C_13  and  N_14 
REMARK       I    between atoms: N_14  and  C_15 
REMARK    7  A    between atoms: C_15  and  C_16 
REMARK    8  A    between atoms: C_17  and  O_18 
ROOT
HETATM    1  N   UNL     1     -44.577  60.319 -52.780  1.00  0.00    -0.337 N 
HETATM    2  C   UNL     1     -44.353  60.241 -54.121  1.00  0.00     0.316 C 
HETATM    3  N   UNL     1     -45.475  59.861 -54.804  1.00  0.00    -0.342 N 
HETATM    4  O   UNL     1     -43.275  60.477 -54.649  1.00  0.00    -0.248 OA
HETATM    5  H   UNL     1     -45.526  60.423 -52.448  1.00  0.00     0.164 HD
HETATM    6  H   UNL     1     -46.177  59.361 -54.280  1.00  0.00     0.164 HD
ENDROOT
BRANCH   1   7
HETATM    7  C   UNL     1     -43.563  60.865 -51.906  1.00  0.00     0.185 C 
BRANCH   7   8
HETATM    8  C   UNL     1     -42.684  59.770 -51.384  1.00  0.00     0.074 A 
HETATM    9  N   UNL     1     -43.008  58.474 -51.516  1.00  0.00    -0.171 NA
HETATM   10  N   UNL     1     -41.977  57.789 -50.950  1.00  0.00    -0.245 N 
HETATM   11  C   UNL     1     -41.041  58.652 -50.422  1.00  0.00     0.121 A 
HETATM   12  C   UNL     1     -41.465  59.929 -50.693  1.00  0.00     0.050 A 
BRANCH  10  13
HETATM   13  C   UNL     1     -41.952  56.365 -50.958  1.00  0.00     0.058 A 
HETATM   14  C   UNL     1     -43.121  55.656 -51.274  1.00  0.00     0.031 A 
HETATM   15  C   UNL     1     -43.114  54.259 -51.301  1.00  0.00     0.002 A 
HETATM   16  C   UNL     1     -41.944  53.562 -51.009  1.00  0.00     0.000 A 
HETATM   17  C   UNL     1     -40.779  54.258 -50.691  1.00  0.00     0.002 A 
HETATM   18  C   UNL     1     -40.779  55.657 -50.664  1.00  0.00     0.031 A 
ENDBRANCH  10  13
ENDBRANCH   7   8
ENDBRANCH   1   7
BRANCH   3  19
HETATM   19  C   UNL     1     -45.433  59.629 -56.239  1.00  0.00     0.144 C 
BRANCH  19  20
HETATM   20  C   UNL     1     -45.576  58.144 -56.595  1.00  0.00     0.142 C 
BRANCH  20  21
HETATM   21  N   UNL     1     -44.368  57.380 -56.308  1.00  0.00    -0.355 N 
HETATM   22  C   UNL     1     -44.204  56.737 -55.100  1.00  0.00     0.254 C 
HETATM   23  O   UNL     1     -45.045  56.780 -54.204  1.00  0.00    -0.268 OA
HETATM   24  H   UNL     1     -43.742  57.204 -57.080  1.00  0.00     0.162 HD
BRANCH  22  25
HETATM   25  C   UNL     1     -42.964  55.935 -54.890  1.00  0.00     0.065 A 
HETATM   26  C   UNL     1     -41.766  56.594 -54.564  1.00  0.00     0.081 A 
HETATM   27  C   UNL     1     -40.589  55.876 -54.358  1.00  0.00     0.037 A 
HETATM   28  C   UNL     1     -40.588  54.490 -54.491  1.00  0.00     0.003 A 
HETATM   29  C   UNL     1     -41.762  53.823 -54.835  1.00  0.00     0.001 A 
HETATM   30  C   UNL     1     -42.947  54.540 -55.039  1.00  0.00     0.020 A 
BRANCH  26  31
HETATM   31  O   UNL     1     -41.667  57.955 -54.430  1.00  0.00    -0.360 OA
HETATM   32  H   UNL     1     -42.455  58.265 -53.928  1.00  0.00     0.217 HD
ENDBRANCH  26  31
ENDBRANCH  22  25
ENDBRANCH  20  21
ENDBRANCH  19  20
ENDBRANCH   3  19
TORSDOF 8
ENDMDL
MODEL 10
REMARK VINA RESULT:      -7.9      3.338      7.544
REMARK  8 active torsions:
REMARK  status: ('A' for Active; 'I' for Inactive)
REMARK    1  A    between atoms: C_4  and  N_5 
REMARK    2  A    between atoms: C_7  and  C_8 
REMARK    3  A    between atoms: C_8  and  N_9 
REMARK       I    between atoms: N_9  and  C_10 
REMARK       I    between atoms: C_10  and  N_11 
REMARK    4  A    between atoms: N_11  and  C_12 
REMARK    5  A    between atoms: C_12  and  C_13 
REMARK    6  A    between atoms: C_13  and  N_14 
REMARK       I    between atoms: N_14  and  C_15 
REMARK    7  A    between atoms: C_15  and  C_16 
REMARK    8  A    between atoms: C_17  and  O_18 
ROOT
HETATM    1  N   UNL     1     -43.403  55.572 -55.793  1.00  0.00    -0.337 N 
HETATM    2  C   UNL     1     -43.603  56.919 -55.751  1.00  0.00     0.316 C 
HETATM    3  N   UNL     1     -44.827  57.237 -55.232  1.00  0.00    -0.342 N 
HETATM    4  O   UNL     1     -42.785  57.743 -56.137  1.00  0.00    -0.248 OA
HETATM    5  H   UNL     1     -43.955  54.977 -55.190  1.00  0.00     0.164 HD
HETATM    6  H   UNL     1     -45.539  56.523 -55.280  1.00  0.00     0.164 HD
ENDROOT
BRANCH   1   7
HETATM    7  C   UNL     1     -42.107  55.042 -56.150  1.00  0.00     0.185 C 
BRANCH   7   8
HETATM    8  C   UNL     1     -41.446  54.433 -54.950  1.00  0.00     0.074 A 
HETATM    9  N   UNL     1     -41.620  54.930 -53.715  1.00  0.00    -0.171 NA
HETATM   10  N   UNL     1     -40.895  54.117 -52.898  1.00  0.00    -0.245 N 
HETATM   11  C   UNL     1     -40.232  53.151 -53.625  1.00  0.00     0.121 A 
HETATM   12  C   UNL     1     -40.574  53.326 -54.943  1.00  0.00     0.050 A 
BRANCH  10  13
HETATM   13  C   UNL     1     -40.890  54.312 -51.488  1.00  0.00     0.058 A 
HETATM   14  C   UNL     1     -41.316  55.540 -50.959  1.00  0.00     0.031 A 
HETATM   15  C   UNL     1     -41.331  55.746 -49.578  1.00  0.00     0.002 A 
HETATM   16  C   UNL     1     -40.920  54.732 -48.716  1.00  0.00     0.000 A 
HETATM   17  C   UNL     1     -40.493  53.510 -49.232  1.00  0.00     0.002 A 
HETATM   18  C   UNL     1     -40.476  53.296 -50.615  1.00  0.00     0.031 A 
ENDBRANCH  10  13
ENDBRANCH   7   8
ENDBRANCH   1   7
BRANCH   3  19
HETATM   19  C   UNL     1     -45.281  58.618 -55.180  1.00  0.00     0.144 C 
BRANCH  19  20
HETATM   20  C   UNL     1     -45.196  59.207 -53.767  1.00  0.00     0.142 C 
BRANCH  20  21
HETATM   21  N   UNL     1     -43.821  59.388 -53.316  1.00  0.00    -0.355 N 
HETATM   22  C   UNL     1     -43.378  58.822 -52.141  1.00  0.00     0.254 C 
HETATM   23  O   UNL     1     -44.106  58.154 -51.409  1.00  0.00    -0.268 OA
HETATM   24  H   UNL     1     -43.173  59.796 -53.973  1.00  0.00     0.162 HD
BRANCH  22  25
HETATM   25  C   UNL     1     -41.948  59.009 -51.762  1.00  0.00     0.065 A 
HETATM   26  C   UNL     1     -40.941  58.626 -52.665  1.00  0.00     0.081 A 
HETATM   27  C   UNL     1     -39.595  58.789 -52.345  1.00  0.00     0.037 A 
HETATM   28  C   UNL     1     -39.233  59.324 -51.111  1.00  0.00     0.003 A 
HETATM   29  C   UNL     1     -40.219  59.690 -50.196  1.00  0.00     0.001 A 
HETATM   30  C   UNL     1     -41.572  59.532 -50.515  1.00  0.00     0.020 A 
BRANCH  26  31
HETATM   31  O   UNL     1     -41.201  58.074 -53.892  1.00  0.00    -0.360 OA
HETATM   32  H   UNL     1     -42.077  57.625 -53.841  1.00  0.00     0.217 HD
ENDBRANCH  26  31
ENDBRANCH  22  25
ENDBRANCH  20  21
ENDBRANCH  19  20
ENDBRANCH   3  19
TORSDOF 8
ENDMDL
