MODEL 1
REMARK VINA RESULT:      -8.2      0.000      0.000
REMARK  5 active torsions:
REMARK  status: ('A' for Active; 'I' for Inactive)
REMARK    1  A    between atoms: C_8  and  C_9 
REMARK    2  A    between atoms: N_10  and  N_11 
REMARK       I    between atoms: N_11  and  C_12 
REMARK    3  A    between atoms: C_12  and  C_13 
REMARK    4  A    between atoms: C_13  and  O_14 
REMARK    5  A    between atoms: O_14  and  C_15 
ROOT
HETATM    1  N   UNL     1     -42.559  56.043 -54.664  1.00  0.00    -0.246 N 
HETATM    2  C   UNL     1     -42.124  57.347 -54.866  1.00  0.00     0.261 C 
HETATM    3  O   UNL     1     -41.321  57.962 -54.168  1.00  0.00    -0.269 OA
HETATM    4  H   UNL     1     -43.025  55.589 -55.450  1.00  0.00     0.192 HD
ENDROOT
BRANCH   1   5
HETATM    5  N   UNL     1     -42.122  55.173 -53.695  1.00  0.00    -0.184 NA
HETATM    6  C   UNL     1     -41.042  54.491 -53.905  1.00  0.00     0.152 C 
BRANCH   6   7
HETATM    7  C   UNL     1     -40.580  53.549 -52.904  1.00  0.00     0.011 A 
HETATM    8  C   UNL     1     -40.264  52.166 -53.107  1.00  0.00     0.004 A 
HETATM    9  C   UNL     1     -40.297  51.304 -54.225  1.00  0.00     0.014 A 
HETATM   10  C   UNL     1     -39.849  51.646 -51.881  1.00  0.00     0.043 A 
HETATM   11  C   UNL     1     -39.915  49.966 -54.077  1.00  0.00     0.001 A 
HETATM   12  C   UNL     1     -39.502  49.480 -52.840  1.00  0.00     0.002 A 
HETATM   13  C   UNL     1     -39.461  50.311 -51.716  1.00  0.00     0.030 A 
HETATM   14  N   UNL     1     -39.914  52.670 -50.964  1.00  0.00    -0.364 N 
HETATM   15  H   UNL     1     -39.672  52.580 -49.987  1.00  0.00     0.165 HD
HETATM   16  C   UNL     1     -40.356  53.817 -51.566  1.00  0.00     0.102 A 
ENDBRANCH   6   7
ENDBRANCH   1   5
BRANCH   2  17
HETATM   17  C   UNL     1     -42.817  58.034 -56.042  1.00  0.00     0.280 C 
BRANCH  17  18
HETATM   18  O   UNL     1     -42.152  57.781 -57.275  1.00  0.00    -0.340 OA
BRANCH  18  19
HETATM   19  C   UNL     1     -42.859  57.100 -58.234  1.00  0.00     0.092 A 
HETATM   20  C   UNL     1     -43.171  57.797 -59.412  1.00  0.00     0.069 A 
HETATM   21 CL   UNL     1     -42.699  59.446 -59.628  1.00  0.00    -0.081 Cl
HETATM   22  C   UNL     1     -43.882  57.177 -60.444  1.00  0.00     0.052 A 
HETATM   23  C   UNL     1     -44.281  55.847 -60.313  1.00  0.00     0.057 A 
HETATM   24 CL   UNL     1     -45.157  55.136 -61.620  1.00  0.00    -0.082 Cl
HETATM   25  C   UNL     1     -43.966  55.138 -59.150  1.00  0.00     0.058 A 
HETATM   26 CL   UNL     1     -44.415  53.485 -58.923  1.00  0.00    -0.082 Cl
HETATM   27  C   UNL     1     -43.256  55.763 -58.115  1.00  0.00     0.064 A 
ENDBRANCH  18  19
ENDBRANCH  17  18
ENDBRANCH   2  17
TORSDOF 5
ENDMDL
MODEL 2
REMARK VINA RESULT:      -8.2      1.910      2.227
REMARK  5 active torsions:
REMARK  status: ('A' for Active; 'I' for Inactive)
REMARK    1  A    between atoms: C_8  and  C_9 
REMARK    2  A    between atoms: N_10  and  N_11 
REMARK       I    between atoms: N_11  and  C_12 
REMARK    3  A    between atoms: C_12  and  C_13 
REMARK    4  A    between atoms: C_13  and  O_14 
REMARK    5  A    between atoms: O_14  and  C_15 
ROOT
HETATM    1  N   UNL     1     -44.515  56.131 -54.482  1.00  0.00    -0.246 N 
HETATM    2  C   UNL     1     -44.658  57.513 -54.510  1.00  0.00     0.261 C 
HETATM    3  O   UNL     1     -44.154  58.313 -53.724  1.00  0.00    -0.269 OA
HETATM    4  H   UNL     1     -44.780  55.626 -55.327  1.00  0.00     0.192 HD
ENDROOT
BRANCH   1   5
HETATM    5  N   UNL     1     -43.728  55.405 -53.621  1.00  0.00    -0.184 NA
HETATM    6  C   UNL     1     -42.448  55.380 -53.812  1.00  0.00     0.152 C 
BRANCH   6   7
HETATM    7  C   UNL     1     -41.604  54.598 -52.928  1.00  0.00     0.011 A 
HETATM    8  C   UNL     1     -40.999  53.332 -53.218  1.00  0.00     0.004 A 
HETATM    9  C   UNL     1     -41.011  52.468 -54.335  1.00  0.00     0.014 A 
HETATM   10  C   UNL     1     -40.266  52.951 -52.093  1.00  0.00     0.043 A 
HETATM   11  C   UNL     1     -40.293  51.268 -54.288  1.00  0.00     0.001 A 
HETATM   12  C   UNL     1     -39.568  50.920 -53.152  1.00  0.00     0.002 A 
HETATM   13  C   UNL     1     -39.540  51.755 -52.031  1.00  0.00     0.030 A 
HETATM   14  N   UNL     1     -40.421  53.943 -51.153  1.00  0.00    -0.364 N 
HETATM   15  H   UNL     1     -40.000  53.934 -50.235  1.00  0.00     0.165 HD
HETATM   16  C   UNL     1     -41.227  54.936 -51.642  1.00  0.00     0.102 A 
ENDBRANCH   6   7
ENDBRANCH   1   5
BRANCH   2  17
HETATM   17  C   UNL     1     -45.610  57.994 -55.604  1.00  0.00     0.280 C 
BRANCH  17  18
HETATM   18  O   UNL     1     -44.912  58.433 -56.764  1.00  0.00    -0.340 OA
BRANCH  18  19
HETATM   19  C   UNL     1     -44.986  57.630 -57.874  1.00  0.00     0.092 A 
HETATM   20  C   UNL     1     -43.856  56.851 -58.174  1.00  0.00     0.069 A 
HETATM   21 CL   UNL     1     -42.434  56.925 -57.195  1.00  0.00    -0.081 Cl
HETATM   22  C   UNL     1     -43.847  56.000 -59.282  1.00  0.00     0.052 A 
HETATM   23  C   UNL     1     -44.974  55.908 -60.099  1.00  0.00     0.057 A 
HETATM   24 CL   UNL     1     -44.904  54.839 -61.453  1.00  0.00    -0.082 Cl
HETATM   25  C   UNL     1     -46.110  56.668 -59.803  1.00  0.00     0.058 A 
HETATM   26 CL   UNL     1     -47.547  56.595 -60.761  1.00  0.00    -0.082 Cl
HETATM   27  C   UNL     1     -46.116  57.524 -58.694  1.00  0.00     0.064 A 
ENDBRANCH  18  19
ENDBRANCH  17  18
ENDBRANCH   2  17
TORSDOF 5
ENDMDL
MODEL 3
REMARK VINA RESULT:      -8.1      2.139      3.168
REMARK  5 active torsions:
REMARK  status: ('A' for Active; 'I' for Inactive)
REMARK    1  A    between atoms: C_8  and  C_9 
REMARK    2  A    between atoms: N_10  and  N_11 
REMARK       I    between atoms: N_11  and  C_12 
REMARK    3  A    between atoms: C_12  and  C_13 
REMARK    4  A    between atoms: C_13  and  O_14 
REMARK    5  A    between atoms: O_14  and  C_15 
ROOT
HETATM    1  N   UNL     1     -41.583  57.657 -53.043  1.00  0.00    -0.246 N 
HETATM    2  C   UNL     1     -40.932  58.841 -53.370  1.00  0.00     0.261 C 
HETATM    3  O   UNL     1     -39.767  59.128 -53.105  1.00  0.00    -0.269 OA
HETATM    4  H   UNL     1     -42.454  57.462 -53.536  1.00  0.00     0.192 HD
ENDROOT
BRANCH   1   5
HETATM    5  N   UNL     1     -41.029  56.560 -52.430  1.00  0.00    -0.184 NA
HETATM    6  C   UNL     1     -41.385  55.378 -52.820  1.00  0.00     0.152 C 
BRANCH   6   7
HETATM    7  C   UNL     1     -40.830  54.207 -52.167  1.00  0.00     0.011 A 
HETATM    8  C   UNL     1     -40.489  52.960 -52.785  1.00  0.00     0.004 A 
HETATM    9  C   UNL     1     -40.572  52.461 -54.103  1.00  0.00     0.014 A 
HETATM   10  C   UNL     1     -39.979  52.125 -51.790  1.00  0.00     0.043 A 
HETATM   11  C   UNL     1     -40.143  51.157 -54.376  1.00  0.00     0.001 A 
HETATM   12  C   UNL     1     -39.635  50.351 -53.361  1.00  0.00     0.002 A 
HETATM   13  C   UNL     1     -39.543  50.820 -52.047  1.00  0.00     0.030 A 
HETATM   14  N   UNL     1     -40.012  52.833 -50.611  1.00  0.00    -0.364 N 
HETATM   15  H   UNL     1     -39.703  52.474 -49.719  1.00  0.00     0.165 HD
HETATM   16  C   UNL     1     -40.526  54.084 -50.824  1.00  0.00     0.102 A 
ENDBRANCH   6   7
ENDBRANCH   1   5
BRANCH   2  17
HETATM   17  C   UNL     1     -41.847  59.857 -54.053  1.00  0.00     0.280 C 
BRANCH  17  18
HETATM   18  O   UNL     1     -42.840  59.228 -54.855  1.00  0.00    -0.340 OA
BRANCH  18  19
HETATM   19  C   UNL     1     -42.565  59.095 -56.193  1.00  0.00     0.092 A 
HETATM   20  C   UNL     1     -42.789  57.833 -56.768  1.00  0.00     0.069 A 
HETATM   21 CL   UNL     1     -43.364  56.507 -55.819  1.00  0.00    -0.081 Cl
HETATM   22  C   UNL     1     -42.542  57.611 -58.125  1.00  0.00     0.052 A 
HETATM   23  C   UNL     1     -42.078  58.653 -58.928  1.00  0.00     0.057 A 
HETATM   24 CL   UNL     1     -41.792  58.318 -60.598  1.00  0.00    -0.082 Cl
HETATM   25  C   UNL     1     -41.864  59.917 -58.371  1.00  0.00     0.058 A 
HETATM   26 CL   UNL     1     -41.305  61.258 -59.307  1.00  0.00    -0.082 Cl
HETATM   27  C   UNL     1     -42.109  60.137 -57.008  1.00  0.00     0.064 A 
ENDBRANCH  18  19
ENDBRANCH  17  18
ENDBRANCH   2  17
TORSDOF 5
ENDMDL
MODEL 4
REMARK VINA RESULT:      -8.1      1.740      2.605
REMARK  5 active torsions:
REMARK  status: ('A' for Active; 'I' for Inactive)
REMARK    1  A    between atoms: C_8  and  C_9 
REMARK    2  A    between atoms: N_10  and  N_11 
REMARK       I    between atoms: N_11  and  C_12 
REMARK    3  A    between atoms: C_12  and  C_13 
REMARK    4  A    between atoms: C_13  and  O_14 
REMARK    5  A    between atoms: O_14  and  C_15 
ROOT
HETATM    1  N   UNL     1     -41.741  56.021 -56.138  1.00  0.00    -0.246 N 
HETATM    2  C   UNL     1     -42.494  57.186 -56.228  1.00  0.00     0.261 C 
HETATM    3  O   UNL     1     -42.913  57.856 -55.288  1.00  0.00    -0.269 OA
HETATM    4  H   UNL     1     -41.262  55.718 -56.986  1.00  0.00     0.192 HD
ENDROOT
BRANCH   1   5
HETATM    5  N   UNL     1     -41.261  55.442 -54.988  1.00  0.00    -0.184 NA
HETATM    6  C   UNL     1     -41.228  54.151 -54.903  1.00  0.00     0.152 C 
BRANCH   6   7
HETATM    7  C   UNL     1     -40.749  53.522 -53.686  1.00  0.00     0.011 A 
HETATM    8  C   UNL     1     -40.351  52.155 -53.526  1.00  0.00     0.004 A 
HETATM    9  C   UNL     1     -40.299  51.038 -54.389  1.00  0.00     0.014 A 
HETATM   10  C   UNL     1     -39.951  51.988 -52.200  1.00  0.00     0.043 A 
HETATM   11  C   UNL     1     -39.850  49.807 -53.899  1.00  0.00     0.001 A 
HETATM   12  C   UNL     1     -39.453  49.675 -52.571  1.00  0.00     0.002 A 
HETATM   13  C   UNL     1     -39.496  50.763 -51.695  1.00  0.00     0.030 A 
HETATM   14  N   UNL     1     -40.103  53.203 -51.575  1.00  0.00    -0.364 N 
HETATM   15  H   UNL     1     -39.890  53.378 -50.603  1.00  0.00     0.165 HD
HETATM   16  C   UNL     1     -40.586  54.132 -52.457  1.00  0.00     0.102 A 
ENDBRANCH   6   7
ENDBRANCH   1   5
BRANCH   2  17
HETATM   17  C   UNL     1     -42.857  57.553 -57.667  1.00  0.00     0.280 C 
BRANCH  17  18
HETATM   18  O   UNL     1     -43.419  56.452 -58.373  1.00  0.00    -0.340 OA
BRANCH  18  19
HETATM   19  C   UNL     1     -44.523  56.708 -59.146  1.00  0.00     0.092 A 
HETATM   20  C   UNL     1     -45.144  55.606 -59.757  1.00  0.00     0.069 A 
HETATM   21 CL   UNL     1     -44.523  54.006 -59.556  1.00  0.00    -0.081 Cl
HETATM   22  C   UNL     1     -46.278  55.776 -60.555  1.00  0.00     0.052 A 
HETATM   23  C   UNL     1     -46.814  57.050 -60.743  1.00  0.00     0.057 A 
HETATM   24 CL   UNL     1     -48.216  57.196 -61.740  1.00  0.00    -0.082 Cl
HETATM   25  C   UNL     1     -46.213  58.153 -60.129  1.00  0.00     0.058 A 
HETATM   26 CL   UNL     1     -46.828  59.759 -60.306  1.00  0.00    -0.082 Cl
HETATM   27  C   UNL     1     -45.073  57.982 -59.332  1.00  0.00     0.064 A 
ENDBRANCH  18  19
ENDBRANCH  17  18
ENDBRANCH   2  17
TORSDOF 5
ENDMDL
MODEL 5
REMARK VINA RESULT:      -7.9      1.863      2.191
REMARK  5 active torsions:
REMARK  status: ('A' for Active; 'I' for Inactive)
REMARK    1  A    between atoms: C_8  and  C_9 
REMARK    2  A    between atoms: N_10  and  N_11 
REMARK       I    between atoms: N_11  and  C_12 
REMARK    3  A    between atoms: C_12  and  C_13 
REMARK    4  A    between atoms: C_13  and  O_14 
REMARK    5  A    between atoms: O_14  and  C_15 
ROOT
HETATM    1  N   UNL     1     -41.593  57.556 -53.356  1.00  0.00    -0.246 N 
HETATM    2  C   UNL     1     -41.023  58.802 -53.588  1.00  0.00     0.261 C 
HETATM    3  O   UNL     1     -39.914  59.177 -53.212  1.00  0.00    -0.269 OA
HETATM    4  H   UNL     1     -42.398  57.307 -53.931  1.00  0.00     0.192 HD
ENDROOT
BRANCH   1   5
HETATM    5  N   UNL     1     -41.000  56.488 -52.730  1.00  0.00    -0.184 NA
HETATM    6  C   UNL     1     -41.475  55.300 -52.932  1.00  0.00     0.152 C 
BRANCH   6   7
HETATM    7  C   UNL     1     -40.878  54.162 -52.258  1.00  0.00     0.011 A 
HETATM    8  C   UNL     1     -40.525  52.905 -52.847  1.00  0.00     0.004 A 
HETATM    9  C   UNL     1     -40.631  52.363 -54.147  1.00  0.00     0.014 A 
HETATM   10  C   UNL     1     -39.972  52.112 -51.841  1.00  0.00     0.043 A 
HETATM   11  C   UNL     1     -40.180  51.061 -54.392  1.00  0.00     0.001 A 
HETATM   12  C   UNL     1     -39.628  50.298 -53.367  1.00  0.00     0.002 A 
HETATM   13  C   UNL     1     -39.513  50.808 -52.070  1.00  0.00     0.030 A 
HETATM   14  N   UNL     1     -39.990  52.854 -50.684  1.00  0.00    -0.364 N 
HETATM   15  H   UNL     1     -39.651  52.530 -49.789  1.00  0.00     0.165 HD
HETATM   16  C   UNL     1     -40.537  54.087 -50.921  1.00  0.00     0.102 A 
ENDBRANCH   6   7
ENDBRANCH   1   5
BRANCH   2  17
HETATM   17  C   UNL     1     -41.960  59.763 -54.319  1.00  0.00     0.280 C 
BRANCH  17  18
HETATM   18  O   UNL     1     -41.680  59.826 -55.713  1.00  0.00    -0.340 OA
BRANCH  18  19
HETATM   19  C   UNL     1     -42.550  59.176 -56.552  1.00  0.00     0.092 A 
HETATM   20  C   UNL     1     -43.561  59.950 -57.145  1.00  0.00     0.069 A 
HETATM   21 CL   UNL     1     -43.707  61.639 -56.811  1.00  0.00    -0.081 Cl
HETATM   22  C   UNL     1     -44.486  59.370 -58.018  1.00  0.00     0.052 A 
HETATM   23  C   UNL     1     -44.405  58.010 -58.317  1.00  0.00     0.057 A 
HETATM   24 CL   UNL     1     -45.576  57.352 -59.402  1.00  0.00    -0.082 Cl
HETATM   25  C   UNL     1     -43.395  57.232 -57.743  1.00  0.00     0.058 A 
HETATM   26 CL   UNL     1     -43.224  55.545 -58.077  1.00  0.00    -0.082 Cl
HETATM   27  C   UNL     1     -42.470  57.814 -56.865  1.00  0.00     0.064 A 
ENDBRANCH  18  19
ENDBRANCH  17  18
ENDBRANCH   2  17
TORSDOF 5
ENDMDL
MODEL 6
REMARK VINA RESULT:      -7.9      1.731      3.127
REMARK  5 active torsions:
REMARK  status: ('A' for Active; 'I' for Inactive)
REMARK    1  A    between atoms: C_8  and  C_9 
REMARK    2  A    between atoms: N_10  and  N_11 
REMARK       I    between atoms: N_11  and  C_12 
REMARK    3  A    between atoms: C_12  and  C_13 
REMARK    4  A    between atoms: C_13  and  O_14 
REMARK    5  A    between atoms: O_14  and  C_15 
ROOT
HETATM    1  N   UNL     1     -42.504  55.357 -55.261  1.00  0.00    -0.246 N 
HETATM    2  C   UNL     1     -43.339  56.456 -55.103  1.00  0.00     0.261 C 
HETATM    3  O   UNL     1     -43.947  56.767 -54.080  1.00  0.00    -0.269 OA
HETATM    4  H   UNL     1     -41.885  55.365 -56.071  1.00  0.00     0.192 HD
ENDROOT
BRANCH   1   5
HETATM    5  N   UNL     1     -42.143  54.455 -54.289  1.00  0.00    -0.184 NA
HETATM    6  C   UNL     1     -40.938  54.494 -53.815  1.00  0.00     0.152 C 
BRANCH   6   7
HETATM    7  C   UNL     1     -40.531  53.534 -52.807  1.00  0.00     0.011 A 
HETATM    8  C   UNL     1     -40.221  52.151 -53.016  1.00  0.00     0.004 A 
HETATM    9  C   UNL     1     -40.215  51.304 -54.146  1.00  0.00     0.014 A 
HETATM   10  C   UNL     1     -39.867  51.610 -51.779  1.00  0.00     0.043 A 
HETATM   11  C   UNL     1     -39.854  49.959 -53.999  1.00  0.00     0.001 A 
HETATM   12  C   UNL     1     -39.501  49.452 -52.752  1.00  0.00     0.002 A 
HETATM   13  C   UNL     1     -39.501  50.267 -51.617  1.00  0.00     0.030 A 
HETATM   14  N   UNL     1     -39.961  52.621 -50.852  1.00  0.00    -0.364 N 
HETATM   15  H   UNL     1     -39.763  52.516 -49.867  1.00  0.00     0.165 HD
HETATM   16  C   UNL     1     -40.363  53.781 -51.457  1.00  0.00     0.102 A 
ENDBRANCH   6   7
ENDBRANCH   1   5
BRANCH   2  17
HETATM   17  C   UNL     1     -43.527  57.256 -56.391  1.00  0.00     0.280 C 
BRANCH  17  18
HETATM   18  O   UNL     1     -42.384  57.179 -57.237  1.00  0.00    -0.340 OA
BRANCH  18  19
HETATM   19  C   UNL     1     -42.192  58.216 -58.116  1.00  0.00     0.092 A 
HETATM   20  C   UNL     1     -42.336  57.929 -59.483  1.00  0.00     0.069 A 
HETATM   21 CL   UNL     1     -42.718  56.333 -60.026  1.00  0.00    -0.081 Cl
HETATM   22  C   UNL     1     -42.165  58.927 -60.446  1.00  0.00     0.052 A 
HETATM   23  C   UNL     1     -41.858  60.230 -60.052  1.00  0.00     0.057 A 
HETATM   24 CL   UNL     1     -41.658  61.420 -61.287  1.00  0.00    -0.082 Cl
HETATM   25  C   UNL     1     -41.725  60.531 -58.693  1.00  0.00     0.058 A 
HETATM   26 CL   UNL     1     -41.360  62.124 -58.130  1.00  0.00    -0.082 Cl
HETATM   27  C   UNL     1     -41.893  59.528 -57.729  1.00  0.00     0.064 A 
ENDBRANCH  18  19
ENDBRANCH  17  18
ENDBRANCH   2  17
TORSDOF 5
ENDMDL
MODEL 7
REMARK VINA RESULT:      -7.5      3.530      4.857
REMARK  5 active torsions:
REMARK  status: ('A' for Active; 'I' for Inactive)
REMARK    1  A    between atoms: C_8  and  C_9 
REMARK    2  A    between atoms: N_10  and  N_11 
REMARK       I    between atoms: N_11  and  C_12 
REMARK    3  A    between atoms: C_12  and  C_13 
REMARK    4  A    between atoms: C_13  and  O_14 
REMARK    5  A    between atoms: O_14  and  C_15 
ROOT
HETATM    1  N   UNL     1     -41.615  57.672 -50.207  1.00  0.00    -0.246 N 
HETATM    2  C   UNL     1     -41.076  58.783 -50.844  1.00  0.00     0.261 C 
HETATM    3  O   UNL     1     -39.999  58.832 -51.434  1.00  0.00    -0.269 OA
HETATM    4  H   UNL     1     -42.609  57.712 -49.981  1.00  0.00     0.192 HD
ENDROOT
BRANCH   1   5
HETATM    5  N   UNL     1     -41.085  56.406 -50.179  1.00  0.00    -0.184 NA
HETATM    6  C   UNL     1     -41.453  55.552 -51.080  1.00  0.00     0.152 C 
BRANCH   6   7
HETATM    7  C   UNL     1     -40.923  54.201 -51.051  1.00  0.00     0.011 A 
HETATM    8  C   UNL     1     -40.567  53.395 -52.181  1.00  0.00     0.004 A 
HETATM    9  C   UNL     1     -40.611  53.587 -53.579  1.00  0.00     0.014 A 
HETATM   10  C   UNL     1     -40.091  52.178 -51.693  1.00  0.00     0.043 A 
HETATM   11  C   UNL     1     -40.178  52.564 -54.430  1.00  0.00     0.001 A 
HETATM   12  C   UNL     1     -39.704  51.362 -53.911  1.00  0.00     0.002 A 
HETATM   13  C   UNL     1     -39.652  51.145 -52.531  1.00  0.00     0.030 A 
HETATM   14  N   UNL     1     -40.159  52.237 -50.320  1.00  0.00    -0.364 N 
HETATM   15  H   UNL     1     -39.878  51.491 -49.700  1.00  0.00     0.165 HD
HETATM   16  C   UNL     1     -40.661  53.447 -49.923  1.00  0.00     0.102 A 
ENDBRANCH   6   7
ENDBRANCH   1   5
BRANCH   2  17
HETATM   17  C   UNL     1     -41.930  60.040 -50.680  1.00  0.00     0.280 C 
BRANCH  17  18
HETATM   18  O   UNL     1     -43.246  59.861 -51.190  1.00  0.00    -0.340 OA
BRANCH  18  19
HETATM   19  C   UNL     1     -43.355  59.388 -52.474  1.00  0.00     0.092 A 
HETATM   20  C   UNL     1     -44.143  58.242 -52.666  1.00  0.00     0.069 A 
HETATM   21 CL   UNL     1     -44.919  57.456 -51.336  1.00  0.00    -0.081 Cl
HETATM   22  C   UNL     1     -44.314  57.697 -53.942  1.00  0.00     0.052 A 
HETATM   23  C   UNL     1     -43.708  58.299 -55.044  1.00  0.00     0.057 A 
HETATM   24 CL   UNL     1     -43.956  57.580 -56.594  1.00  0.00    -0.082 Cl
HETATM   25  C   UNL     1     -42.932  59.449 -54.867  1.00  0.00     0.058 A 
HETATM   26 CL   UNL     1     -42.162  60.257 -56.187  1.00  0.00    -0.082 Cl
HETATM   27  C   UNL     1     -42.758  59.992 -53.587  1.00  0.00     0.064 A 
ENDBRANCH  18  19
ENDBRANCH  17  18
ENDBRANCH   2  17
TORSDOF 5
ENDMDL
MODEL 8
REMARK VINA RESULT:      -7.5      3.701      8.338
REMARK  5 active torsions:
REMARK  status: ('A' for Active; 'I' for Inactive)
REMARK    1  A    between atoms: C_8  and  C_9 
REMARK    2  A    between atoms: N_10  and  N_11 
REMARK       I    between atoms: N_11  and  C_12 
REMARK    3  A    between atoms: C_12  and  C_13 
REMARK    4  A    between atoms: C_13  and  O_14 
REMARK    5  A    between atoms: O_14  and  C_15 
ROOT
HETATM    1  N   UNL     1     -43.047  56.100 -53.550  1.00  0.00    -0.246 N 
HETATM    2  C   UNL     1     -42.729  56.852 -52.425  1.00  0.00     0.261 C 
HETATM    3  O   UNL     1     -42.583  58.072 -52.383  1.00  0.00    -0.269 OA
HETATM    4  H   UNL     1     -43.375  55.148 -53.386  1.00  0.00     0.192 HD
ENDROOT
BRANCH   1   5
HETATM    5  N   UNL     1     -43.329  56.581 -54.805  1.00  0.00    -0.184 NA
HETATM    6  C   UNL     1     -42.398  56.568 -55.705  1.00  0.00     0.152 C 
BRANCH   6   7
HETATM    7  C   UNL     1     -42.670  57.096 -57.029  1.00  0.00     0.011 A 
HETATM    8  C   UNL     1     -43.257  56.392 -58.130  1.00  0.00     0.004 A 
HETATM    9  C   UNL     1     -43.719  55.071 -58.318  1.00  0.00     0.014 A 
HETATM   10  C   UNL     1     -43.344  57.284 -59.199  1.00  0.00     0.043 A 
HETATM   11  C   UNL     1     -44.250  54.695 -59.558  1.00  0.00     0.001 A 
HETATM   12  C   UNL     1     -44.327  55.611 -60.603  1.00  0.00     0.002 A 
HETATM   13  C   UNL     1     -43.875  56.925 -60.444  1.00  0.00     0.030 A 
HETATM   14  N   UNL     1     -42.826  58.484 -58.769  1.00  0.00    -0.364 N 
HETATM   15  H   UNL     1     -42.761  59.316 -59.337  1.00  0.00     0.165 HD
HETATM   16  C   UNL     1     -42.415  58.382 -57.467  1.00  0.00     0.102 A 
ENDBRANCH   6   7
ENDBRANCH   1   5
BRANCH   2  17
HETATM   17  C   UNL     1     -42.478  55.996 -51.184  1.00  0.00     0.280 C 
BRANCH  17  18
HETATM   18  O   UNL     1     -41.098  55.688 -51.018  1.00  0.00    -0.340 OA
BRANCH  18  19
HETATM   19  C   UNL     1     -40.734  54.373 -51.158  1.00  0.00     0.092 A 
HETATM   20  C   UNL     1     -40.602  53.619 -49.980  1.00  0.00     0.069 A 
HETATM   21 CL   UNL     1     -40.867  54.332 -48.428  1.00  0.00    -0.081 Cl
HETATM   22  C   UNL     1     -40.242  52.270 -50.030  1.00  0.00     0.052 A 
HETATM   23  C   UNL     1     -40.020  51.654 -51.262  1.00  0.00     0.057 A 
HETATM   24 CL   UNL     1     -39.577  49.984 -51.260  1.00  0.00    -0.082 Cl
HETATM   25  C   UNL     1     -40.161  52.390 -52.442  1.00  0.00     0.058 A 
HETATM   26 CL   UNL     1     -39.916  51.690 -54.004  1.00  0.00    -0.082 Cl
HETATM   27  C   UNL     1     -40.519  53.744 -52.389  1.00  0.00     0.064 A 
ENDBRANCH  18  19
ENDBRANCH  17  18
ENDBRANCH   2  17
TORSDOF 5
ENDMDL
MODEL 9
REMARK VINA RESULT:      -7.4      5.883      7.667
REMARK  5 active torsions:
REMARK  status: ('A' for Active; 'I' for Inactive)
REMARK    1  A    between atoms: C_8  and  C_9 
REMARK    2  A    between atoms: N_10  and  N_11 
REMARK       I    between atoms: N_11  and  C_12 
REMARK    3  A    between atoms: C_12  and  C_13 
REMARK    4  A    between atoms: C_13  and  O_14 
REMARK    5  A    between atoms: O_14  and  C_15 
ROOT
HETATM    1  N   UNL     1     -41.631  57.966 -50.406  1.00  0.00    -0.246 N 
HETATM    2  C   UNL     1     -40.973  59.186 -50.506  1.00  0.00     0.261 C 
HETATM    3  O   UNL     1     -39.756  59.357 -50.533  1.00  0.00    -0.269 OA
HETATM    4  H   UNL     1     -42.623  57.961 -50.642  1.00  0.00     0.192 HD
ENDROOT
BRANCH   1   5
HETATM    5  N   UNL     1     -41.052  56.721 -50.393  1.00  0.00    -0.184 NA
HETATM    6  C   UNL     1     -41.596  55.770 -51.083  1.00  0.00     0.152 C 
BRANCH   6   7
HETATM    7  C   UNL     1     -41.012  54.441 -51.061  1.00  0.00     0.011 A 
HETATM    8  C   UNL     1     -40.646  53.646 -52.196  1.00  0.00     0.004 A 
HETATM    9  C   UNL     1     -40.725  53.833 -53.593  1.00  0.00     0.014 A 
HETATM   10  C   UNL     1     -40.114  52.450 -51.714  1.00  0.00     0.043 A 
HETATM   11  C   UNL     1     -40.268  52.825 -54.450  1.00  0.00     0.001 A 
HETATM   12  C   UNL     1     -39.737  51.645 -53.938  1.00  0.00     0.002 A 
HETATM   13  C   UNL     1     -39.650  51.433 -52.559  1.00  0.00     0.030 A 
HETATM   14  N   UNL     1     -40.157  52.511 -50.341  1.00  0.00    -0.364 N 
HETATM   15  H   UNL     1     -39.836  51.778 -49.724  1.00  0.00     0.165 HD
HETATM   16  C   UNL     1     -40.699  53.701 -49.937  1.00  0.00     0.102 A 
ENDBRANCH   6   7
ENDBRANCH   1   5
BRANCH   2  17
HETATM   17  C   UNL     1     -41.925  60.382 -50.496  1.00  0.00     0.280 C 
BRANCH  17  18
HETATM   18  O   UNL     1     -43.267  59.999 -50.779  1.00  0.00    -0.340 OA
BRANCH  18  19
HETATM   19  C   UNL     1     -44.261  60.789 -50.260  1.00  0.00     0.092 A 
HETATM   20  C   UNL     1     -45.389  61.008 -51.068  1.00  0.00     0.069 A 
HETATM   21 CL   UNL     1     -45.499  60.327 -52.652  1.00  0.00    -0.081 Cl
HETATM   22  C   UNL     1     -46.451  61.795 -50.615  1.00  0.00     0.052 A 
HETATM   23  C   UNL     1     -46.404  62.363 -49.342  1.00  0.00     0.057 A 
HETATM   24 CL   UNL     1     -47.747  63.325 -48.839  1.00  0.00    -0.082 Cl
HETATM   25  C   UNL     1     -45.293  62.141 -48.523  1.00  0.00     0.058 A 
HETATM   26 CL   UNL     1     -45.172  62.802 -46.930  1.00  0.00    -0.082 Cl
HETATM   27  C   UNL     1     -44.227  61.356 -48.980  1.00  0.00     0.064 A 
ENDBRANCH  18  19
ENDBRANCH  17  18
ENDBRANCH   2  17
TORSDOF 5
ENDMDL
MODEL 10
REMARK VINA RESULT:      -7.4      7.619      9.538
REMARK  5 active torsions:
REMARK  status: ('A' for Active; 'I' for Inactive)
REMARK    1  A    between atoms: C_8  and  C_9 
REMARK    2  A    between atoms: N_10  and  N_11 
REMARK       I    between atoms: N_11  and  C_12 
REMARK    3  A    between atoms: C_12  and  C_13 
REMARK    4  A    between atoms: C_13  and  O_14 
REMARK    5  A    between atoms: O_14  and  C_15 
ROOT
HETATM    1  N   UNL     1     -43.937  58.669 -50.947  1.00  0.00    -0.246 N 
HETATM    2  C   UNL     1     -45.183  59.149 -50.563  1.00  0.00     0.261 C 
HETATM    3  O   UNL     1     -46.215  58.489 -50.457  1.00  0.00    -0.269 OA
HETATM    4  H   UNL     1     -43.136  59.270 -50.752  1.00  0.00     0.192 HD
ENDROOT
BRANCH   1   5
HETATM    5  N   UNL     1     -43.606  57.362 -51.206  1.00  0.00    -0.184 NA
HETATM    6  C   UNL     1     -42.362  57.006 -51.146  1.00  0.00     0.152 C 
BRANCH   6   7
HETATM    7  C   UNL     1     -41.991  55.635 -51.442  1.00  0.00     0.011 A 
HETATM    8  C   UNL     1     -41.378  55.153 -52.644  1.00  0.00     0.004 A 
HETATM    9  C   UNL     1     -40.969  55.760 -53.852  1.00  0.00     0.014 A 
HETATM   10  C   UNL     1     -41.188  53.779 -52.495  1.00  0.00     0.043 A 
HETATM   11  C   UNL     1     -40.389  54.978 -54.856  1.00  0.00     0.001 A 
HETATM   12  C   UNL     1     -40.209  53.609 -54.674  1.00  0.00     0.002 A 
HETATM   13  C   UNL     1     -40.606  52.982 -53.489  1.00  0.00     0.030 A 
HETATM   14  N   UNL     1     -41.671  53.435 -51.254  1.00  0.00    -0.364 N 
HETATM   15  H   UNL     1     -41.665  52.498 -50.876  1.00  0.00     0.165 HD
HETATM   16  C   UNL     1     -42.160  54.541 -50.613  1.00  0.00     0.102 A 
ENDBRANCH   6   7
ENDBRANCH   1   5
BRANCH   2  17
HETATM   17  C   UNL     1     -45.202  60.662 -50.349  1.00  0.00     0.280 C 
BRANCH  17  18
HETATM   18  O   UNL     1     -46.259  61.065 -49.485  1.00  0.00    -0.340 OA
BRANCH  18  19
HETATM   19  C   UNL     1     -45.902  61.692 -48.317  1.00  0.00     0.092 A 
HETATM   20  C   UNL     1     -46.140  63.074 -48.237  1.00  0.00     0.069 A 
HETATM   21 CL   UNL     1     -46.833  63.940 -49.562  1.00  0.00    -0.081 Cl
HETATM   22  C   UNL     1     -45.813  63.790 -47.082  1.00  0.00     0.052 A 
HETATM   23  C   UNL     1     -45.254  63.130 -45.988  1.00  0.00     0.057 A 
HETATM   24 CL   UNL     1     -44.871  64.069 -44.590  1.00  0.00    -0.082 Cl
HETATM   25  C   UNL     1     -45.024  61.753 -46.051  1.00  0.00     0.058 A 
HETATM   26 CL   UNL     1     -44.347  60.866 -44.730  1.00  0.00    -0.082 Cl
HETATM   27  C   UNL     1     -45.349  61.036 -47.211  1.00  0.00     0.064 A 
ENDBRANCH  18  19
ENDBRANCH  17  18
ENDBRANCH   2  17
TORSDOF 5
ENDMDL
