MODEL 1
REMARK VINA RESULT:      -8.5      0.000      0.000
REMARK  3 active torsions:
REMARK  status: ('A' for Active; 'I' for Inactive)
REMARK    1  A    between atoms: C_9  and  C_10 
REMARK       I    between atoms: C_10  and  N_11 
REMARK    2  A    between atoms: N_11  and  C_12 
REMARK    3  A    between atoms: C_19  and  C_20 
REMARK       I    between atoms: C_20  and  N_21 
ROOT
HETATM    1  C   UNL     1     -40.983  55.353 -54.273  1.00  0.00     0.035 A 
HETATM    2  C   UNL     1     -41.017  55.205 -52.881  1.00  0.00     0.046 A 
HETATM    3  C   UNL     1     -40.698  53.953 -52.311  1.00  0.00     0.030 A 
HETATM    4  C   UNL     1     -40.333  52.906 -53.149  1.00  0.00     0.063 A 
HETATM    5  N   UNL     1     -40.099  51.844 -52.321  1.00  0.00    -0.277 N 
HETATM    6  H   UNL     1     -39.817  50.908 -52.590  1.00  0.00     0.189 HD
HETATM    7  N   UNL     1     -40.291  52.101 -51.017  1.00  0.00    -0.168 NA
HETATM    8  C   UNL     1     -40.663  53.402 -50.995  1.00  0.00     0.156 A 
HETATM    9  C   UNL     1     -40.262  53.028 -54.537  1.00  0.00     0.034 A 
HETATM   10  C   UNL     1     -40.602  54.271 -55.081  1.00  0.00     0.032 A 
ENDROOT
BRANCH   1  11
HETATM   11  N   UNL     1     -41.402  56.516 -54.940  1.00  0.00    -0.325 N 
HETATM   12  C   UNL     1     -42.608  56.742 -55.580  1.00  0.00     0.252 C 
HETATM   13  O   UNL     1     -43.655  56.129 -55.389  1.00  0.00    -0.270 OA
HETATM   14  H   UNL     1     -40.703  57.238 -55.080  1.00  0.00     0.169 HD
BRANCH  12  15
HETATM   15  C   UNL     1     -42.511  57.815 -56.689  1.00  0.00     0.225 C 
HETATM   16  C   UNL     1     -43.894  58.459 -56.876  1.00  0.00     0.083 C 
HETATM   17  C   UNL     1     -44.363  57.648 -58.023  1.00  0.00    -0.021 A 
HETATM   18  C   UNL     1     -43.274  57.055 -58.634  1.00  0.00     0.076 A 
HETATM   19  C   UNL     1     -45.644  57.430 -58.493  1.00  0.00     0.017 A 
HETATM   20  C   UNL     1     -43.403  56.245 -59.742  1.00  0.00     0.044 A 
HETATM   21  O   UNL     1     -42.090  57.271 -57.969  1.00  0.00    -0.336 OA
HETATM   22  C   UNL     1     -44.693  55.990 -60.234  1.00  0.00    -0.053 A 
HETATM   23  C   UNL     1     -45.822  56.576 -59.598  1.00  0.00    -0.055 A 
HETATM   24  C   UNL     1     -44.855  55.060 -61.407  1.00  0.00     0.049 C 
HETATM   25  C   UNL     1     -47.222  56.270 -60.061  1.00  0.00     0.049 C 
ENDBRANCH  12  15
ENDBRANCH   1  11
BRANCH   8  26
HETATM   26  C   UNL     1     -40.990  54.077 -49.731  1.00  0.00     0.270 C 
HETATM   27  N   UNL     1     -39.908  54.308 -48.926  1.00  0.00    -0.365 N 
HETATM   28  H   UNL     1     -38.996  53.999 -49.241  1.00  0.00     0.159 HD
HETATM   29  H   UNL     1     -40.039  54.752 -48.032  1.00  0.00     0.159 HD
HETATM   30  O   UNL     1     -42.120  54.410 -49.387  1.00  0.00    -0.266 OA
ENDBRANCH   8  26
TORSDOF 3
ENDMDL
MODEL 2
REMARK VINA RESULT:      -8.5      2.594      3.796
REMARK  3 active torsions:
REMARK  status: ('A' for Active; 'I' for Inactive)
REMARK    1  A    between atoms: C_9  and  C_10 
REMARK       I    between atoms: C_10  and  N_11 
REMARK    2  A    between atoms: N_11  and  C_12 
REMARK    3  A    between atoms: C_19  and  C_20 
REMARK       I    between atoms: C_20  and  N_21 
ROOT
HETATM    1  C   UNL     1     -40.870  54.688 -52.866  1.00  0.00     0.035 A 
HETATM    2  C   UNL     1     -40.551  53.566 -52.092  1.00  0.00     0.046 A 
HETATM    3  C   UNL     1     -40.174  52.367 -52.736  1.00  0.00     0.030 A 
HETATM    4  C   UNL     1     -40.104  52.342 -54.123  1.00  0.00     0.063 A 
HETATM    5  N   UNL     1     -39.731  51.067 -54.444  1.00  0.00    -0.277 N 
HETATM    6  H   UNL     1     -39.587  50.686 -55.372  1.00  0.00     0.189 HD
HETATM    7  N   UNL     1     -39.561  50.253 -53.389  1.00  0.00    -0.168 NA
HETATM    8  C   UNL     1     -39.833  51.043 -52.325  1.00  0.00     0.156 A 
HETATM    9  C   UNL     1     -40.388  53.449 -54.922  1.00  0.00     0.034 A 
HETATM   10  C   UNL     1     -40.780  54.621 -54.264  1.00  0.00     0.032 A 
ENDROOT
BRANCH   1  11
HETATM   11  N   UNL     1     -41.374  55.884 -52.327  1.00  0.00    -0.325 N 
HETATM   12  C   UNL     1     -42.660  56.142 -51.884  1.00  0.00     0.252 C 
HETATM   13  O   UNL     1     -43.490  55.303 -51.546  1.00  0.00    -0.270 OA
HETATM   14  H   UNL     1     -40.769  56.696 -52.376  1.00  0.00     0.169 HD
BRANCH  12  15
HETATM   15  C   UNL     1     -43.030  57.641 -51.946  1.00  0.00     0.225 C 
HETATM   16  C   UNL     1     -44.448  57.776 -52.525  1.00  0.00     0.083 C 
HETATM   17  C   UNL     1     -44.086  58.045 -53.937  1.00  0.00    -0.021 A 
HETATM   18  C   UNL     1     -42.770  58.466 -53.993  1.00  0.00     0.076 A 
HETATM   19  C   UNL     1     -44.839  57.920 -55.087  1.00  0.00     0.017 A 
HETATM   20  C   UNL     1     -42.157  58.801 -55.181  1.00  0.00     0.044 A 
HETATM   21  O   UNL     1     -42.127  58.415 -52.779  1.00  0.00    -0.336 OA
HETATM   22  C   UNL     1     -42.891  58.669 -56.371  1.00  0.00    -0.053 A 
HETATM   23  C   UNL     1     -44.237  58.213 -56.325  1.00  0.00    -0.055 A 
HETATM   24  C   UNL     1     -42.215  58.973 -57.681  1.00  0.00     0.049 C 
HETATM   25  C   UNL     1     -45.029  57.998 -57.587  1.00  0.00     0.049 C 
ENDBRANCH  12  15
ENDBRANCH   1  11
BRANCH   8  26
HETATM   26  C   UNL     1     -39.778  50.516 -50.954  1.00  0.00     0.270 C 
HETATM   27  N   UNL     1     -39.037  49.373 -50.826  1.00  0.00    -0.365 N 
HETATM   28  H   UNL     1     -38.605  48.980 -51.654  1.00  0.00     0.159 HD
HETATM   29  H   UNL     1     -38.957  48.931 -49.924  1.00  0.00     0.159 HD
HETATM   30  O   UNL     1     -40.340  51.020 -49.987  1.00  0.00    -0.266 OA
ENDBRANCH   8  26
TORSDOF 3
ENDMDL
MODEL 3
REMARK VINA RESULT:      -8.4      1.681      2.361
REMARK  3 active torsions:
REMARK  status: ('A' for Active; 'I' for Inactive)
REMARK    1  A    between atoms: C_9  and  C_10 
REMARK       I    between atoms: C_10  and  N_11 
REMARK    2  A    between atoms: N_11  and  C_12 
REMARK    3  A    between atoms: C_19  and  C_20 
REMARK       I    between atoms: C_20  and  N_21 
ROOT
HETATM    1  C   UNL     1     -41.055  55.412 -53.433  1.00  0.00     0.035 A 
HETATM    2  C   UNL     1     -40.989  55.380 -52.035  1.00  0.00     0.046 A 
HETATM    3  C   UNL     1     -40.680  54.165 -51.386  1.00  0.00     0.030 A 
HETATM    4  C   UNL     1     -40.423  53.037 -52.156  1.00  0.00     0.063 A 
HETATM    5  N   UNL     1     -40.171  52.036 -51.260  1.00  0.00    -0.277 N 
HETATM    6  H   UNL     1     -39.950  51.069 -51.469  1.00  0.00     0.189 HD
HETATM    7  N   UNL     1     -40.252  52.407 -49.973  1.00  0.00    -0.168 NA
HETATM    8  C   UNL     1     -40.566  53.722 -50.033  1.00  0.00     0.156 A 
HETATM    9  C   UNL     1     -40.454  53.042 -53.551  1.00  0.00     0.034 A 
HETATM   10  C   UNL     1     -40.783  54.252 -54.172  1.00  0.00     0.032 A 
ENDROOT
BRANCH   1  11
HETATM   11  N   UNL     1     -41.476  56.537 -54.163  1.00  0.00    -0.325 N 
HETATM   12  C   UNL     1     -41.149  57.864 -53.946  1.00  0.00     0.252 C 
HETATM   13  O   UNL     1     -40.175  58.276 -53.323  1.00  0.00    -0.270 OA
HETATM   14  H   UNL     1     -42.199  56.384 -54.858  1.00  0.00     0.169 HD
BRANCH  12  15
HETATM   15  C   UNL     1     -42.215  58.844 -54.488  1.00  0.00     0.225 C 
HETATM   16  C   UNL     1     -43.469  58.045 -54.876  1.00  0.00     0.083 C 
HETATM   17  C   UNL     1     -43.200  57.900 -56.327  1.00  0.00    -0.021 A 
HETATM   18  C   UNL     1     -42.270  58.849 -56.710  1.00  0.00     0.076 A 
HETATM   19  C   UNL     1     -43.714  57.002 -57.241  1.00  0.00     0.017 A 
HETATM   20  C   UNL     1     -41.830  58.962 -58.012  1.00  0.00     0.044 A 
HETATM   21  O   UNL     1     -41.767  59.578 -55.659  1.00  0.00    -0.336 OA
HETATM   22  C   UNL     1     -42.322  58.053 -58.963  1.00  0.00    -0.053 A 
HETATM   23  C   UNL     1     -43.260  57.058 -58.572  1.00  0.00    -0.055 A 
HETATM   24  C   UNL     1     -41.806  58.126 -60.375  1.00  0.00     0.049 C 
HETATM   25  C   UNL     1     -43.755  56.028 -59.552  1.00  0.00     0.049 C 
ENDBRANCH  12  15
ENDBRANCH   1  11
BRANCH   8  26
HETATM   26  C   UNL     1     -40.767  54.512 -48.811  1.00  0.00     0.270 C 
HETATM   27  N   UNL     1     -40.333  53.895 -47.670  1.00  0.00    -0.365 N 
HETATM   28  H   UNL     1     -39.929  52.968 -47.744  1.00  0.00     0.159 HD
HETATM   29  H   UNL     1     -40.444  54.356 -46.782  1.00  0.00     0.159 HD
HETATM   30  O   UNL     1     -41.284  55.624 -48.774  1.00  0.00    -0.266 OA
ENDBRANCH   8  26
TORSDOF 3
ENDMDL
MODEL 4
REMARK VINA RESULT:      -8.4      1.625      2.122
REMARK  3 active torsions:
REMARK  status: ('A' for Active; 'I' for Inactive)
REMARK    1  A    between atoms: C_9  and  C_10 
REMARK       I    between atoms: C_10  and  N_11 
REMARK    2  A    between atoms: N_11  and  C_12 
REMARK    3  A    between atoms: C_19  and  C_20 
REMARK       I    between atoms: C_20  and  N_21 
ROOT
HETATM    1  C   UNL     1     -41.194  55.254 -53.730  1.00  0.00     0.035 A 
HETATM    2  C   UNL     1     -40.986  54.486 -52.579  1.00  0.00     0.046 A 
HETATM    3  C   UNL     1     -40.386  53.213 -52.696  1.00  0.00     0.030 A 
HETATM    4  C   UNL     1     -39.994  52.768 -53.953  1.00  0.00     0.063 A 
HETATM    5  N   UNL     1     -39.467  51.524 -53.748  1.00  0.00    -0.277 N 
HETATM    6  H   UNL     1     -39.084  50.898 -54.447  1.00  0.00     0.189 HD
HETATM    7  N   UNL     1     -39.490  51.112 -52.470  1.00  0.00    -0.168 NA
HETATM    8  C   UNL     1     -40.057  52.146 -51.807  1.00  0.00     0.156 A 
HETATM    9  C   UNL     1     -40.162  53.520 -55.116  1.00  0.00     0.034 A 
HETATM   10  C   UNL     1     -40.778  54.769 -54.978  1.00  0.00     0.032 A 
ENDROOT
BRANCH   1  11
HETATM   11  N   UNL     1     -41.894  56.473 -53.734  1.00  0.00    -0.325 N 
HETATM   12  C   UNL     1     -43.211  56.698 -54.094  1.00  0.00     0.252 C 
HETATM   13  O   UNL     1     -44.104  55.855 -54.132  1.00  0.00    -0.270 OA
HETATM   14  H   UNL     1     -41.347  57.312 -53.572  1.00  0.00     0.169 HD
BRANCH  12  15
HETATM   15  C   UNL     1     -43.469  58.146 -54.570  1.00  0.00     0.225 C 
HETATM   16  C   UNL     1     -44.791  58.180 -55.353  1.00  0.00     0.083 C 
HETATM   17  C   UNL     1     -44.239  58.074 -56.724  1.00  0.00    -0.021 A 
HETATM   18  C   UNL     1     -42.901  58.421 -56.701  1.00  0.00     0.076 A 
HETATM   19  C   UNL     1     -44.851  57.691 -57.902  1.00  0.00     0.017 A 
HETATM   20  C   UNL     1     -42.124  58.426 -57.839  1.00  0.00     0.044 A 
HETATM   21  O   UNL     1     -42.419  58.654 -55.435  1.00  0.00    -0.336 OA
HETATM   22  C   UNL     1     -42.712  58.025 -59.050  1.00  0.00    -0.053 A 
HETATM   23  C   UNL     1     -44.081  57.642 -59.079  1.00  0.00    -0.055 A 
HETATM   24  C   UNL     1     -41.860  57.968 -60.289  1.00  0.00     0.049 C 
HETATM   25  C   UNL     1     -44.723  57.145 -60.347  1.00  0.00     0.049 C 
ENDBRANCH  12  15
ENDBRANCH   1  11
BRANCH   8  26
HETATM   26  C   UNL     1     -40.286  52.085 -50.356  1.00  0.00     0.270 C 
HETATM   27  N   UNL     1     -40.431  50.815 -49.868  1.00  0.00    -0.365 N 
HETATM   28  H   UNL     1     -40.384  50.038 -50.517  1.00  0.00     0.159 HD
HETATM   29  H   UNL     1     -40.607  50.677 -48.886  1.00  0.00     0.159 HD
HETATM   30  O   UNL     1     -40.357  53.061 -49.618  1.00  0.00    -0.266 OA
ENDBRANCH   8  26
TORSDOF 3
ENDMDL
MODEL 5
REMARK VINA RESULT:      -8.2      2.199      3.340
REMARK  3 active torsions:
REMARK  status: ('A' for Active; 'I' for Inactive)
REMARK    1  A    between atoms: C_9  and  C_10 
REMARK       I    between atoms: C_10  and  N_11 
REMARK    2  A    between atoms: N_11  and  C_12 
REMARK    3  A    between atoms: C_19  and  C_20 
REMARK       I    between atoms: C_20  and  N_21 
ROOT
HETATM    1  C   UNL     1     -41.635  56.633 -52.574  1.00  0.00     0.035 A 
HETATM    2  C   UNL     1     -41.191  55.322 -52.787  1.00  0.00     0.046 A 
HETATM    3  C   UNL     1     -40.815  54.531 -51.680  1.00  0.00     0.030 A 
HETATM    4  C   UNL     1     -40.921  55.068 -50.403  1.00  0.00     0.063 A 
HETATM    5  N   UNL     1     -40.483  54.087 -49.559  1.00  0.00    -0.277 N 
HETATM    6  H   UNL     1     -40.417  54.132 -48.548  1.00  0.00     0.189 HD
HETATM    7  N   UNL     1     -40.089  52.960 -50.172  1.00  0.00    -0.168 NA
HETATM    8  C   UNL     1     -40.288  53.219 -51.485  1.00  0.00     0.156 A 
HETATM    9  C   UNL     1     -41.386  56.360 -50.154  1.00  0.00     0.034 A 
HETATM   10  C   UNL     1     -41.732  57.133 -51.268  1.00  0.00     0.032 A 
ENDROOT
BRANCH   1  11
HETATM   11  N   UNL     1     -41.910  57.537 -53.615  1.00  0.00    -0.325 N 
HETATM   12  C   UNL     1     -41.308  58.757 -53.864  1.00  0.00     0.252 C 
HETATM   13  O   UNL     1     -40.206  59.116 -53.458  1.00  0.00    -0.270 OA
HETATM   14  H   UNL     1     -42.726  57.339 -54.184  1.00  0.00     0.169 HD
BRANCH  12  15
HETATM   15  C   UNL     1     -42.217  59.731 -54.648  1.00  0.00     0.225 C 
HETATM   16  C   UNL     1     -43.564  59.041 -54.915  1.00  0.00     0.083 C 
HETATM   17  C   UNL     1     -43.295  58.552 -56.289  1.00  0.00    -0.021 A 
HETATM   18  C   UNL     1     -42.235  59.264 -56.821  1.00  0.00     0.076 A 
HETATM   19  C   UNL     1     -43.915  57.555 -57.016  1.00  0.00     0.017 A 
HETATM   20  C   UNL     1     -41.764  59.035 -58.096  1.00  0.00     0.044 A 
HETATM   21  O   UNL     1     -41.653  60.129 -55.926  1.00  0.00    -0.336 OA
HETATM   22  C   UNL     1     -42.362  58.015 -58.855  1.00  0.00    -0.053 A 
HETATM   23  C   UNL     1     -43.436  57.262 -58.306  1.00  0.00    -0.055 A 
HETATM   24  C   UNL     1     -41.818  57.714 -60.225  1.00  0.00     0.049 C 
HETATM   25  C   UNL     1     -44.054  56.120 -59.069  1.00  0.00     0.049 C 
ENDBRANCH  12  15
ENDBRANCH   1  11
BRANCH   8  26
HETATM   26  C   UNL     1     -39.956  52.224 -52.515  1.00  0.00     0.270 C 
HETATM   27  N   UNL     1     -39.550  51.018 -52.014  1.00  0.00    -0.365 N 
HETATM   28  H   UNL     1     -39.498  50.903 -51.009  1.00  0.00     0.159 HD
HETATM   29  H   UNL     1     -39.286  50.280 -52.647  1.00  0.00     0.159 HD
HETATM   30  O   UNL     1     -40.014  52.423 -53.724  1.00  0.00    -0.266 OA
ENDBRANCH   8  26
TORSDOF 3
ENDMDL
MODEL 6
REMARK VINA RESULT:      -8.1      2.393      3.220
REMARK  3 active torsions:
REMARK  status: ('A' for Active; 'I' for Inactive)
REMARK    1  A    between atoms: C_9  and  C_10 
REMARK       I    between atoms: C_10  and  N_11 
REMARK    2  A    between atoms: N_11  and  C_12 
REMARK    3  A    between atoms: C_19  and  C_20 
REMARK       I    between atoms: C_20  and  N_21 
ROOT
HETATM    1  C   UNL     1     -41.582  54.681 -55.396  1.00  0.00     0.035 A 
HETATM    2  C   UNL     1     -42.305  54.853 -54.210  1.00  0.00     0.046 A 
HETATM    3  C   UNL     1     -41.834  54.256 -53.021  1.00  0.00     0.030 A 
HETATM    4  C   UNL     1     -40.648  53.534 -53.054  1.00  0.00     0.063 A 
HETATM    5  N   UNL     1     -40.464  53.079 -51.779  1.00  0.00    -0.277 N 
HETATM    6  H   UNL     1     -39.699  52.509 -51.436  1.00  0.00     0.189 HD
HETATM    7  N   UNL     1     -41.431  53.431 -50.917  1.00  0.00    -0.168 NA
HETATM    8  C   UNL     1     -42.287  54.159 -51.670  1.00  0.00     0.156 A 
HETATM    9  C   UNL     1     -39.889  53.366 -54.213  1.00  0.00     0.034 A 
HETATM   10  C   UNL     1     -40.386  53.948 -55.385  1.00  0.00     0.032 A 
ENDROOT
BRANCH   1  11
HETATM   11  N   UNL     1     -42.031  55.127 -56.651  1.00  0.00    -0.325 N 
HETATM   12  C   UNL     1     -42.898  56.171 -56.923  1.00  0.00     0.252 C 
HETATM   13  O   UNL     1     -43.153  57.112 -56.176  1.00  0.00    -0.270 OA
HETATM   14  H   UNL     1     -41.796  54.548 -57.451  1.00  0.00     0.169 HD
BRANCH  12  15
HETATM   15  C   UNL     1     -43.643  56.003 -58.267  1.00  0.00     0.225 C 
HETATM   16  C   UNL     1     -42.629  56.146 -59.414  1.00  0.00     0.083 C 
HETATM   17  C   UNL     1     -42.855  57.576 -59.732  1.00  0.00    -0.021 A 
HETATM   18  C   UNL     1     -44.075  57.967 -59.214  1.00  0.00     0.076 A 
HETATM   19  C   UNL     1     -42.053  58.473 -60.410  1.00  0.00     0.017 A 
HETATM   20  C   UNL     1     -44.560  59.248 -59.365  1.00  0.00     0.044 A 
HETATM   21  O   UNL     1     -44.688  56.992 -58.463  1.00  0.00    -0.336 OA
HETATM   22  C   UNL     1     -43.761  60.189 -60.034  1.00  0.00    -0.053 A 
HETATM   23  C   UNL     1     -42.493  59.802 -60.548  1.00  0.00    -0.055 A 
HETATM   24  C   UNL     1     -44.251  61.607 -60.153  1.00  0.00     0.049 C 
HETATM   25  C   UNL     1     -41.585  60.803 -61.213  1.00  0.00     0.049 C 
ENDBRANCH  12  15
ENDBRANCH   1  11
BRANCH   8  26
HETATM   26  C   UNL     1     -43.514  54.725 -51.093  1.00  0.00     0.270 C 
HETATM   27  N   UNL     1     -44.539  53.827 -50.973  1.00  0.00    -0.365 N 
HETATM   28  H   UNL     1     -44.389  52.876 -51.287  1.00  0.00     0.159 HD
HETATM   29  H   UNL     1     -45.425  54.130 -50.602  1.00  0.00     0.159 HD
HETATM   30  O   UNL     1     -43.651  55.895 -50.749  1.00  0.00    -0.266 OA
ENDBRANCH   8  26
TORSDOF 3
ENDMDL
MODEL 7
REMARK VINA RESULT:      -8.1      4.073      8.059
REMARK  3 active torsions:
REMARK  status: ('A' for Active; 'I' for Inactive)
REMARK    1  A    between atoms: C_9  and  C_10 
REMARK       I    between atoms: C_10  and  N_11 
REMARK    2  A    between atoms: N_11  and  C_12 
REMARK    3  A    between atoms: C_19  and  C_20 
REMARK       I    between atoms: C_20  and  N_21 
ROOT
HETATM    1  C   UNL     1     -42.204  59.538 -55.865  1.00  0.00     0.035 A 
HETATM    2  C   UNL     1     -42.546  58.248 -56.288  1.00  0.00     0.046 A 
HETATM    3  C   UNL     1     -42.492  57.935 -57.664  1.00  0.00     0.030 A 
HETATM    4  C   UNL     1     -42.072  58.911 -58.560  1.00  0.00     0.063 A 
HETATM    5  N   UNL     1     -42.134  58.323 -59.791  1.00  0.00    -0.277 N 
HETATM    6  H   UNL     1     -41.904  58.746 -60.684  1.00  0.00     0.189 HD
HETATM    7  N   UNL     1     -42.567  57.053 -59.781  1.00  0.00    -0.168 NA
HETATM    8  C   UNL     1     -42.794  56.798 -58.472  1.00  0.00     0.156 A 
HETATM    9  C   UNL     1     -41.698  60.197 -58.168  1.00  0.00     0.034 A 
HETATM   10  C   UNL     1     -41.781  60.491 -56.802  1.00  0.00     0.032 A 
ENDROOT
BRANCH   1  11
HETATM   11  N   UNL     1     -42.346  59.982 -54.539  1.00  0.00    -0.325 N 
HETATM   12  C   UNL     1     -41.530  59.707 -53.456  1.00  0.00     0.252 C 
HETATM   13  O   UNL     1     -40.361  59.333 -53.509  1.00  0.00    -0.270 OA
HETATM   14  H   UNL     1     -43.211  60.462 -54.310  1.00  0.00     0.169 HD
BRANCH  12  15
HETATM   15  C   UNL     1     -42.268  59.810 -52.102  1.00  0.00     0.225 C 
HETATM   16  C   UNL     1     -41.304  59.388 -50.982  1.00  0.00     0.083 C 
HETATM   17  C   UNL     1     -41.730  57.975 -50.843  1.00  0.00    -0.021 A 
HETATM   18  C   UNL     1     -42.984  57.824 -51.405  1.00  0.00     0.076 A 
HETATM   19  C   UNL     1     -41.072  56.898 -50.282  1.00  0.00     0.017 A 
HETATM   20  C   UNL     1     -43.644  56.615 -51.415  1.00  0.00     0.044 A 
HETATM   21  O   UNL     1     -43.443  58.960 -52.030  1.00  0.00    -0.336 OA
HETATM   22  C   UNL     1     -42.995  55.496 -50.868  1.00  0.00    -0.053 A 
HETATM   23  C   UNL     1     -41.695  55.637 -50.309  1.00  0.00    -0.055 A 
HETATM   24  C   UNL     1     -43.678  54.157 -50.926  1.00  0.00     0.049 C 
HETATM   25  C   UNL     1     -40.945  54.445 -49.774  1.00  0.00     0.049 C 
ENDBRANCH  12  15
ENDBRANCH   1  11
BRANCH   8  26
HETATM   26  C   UNL     1     -43.305  55.493 -58.029  1.00  0.00     0.270 C 
HETATM   27  N   UNL     1     -44.181  54.912 -58.903  1.00  0.00    -0.365 N 
HETATM   28  H   UNL     1     -44.416  55.407 -59.756  1.00  0.00     0.159 HD
HETATM   29  H   UNL     1     -44.596  54.023 -58.675  1.00  0.00     0.159 HD
HETATM   30  O   UNL     1     -43.005  54.947 -56.972  1.00  0.00    -0.266 OA
ENDBRANCH   8  26
TORSDOF 3
ENDMDL
MODEL 8
REMARK VINA RESULT:      -8.0      3.431      8.114
REMARK  3 active torsions:
REMARK  status: ('A' for Active; 'I' for Inactive)
REMARK    1  A    between atoms: C_9  and  C_10 
REMARK       I    between atoms: C_10  and  N_11 
REMARK    2  A    between atoms: N_11  and  C_12 
REMARK    3  A    between atoms: C_19  and  C_20 
REMARK       I    between atoms: C_20  and  N_21 
ROOT
HETATM    1  C   UNL     1     -42.548  56.382 -56.834  1.00  0.00     0.035 A 
HETATM    2  C   UNL     1     -43.144  55.737 -57.925  1.00  0.00     0.046 A 
HETATM    3  C   UNL     1     -43.904  56.494 -58.844  1.00  0.00     0.030 A 
HETATM    4  C   UNL     1     -44.019  57.865 -58.654  1.00  0.00     0.063 A 
HETATM    5  N   UNL     1     -44.808  58.308 -59.677  1.00  0.00    -0.277 N 
HETATM    6  H   UNL     1     -45.107  59.261 -59.852  1.00  0.00     0.189 HD
HETATM    7  N   UNL     1     -45.228  57.346 -60.514  1.00  0.00    -0.168 NA
HETATM    8  C   UNL     1     -44.678  56.217 -60.011  1.00  0.00     0.156 A 
HETATM    9  C   UNL     1     -43.416  58.542 -57.593  1.00  0.00     0.034 A 
HETATM   10  C   UNL     1     -42.685  57.770 -56.683  1.00  0.00     0.032 A 
ENDROOT
BRANCH   1  11
HETATM   11  N   UNL     1     -41.881  55.702 -55.801  1.00  0.00    -0.325 N 
HETATM   12  C   UNL     1     -42.314  54.596 -55.091  1.00  0.00     0.252 C 
HETATM   13  O   UNL     1     -43.172  53.796 -55.452  1.00  0.00    -0.270 OA
HETATM   14  H   UNL     1     -41.036  56.135 -55.443  1.00  0.00     0.169 HD
BRANCH  12  15
HETATM   15  C   UNL     1     -41.676  54.493 -53.687  1.00  0.00     0.225 C 
HETATM   16  C   UNL     1     -42.798  54.367 -52.644  1.00  0.00     0.083 C 
HETATM   17  C   UNL     1     -42.889  55.791 -52.243  1.00  0.00    -0.021 A 
HETATM   18  C   UNL     1     -41.727  56.441 -52.618  1.00  0.00     0.076 A 
HETATM   19  C   UNL     1     -43.910  56.475 -51.613  1.00  0.00     0.017 A 
HETATM   20  C   UNL     1     -41.520  57.779 -52.365  1.00  0.00     0.044 A 
HETATM   21  O   UNL     1     -40.868  55.649 -53.344  1.00  0.00    -0.336 OA
HETATM   22  C   UNL     1     -42.546  58.507 -51.741  1.00  0.00    -0.053 A 
HETATM   23  C   UNL     1     -43.754  57.853 -51.374  1.00  0.00    -0.055 A 
HETATM   24  C   UNL     1     -42.358  59.983 -51.513  1.00  0.00     0.049 C 
HETATM   25  C   UNL     1     -44.899  58.618 -50.763  1.00  0.00     0.049 C 
ENDBRANCH  12  15
ENDBRANCH   1  11
BRANCH   8  26
HETATM   26  C   UNL     1     -44.916  54.910 -60.640  1.00  0.00     0.270 C 
HETATM   27  N   UNL     1     -45.129  53.893 -59.749  1.00  0.00    -0.365 N 
HETATM   28  H   UNL     1     -45.098  54.103 -58.758  1.00  0.00     0.159 HD
HETATM   29  H   UNL     1     -45.285  52.958 -60.090  1.00  0.00     0.159 HD
HETATM   30  O   UNL     1     -44.920  54.706 -61.849  1.00  0.00    -0.266 OA
ENDBRANCH   8  26
TORSDOF 3
ENDMDL
MODEL 9
REMARK VINA RESULT:      -8.0      2.181      3.017
REMARK  3 active torsions:
REMARK  status: ('A' for Active; 'I' for Inactive)
REMARK    1  A    between atoms: C_9  and  C_10 
REMARK       I    between atoms: C_10  and  N_11 
REMARK    2  A    between atoms: N_11  and  C_12 
REMARK    3  A    between atoms: C_19  and  C_20 
REMARK       I    between atoms: C_20  and  N_21 
ROOT
HETATM    1  C   UNL     1     -41.382  54.919 -54.036  1.00  0.00     0.035 A 
HETATM    2  C   UNL     1     -41.296  54.835 -52.641  1.00  0.00     0.046 A 
HETATM    3  C   UNL     1     -40.733  53.682 -52.052  1.00  0.00     0.030 A 
HETATM    4  C   UNL     1     -40.255  52.671 -52.876  1.00  0.00     0.063 A 
HETATM    5  N   UNL     1     -39.790  51.704 -52.030  1.00  0.00    -0.277 N 
HETATM    6  H   UNL     1     -39.374  50.815 -52.285  1.00  0.00     0.189 HD
HETATM    7  N   UNL     1     -39.933  51.988 -50.726  1.00  0.00    -0.168 NA
HETATM    8  C   UNL     1     -40.516  53.209 -50.723  1.00  0.00     0.156 A 
HETATM    9  C   UNL     1     -40.301  52.735 -54.269  1.00  0.00     0.034 A 
HETATM   10  C   UNL     1     -40.882  53.877 -54.831  1.00  0.00     0.032 A 
ENDROOT
BRANCH   1  11
HETATM   11  N   UNL     1     -42.037  55.964 -54.711  1.00  0.00    -0.325 N 
HETATM   12  C   UNL     1     -41.900  57.325 -54.508  1.00  0.00     0.252 C 
HETATM   13  O   UNL     1     -40.948  57.885 -53.970  1.00  0.00    -0.270 OA
HETATM   14  H   UNL     1     -42.789  55.699 -55.339  1.00  0.00     0.169 HD
BRANCH  12  15
HETATM   15  C   UNL     1     -43.149  58.128 -54.939  1.00  0.00     0.225 C 
HETATM   16  C   UNL     1     -43.709  57.514 -56.232  1.00  0.00     0.083 C 
HETATM   17  C   UNL     1     -43.070  58.429 -57.207  1.00  0.00    -0.021 A 
HETATM   18  C   UNL     1     -42.673  59.581 -56.553  1.00  0.00     0.076 A 
HETATM   19  C   UNL     1     -42.839  58.267 -58.559  1.00  0.00     0.017 A 
HETATM   20  C   UNL     1     -42.055  60.622 -57.210  1.00  0.00     0.044 A 
HETATM   21  O   UNL     1     -42.863  59.530 -55.192  1.00  0.00    -0.336 OA
HETATM   22  C   UNL     1     -41.790  60.482 -58.582  1.00  0.00    -0.053 A 
HETATM   23  C   UNL     1     -42.173  59.291 -59.258  1.00  0.00    -0.055 A 
HETATM   24  C   UNL     1     -41.062  61.586 -59.300  1.00  0.00     0.049 C 
HETATM   25  C   UNL     1     -41.845  59.082 -60.713  1.00  0.00     0.049 C 
ENDBRANCH  12  15
ENDBRANCH   1  11
BRANCH   8  26
HETATM   26  C   UNL     1     -40.864  53.882 -49.463  1.00  0.00     0.270 C 
HETATM   27  N   UNL     1     -39.833  53.958 -48.568  1.00  0.00    -0.365 N 
HETATM   28  H   UNL     1     -38.940  53.552 -48.822  1.00  0.00     0.159 HD
HETATM   29  H   UNL     1     -39.984  54.389 -47.670  1.00  0.00     0.159 HD
HETATM   30  O   UNL     1     -41.972  54.337 -49.197  1.00  0.00    -0.266 OA
ENDBRANCH   8  26
TORSDOF 3
ENDMDL
MODEL 10
REMARK VINA RESULT:      -8.0      3.415      8.294
REMARK  3 active torsions:
REMARK  status: ('A' for Active; 'I' for Inactive)
REMARK    1  A    between atoms: C_9  and  C_10 
REMARK       I    between atoms: C_10  and  N_11 
REMARK    2  A    between atoms: N_11  and  C_12 
REMARK    3  A    between atoms: C_19  and  C_20 
REMARK       I    between atoms: C_20  and  N_21 
ROOT
HETATM    1  C   UNL     1     -42.624  58.482 -55.606  1.00  0.00     0.035 A 
HETATM    2  C   UNL     1     -42.502  57.941 -56.892  1.00  0.00     0.046 A 
HETATM    3  C   UNL     1     -42.220  58.798 -57.978  1.00  0.00     0.030 A 
HETATM    4  C   UNL     1     -42.043  60.155 -57.736  1.00  0.00     0.063 A 
HETATM    5  N   UNL     1     -41.798  60.712 -58.959  1.00  0.00    -0.277 N 
HETATM    6  H   UNL     1     -41.627  61.691 -59.163  1.00  0.00     0.189 HD
HETATM    7  N   UNL     1     -41.810  59.842 -59.981  1.00  0.00    -0.168 NA
HETATM    8  C   UNL     1     -42.070  58.653 -59.390  1.00  0.00     0.156 A 
HETATM    9  C   UNL     1     -42.130  60.721 -56.463  1.00  0.00     0.034 A 
HETATM   10  C   UNL     1     -42.432  59.856 -55.405  1.00  0.00     0.032 A 
ENDROOT
BRANCH   1  11
HETATM   11  N   UNL     1     -43.026  57.734 -54.486  1.00  0.00    -0.325 N 
HETATM   12  C   UNL     1     -42.250  56.908 -53.691  1.00  0.00     0.252 C 
HETATM   13  O   UNL     1     -41.027  56.945 -53.587  1.00  0.00    -0.270 OA
HETATM   14  H   UNL     1     -44.022  57.691 -54.301  1.00  0.00     0.169 HD
BRANCH  12  15
HETATM   15  C   UNL     1     -43.072  55.807 -52.983  1.00  0.00     0.225 C 
HETATM   16  C   UNL     1     -42.335  55.389 -51.700  1.00  0.00     0.083 C 
HETATM   17  C   UNL     1     -41.628  54.198 -52.228  1.00  0.00    -0.021 A 
HETATM   18  C   UNL     1     -42.251  53.782 -53.390  1.00  0.00     0.076 A 
HETATM   19  C   UNL     1     -40.519  53.535 -51.743  1.00  0.00     0.017 A 
HETATM   20  C   UNL     1     -41.819  52.685 -54.103  1.00  0.00     0.044 A 
HETATM   21  O   UNL     1     -43.259  54.623 -53.802  1.00  0.00    -0.336 OA
HETATM   22  C   UNL     1     -40.683  51.998 -53.645  1.00  0.00    -0.053 A 
HETATM   23  C   UNL     1     -40.021  52.434 -52.464  1.00  0.00    -0.055 A 
HETATM   24  C   UNL     1     -40.163  50.834 -54.446  1.00  0.00     0.049 C 
HETATM   25  C   UNL     1     -38.763  51.759 -51.984  1.00  0.00     0.049 C 
ENDBRANCH  12  15
ENDBRANCH   1  11
BRANCH   8  26
HETATM   26  C   UNL     1     -42.187  57.420 -60.182  1.00  0.00     0.270 C 
HETATM   27  N   UNL     1     -41.021  56.713 -60.287  1.00  0.00    -0.365 N 
HETATM   28  H   UNL     1     -40.190  57.079 -59.838  1.00  0.00     0.159 HD
HETATM   29  H   UNL     1     -41.003  55.862 -60.825  1.00  0.00     0.159 HD
HETATM   30  O   UNL     1     -43.216  57.033 -60.725  1.00  0.00    -0.266 OA
ENDBRANCH   8  26
TORSDOF 3
ENDMDL
