MODEL 1
REMARK VINA RESULT:      -7.1      0.000      0.000
REMARK  5 active torsions:
REMARK  status: ('A' for Active; 'I' for Inactive)
REMARK    1  A    between atoms: C_2  and  C_3 
REMARK    2  A    between atoms: C_3  and  N_4 
REMARK       I    between atoms: N_4  and  C_5 
REMARK    3  A    between atoms: C_5  and  C_6 
REMARK    4  A    between atoms: C_7  and  O_8 
REMARK    5  A    between atoms: O_8  and  C_9 
ROOT
HETATM    1  C   UNL     1     -41.550  54.919 -50.281  1.00  0.00     0.121 C 
HETATM    2  C   UNL     1     -41.089  54.639 -48.887  1.00  0.00     0.091 C 
HETATM    3  N   UNL     1     -40.725  54.383 -47.814  1.00  0.00    -0.195 NA
HETATM    4  C   UNL     1     -40.714  56.105 -50.806  1.00  0.00     0.055 C 
ENDROOT
BRANCH   1   5
HETATM    5  C   UNL     1     -43.086  55.249 -50.280  1.00  0.00     0.020 C 
HETATM    6  C   UNL     1     -43.959  54.155 -50.913  1.00  0.00     0.013 C 
HETATM    7  C   UNL     1     -43.408  56.596 -50.950  1.00  0.00     0.013 C 
ENDBRANCH   1   5
BRANCH   1   8
HETATM    8  N   UNL     1     -41.272  53.713 -51.097  1.00  0.00    -0.335 N 
HETATM    9  C   UNL     1     -40.024  53.170 -51.290  1.00  0.00     0.257 C 
HETATM   10  O   UNL     1     -39.015  53.615 -50.753  1.00  0.00    -0.267 OA
HETATM   11  H   UNL     1     -42.061  53.298 -51.583  1.00  0.00     0.164 HD
BRANCH   9  12
HETATM   12  C   UNL     1     -39.896  52.032 -52.240  1.00  0.00     0.085 A 
HETATM   13  C   UNL     1     -39.720  52.149 -53.618  1.00  0.00     0.185 A 
HETATM   14  N   UNL     1     -39.556  51.081 -54.444  1.00  0.00    -0.236 NA
HETATM   15  C   UNL     1     -39.605  49.851 -53.892  1.00  0.00     0.119 A 
HETATM   16  C   UNL     1     -39.806  49.629 -52.542  1.00  0.00     0.020 A 
HETATM   17  C   UNL     1     -39.954  50.735 -51.709  1.00  0.00     0.023 A 
BRANCH  13  18
HETATM   18  O   UNL     1     -39.666  53.423 -54.173  1.00  0.00    -0.291 OA
BRANCH  18  19
HETATM   19  C   UNL     1     -40.850  54.108 -54.320  1.00  0.00     0.078 A 
HETATM   20  C   UNL     1     -42.074  53.453 -54.475  1.00  0.00     0.039 A 
HETATM   21  C   UNL     1     -43.252  54.198 -54.576  1.00  0.00     0.026 A 
HETATM   22  C   UNL     1     -43.199  55.589 -54.497  1.00  0.00     0.034 A 
HETATM   23 CL   UNL     1     -44.650  56.505 -54.626  1.00  0.00    -0.084 Cl
HETATM   24  C   UNL     1     -41.982  56.243 -54.309  1.00  0.00     0.026 A 
HETATM   25  C   UNL     1     -40.804  55.499 -54.211  1.00  0.00     0.039 A 
ENDBRANCH  18  19
ENDBRANCH  13  18
ENDBRANCH   9  12
ENDBRANCH   1   8
TORSDOF 5
ENDMDL
MODEL 2
REMARK VINA RESULT:      -6.8      3.714      5.979
REMARK  5 active torsions:
REMARK  status: ('A' for Active; 'I' for Inactive)
REMARK    1  A    between atoms: C_2  and  C_3 
REMARK    2  A    between atoms: C_3  and  N_4 
REMARK       I    between atoms: N_4  and  C_5 
REMARK    3  A    between atoms: C_5  and  C_6 
REMARK    4  A    between atoms: C_7  and  O_8 
REMARK    5  A    between atoms: O_8  and  C_9 
ROOT
HETATM    1  C   UNL     1     -42.718  57.648 -56.966  1.00  0.00     0.121 C 
HETATM    2  C   UNL     1     -42.151  59.015 -56.756  1.00  0.00     0.091 C 
HETATM    3  N   UNL     1     -41.691  60.062 -56.560  1.00  0.00    -0.195 NA
HETATM    4  C   UNL     1     -42.416  57.251 -58.426  1.00  0.00     0.055 C 
ENDROOT
BRANCH   1   5
HETATM    5  C   UNL     1     -44.262  57.660 -56.677  1.00  0.00     0.020 C 
HETATM    6  C   UNL     1     -45.086  58.436 -57.715  1.00  0.00     0.013 C 
HETATM    7  C   UNL     1     -44.602  58.188 -55.272  1.00  0.00     0.013 C 
ENDBRANCH   1   5
BRANCH   1   8
HETATM    8  N   UNL     1     -42.018  56.723 -56.042  1.00  0.00    -0.335 N 
HETATM    9  C   UNL     1     -42.274  55.376 -55.941  1.00  0.00     0.257 C 
HETATM   10  O   UNL     1     -43.086  54.799 -56.656  1.00  0.00    -0.267 OA
HETATM   11  H   UNL     1     -41.339  57.136 -55.410  1.00  0.00     0.164 HD
BRANCH   9  12
HETATM   12  C   UNL     1     -41.573  54.610 -54.875  1.00  0.00     0.085 A 
HETATM   13  C   UNL     1     -41.582  54.927 -53.518  1.00  0.00     0.185 A 
HETATM   14  N   UNL     1     -40.969  54.168 -52.570  1.00  0.00    -0.236 NA
HETATM   15  C   UNL     1     -40.292  53.077 -52.985  1.00  0.00     0.119 A 
HETATM   16  C   UNL     1     -40.198  52.696 -54.310  1.00  0.00     0.020 A 
HETATM   17  C   UNL     1     -40.847  53.475 -55.265  1.00  0.00     0.023 A 
BRANCH  13  18
HETATM   18  O   UNL     1     -42.288  56.051 -53.104  1.00  0.00    -0.291 OA
BRANCH  18  19
HETATM   19  C   UNL     1     -41.603  57.013 -52.400  1.00  0.00     0.078 A 
HETATM   20  C   UNL     1     -41.676  57.111 -51.008  1.00  0.00     0.039 A 
HETATM   21  C   UNL     1     -40.924  58.081 -50.340  1.00  0.00     0.026 A 
HETATM   22  C   UNL     1     -40.087  58.927 -51.064  1.00  0.00     0.034 A 
HETATM   23 CL   UNL     1     -39.164  60.123 -50.240  1.00  0.00    -0.084 Cl
HETATM   24  C   UNL     1     -39.986  58.809 -52.450  1.00  0.00     0.026 A 
HETATM   25  C   UNL     1     -40.740  57.842 -53.120  1.00  0.00     0.039 A 
ENDBRANCH  18  19
ENDBRANCH  13  18
ENDBRANCH   9  12
ENDBRANCH   1   8
TORSDOF 5
ENDMDL
MODEL 3
REMARK VINA RESULT:      -6.6     13.740     15.277
REMARK  5 active torsions:
REMARK  status: ('A' for Active; 'I' for Inactive)
REMARK    1  A    between atoms: C_2  and  C_3 
REMARK    2  A    between atoms: C_3  and  N_4 
REMARK       I    between atoms: N_4  and  C_5 
REMARK    3  A    between atoms: C_5  and  C_6 
REMARK    4  A    between atoms: C_7  and  O_8 
REMARK    5  A    between atoms: O_8  and  C_9 
ROOT
HETATM    1  C   UNL     1     -34.982  40.721 -51.524  1.00  0.00     0.121 C 
HETATM    2  C   UNL     1     -34.647  39.749 -50.439  1.00  0.00     0.091 C 
HETATM    3  N   UNL     1     -34.369  38.972 -49.623  1.00  0.00    -0.195 NA
HETATM    4  C   UNL     1     -34.464  42.102 -51.073  1.00  0.00     0.055 C 
ENDROOT
BRANCH   1   5
HETATM    5  C   UNL     1     -36.534  40.736 -51.768  1.00  0.00     0.020 C 
HETATM    6  C   UNL     1     -37.149  39.341 -51.963  1.00  0.00     0.013 C 
HETATM    7  C   UNL     1     -36.944  41.632 -52.949  1.00  0.00     0.013 C 
ENDBRANCH   1   5
BRANCH   1   8
HETATM    8  N   UNL     1     -34.262  40.293 -52.748  1.00  0.00    -0.335 N 
HETATM    9  C   UNL     1     -32.895  40.297 -52.892  1.00  0.00     0.257 C 
HETATM   10  O   UNL     1     -32.132  40.612 -51.985  1.00  0.00    -0.267 OA
HETATM   11  H   UNL     1     -34.833  40.030 -53.546  1.00  0.00     0.164 HD
BRANCH   9  12
HETATM   12  C   UNL     1     -32.332  39.958 -54.228  1.00  0.00     0.085 A 
HETATM   13  C   UNL     1     -32.768  40.486 -55.442  1.00  0.00     0.185 A 
HETATM   14  N   UNL     1     -32.190  40.188 -56.636  1.00  0.00    -0.236 NA
HETATM   15  C   UNL     1     -31.169  39.306 -56.633  1.00  0.00     0.119 A 
HETATM   16  C   UNL     1     -30.685  38.704 -55.487  1.00  0.00     0.020 A 
HETATM   17  C   UNL     1     -31.276  39.036 -54.271  1.00  0.00     0.023 A 
BRANCH  13  18
HETATM   18  O   UNL     1     -33.818  41.397 -55.429  1.00  0.00    -0.291 OA
BRANCH  18  19
HETATM   19  C   UNL     1     -34.926  41.107 -56.191  1.00  0.00     0.078 A 
HETATM   20  C   UNL     1     -35.660  39.930 -56.019  1.00  0.00     0.039 A 
HETATM   21  C   UNL     1     -36.803  39.706 -56.791  1.00  0.00     0.026 A 
HETATM   22  C   UNL     1     -37.217  40.670 -57.709  1.00  0.00     0.034 A 
HETATM   23 CL   UNL     1     -38.623  40.392 -58.661  1.00  0.00    -0.084 Cl
HETATM   24  C   UNL     1     -36.506  41.860 -57.857  1.00  0.00     0.026 A 
HETATM   25  C   UNL     1     -35.361  42.084 -57.089  1.00  0.00     0.039 A 
ENDBRANCH  18  19
ENDBRANCH  13  18
ENDBRANCH   9  12
ENDBRANCH   1   8
TORSDOF 5
ENDMDL
MODEL 4
REMARK VINA RESULT:      -6.6      3.559      5.585
REMARK  5 active torsions:
REMARK  status: ('A' for Active; 'I' for Inactive)
REMARK    1  A    between atoms: C_2  and  C_3 
REMARK    2  A    between atoms: C_3  and  N_4 
REMARK       I    between atoms: N_4  and  C_5 
REMARK    3  A    between atoms: C_5  and  C_6 
REMARK    4  A    between atoms: C_7  and  O_8 
REMARK    5  A    between atoms: O_8  and  C_9 
ROOT
HETATM    1  C   UNL     1     -43.137  58.237 -51.832  1.00  0.00     0.121 C 
HETATM    2  C   UNL     1     -44.483  58.099 -51.197  1.00  0.00     0.091 C 
HETATM    3  N   UNL     1     -45.543  57.981 -50.738  1.00  0.00    -0.195 NA
HETATM    4  C   UNL     1     -42.144  57.426 -50.973  1.00  0.00     0.055 C 
ENDROOT
BRANCH   1   5
HETATM    5  C   UNL     1     -42.733  59.753 -51.908  1.00  0.00     0.020 C 
HETATM    6  C   UNL     1     -42.373  60.372 -50.549  1.00  0.00     0.013 C 
HETATM    7  C   UNL     1     -43.807  60.624 -52.584  1.00  0.00     0.013 C 
ENDBRANCH   1   5
BRANCH   1   8
HETATM    8  N   UNL     1     -43.219  57.647 -53.190  1.00  0.00    -0.335 N 
HETATM    9  C   UNL     1     -42.176  57.595 -54.084  1.00  0.00     0.257 C 
HETATM   10  O   UNL     1     -41.048  57.994 -53.814  1.00  0.00    -0.267 OA
HETATM   11  H   UNL     1     -44.129  57.307 -53.487  1.00  0.00     0.164 HD
BRANCH   9  12
HETATM   12  C   UNL     1     -42.454  57.085 -55.454  1.00  0.00     0.085 A 
HETATM   13  C   UNL     1     -43.033  55.852 -55.751  1.00  0.00     0.185 A 
HETATM   14  N   UNL     1     -43.318  55.446 -57.018  1.00  0.00    -0.236 NA
HETATM   15  C   UNL     1     -42.984  56.275 -58.029  1.00  0.00     0.119 A 
HETATM   16  C   UNL     1     -42.379  57.503 -57.840  1.00  0.00     0.020 A 
HETATM   17  C   UNL     1     -42.112  57.910 -56.535  1.00  0.00     0.023 A 
BRANCH  13  18
HETATM   18  O   UNL     1     -43.376  55.010 -54.699  1.00  0.00    -0.291 OA
BRANCH  18  19
HETATM   19  C   UNL     1     -42.382  54.235 -54.149  1.00  0.00     0.078 A 
HETATM   20  C   UNL     1     -41.380  53.647 -54.926  1.00  0.00     0.039 A 
HETATM   21  C   UNL     1     -40.370  52.905 -54.309  1.00  0.00     0.026 A 
HETATM   22  C   UNL     1     -40.354  52.778 -52.921  1.00  0.00     0.034 A 
HETATM   23 CL   UNL     1     -39.110  51.861 -52.163  1.00  0.00    -0.084 Cl
HETATM   24  C   UNL     1     -41.333  53.392 -52.141  1.00  0.00     0.026 A 
HETATM   25  C   UNL     1     -42.347  54.131 -52.757  1.00  0.00     0.039 A 
ENDBRANCH  18  19
ENDBRANCH  13  18
ENDBRANCH   9  12
ENDBRANCH   1   8
TORSDOF 5
ENDMDL
MODEL 5
REMARK VINA RESULT:      -6.5      2.976      5.427
REMARK  5 active torsions:
REMARK  status: ('A' for Active; 'I' for Inactive)
REMARK    1  A    between atoms: C_2  and  C_3 
REMARK    2  A    between atoms: C_3  and  N_4 
REMARK       I    between atoms: N_4  and  C_5 
REMARK    3  A    between atoms: C_5  and  C_6 
REMARK    4  A    between atoms: C_7  and  O_8 
REMARK    5  A    between atoms: O_8  and  C_9 
ROOT
HETATM    1  C   UNL     1     -42.889  56.902 -55.823  1.00  0.00     0.121 C 
HETATM    2  C   UNL     1     -43.150  56.310 -57.170  1.00  0.00     0.091 C 
HETATM    3  N   UNL     1     -43.327  55.821 -58.208  1.00  0.00    -0.195 NA
HETATM    4  C   UNL     1     -44.260  57.109 -55.145  1.00  0.00     0.055 C 
ENDROOT
BRANCH   1   5
HETATM    5  C   UNL     1     -42.108  58.256 -55.975  1.00  0.00     0.020 C 
HETATM    6  C   UNL     1     -41.792  58.949 -54.641  1.00  0.00     0.013 C 
HETATM    7  C   UNL     1     -42.824  59.257 -56.900  1.00  0.00     0.013 C 
ENDBRANCH   1   5
BRANCH   1   8
HETATM    8  N   UNL     1     -42.092  55.921 -55.047  1.00  0.00    -0.335 N 
HETATM    9  C   UNL     1     -42.557  54.700 -54.619  1.00  0.00     0.257 C 
HETATM   10  O   UNL     1     -43.679  54.284 -54.889  1.00  0.00    -0.267 OA
HETATM   11  H   UNL     1     -41.155  56.205 -54.777  1.00  0.00     0.164 HD
BRANCH   9  12
HETATM   12  C   UNL     1     -41.674  53.884 -53.742  1.00  0.00     0.085 A 
HETATM   13  C   UNL     1     -41.756  53.820 -52.352  1.00  0.00     0.185 A 
HETATM   14  N   UNL     1     -40.961  53.020 -51.593  1.00  0.00    -0.236 NA
HETATM   15  C   UNL     1     -40.025  52.285 -52.229  1.00  0.00     0.119 A 
HETATM   16  C   UNL     1     -39.843  52.303 -53.599  1.00  0.00     0.020 A 
HETATM   17  C   UNL     1     -40.679  53.114 -54.362  1.00  0.00     0.023 A 
BRANCH  13  18
HETATM   18  O   UNL     1     -42.729  54.579 -51.710  1.00  0.00    -0.291 OA
BRANCH  18  19
HETATM   19  C   UNL     1     -42.422  55.883 -51.401  1.00  0.00     0.078 A 
HETATM   20  C   UNL     1     -41.146  56.268 -50.979  1.00  0.00     0.039 A 
HETATM   21  C   UNL     1     -40.878  57.614 -50.719  1.00  0.00     0.026 A 
HETATM   22  C   UNL     1     -41.877  58.567 -50.907  1.00  0.00     0.034 A 
HETATM   23 CL   UNL     1     -41.546  60.225 -50.583  1.00  0.00    -0.084 Cl
HETATM   24  C   UNL     1     -43.141  58.190 -51.360  1.00  0.00     0.026 A 
HETATM   25  C   UNL     1     -43.412  56.844 -51.617  1.00  0.00     0.039 A 
ENDBRANCH  18  19
ENDBRANCH  13  18
ENDBRANCH   9  12
ENDBRANCH   1   8
TORSDOF 5
ENDMDL
MODEL 6
REMARK VINA RESULT:      -6.5      4.017      6.142
REMARK  5 active torsions:
REMARK  status: ('A' for Active; 'I' for Inactive)
REMARK    1  A    between atoms: C_2  and  C_3 
REMARK    2  A    between atoms: C_3  and  N_4 
REMARK       I    between atoms: N_4  and  C_5 
REMARK    3  A    between atoms: C_5  and  C_6 
REMARK    4  A    between atoms: C_7  and  O_8 
REMARK    5  A    between atoms: O_8  and  C_9 
ROOT
HETATM    1  C   UNL     1     -42.771  59.006 -53.150  1.00  0.00     0.121 C 
HETATM    2  C   UNL     1     -41.344  59.239 -52.770  1.00  0.00     0.091 C 
HETATM    3  N   UNL     1     -40.225  59.395 -52.505  1.00  0.00    -0.195 NA
HETATM    4  C   UNL     1     -43.417  60.391 -53.361  1.00  0.00     0.055 C 
ENDROOT
BRANCH   1   5
HETATM    5  C   UNL     1     -43.500  58.193 -52.020  1.00  0.00     0.020 C 
HETATM    6  C   UNL     1     -43.345  56.670 -52.148  1.00  0.00     0.013 C 
HETATM    7  C   UNL     1     -44.996  58.536 -51.908  1.00  0.00     0.013 C 
ENDBRANCH   1   5
BRANCH   1   8
HETATM    8  N   UNL     1     -42.779  58.252 -54.427  1.00  0.00    -0.335 N 
HETATM    9  C   UNL     1     -42.212  58.694 -55.599  1.00  0.00     0.257 C 
HETATM   10  O   UNL     1     -41.593  59.749 -55.682  1.00  0.00    -0.267 OA
HETATM   11  H   UNL     1     -43.287  57.372 -54.436  1.00  0.00     0.164 HD
BRANCH   9  12
HETATM   12  C   UNL     1     -42.416  57.876 -56.826  1.00  0.00     0.085 A 
HETATM   13  C   UNL     1     -42.822  56.543 -56.845  1.00  0.00     0.185 A 
HETATM   14  N   UNL     1     -43.047  55.847 -57.992  1.00  0.00    -0.236 NA
HETATM   15  C   UNL     1     -42.825  56.483 -59.162  1.00  0.00     0.119 A 
HETATM   16  C   UNL     1     -42.392  57.793 -59.247  1.00  0.00     0.020 A 
HETATM   17  C   UNL     1     -42.185  58.495 -58.063  1.00  0.00     0.023 A 
BRANCH  13  18
HETATM   18  O   UNL     1     -43.051  55.901 -55.633  1.00  0.00    -0.291 OA
BRANCH  18  19
HETATM   19  C   UNL     1     -42.167  54.920 -55.251  1.00  0.00     0.078 A 
HETATM   20  C   UNL     1     -40.790  55.148 -55.173  1.00  0.00     0.039 A 
HETATM   21  C   UNL     1     -39.942  54.127 -54.737  1.00  0.00     0.026 A 
HETATM   22  C   UNL     1     -40.478  52.897 -54.358  1.00  0.00     0.034 A 
HETATM   23 CL   UNL     1     -39.431  51.640 -53.824  1.00  0.00    -0.084 Cl
HETATM   24  C   UNL     1     -41.854  52.679 -54.403  1.00  0.00     0.026 A 
HETATM   25  C   UNL     1     -42.703  53.698 -54.842  1.00  0.00     0.039 A 
ENDBRANCH  18  19
ENDBRANCH  13  18
ENDBRANCH   9  12
ENDBRANCH   1   8
TORSDOF 5
ENDMDL
MODEL 7
REMARK VINA RESULT:      -6.4      4.080      7.165
REMARK  5 active torsions:
REMARK  status: ('A' for Active; 'I' for Inactive)
REMARK    1  A    between atoms: C_2  and  C_3 
REMARK    2  A    between atoms: C_3  and  N_4 
REMARK       I    between atoms: N_4  and  C_5 
REMARK    3  A    between atoms: C_5  and  C_6 
REMARK    4  A    between atoms: C_7  and  O_8 
REMARK    5  A    between atoms: O_8  and  C_9 
ROOT
HETATM    1  C   UNL     1     -43.733  58.223 -57.320  1.00  0.00     0.121 C 
HETATM    2  C   UNL     1     -45.029  57.961 -58.017  1.00  0.00     0.091 C 
HETATM    3  N   UNL     1     -46.050  57.742 -58.524  1.00  0.00    -0.195 NA
HETATM    4  C   UNL     1     -43.394  59.713 -57.537  1.00  0.00     0.055 C 
ENDROOT
BRANCH   1   5
HETATM    5  C   UNL     1     -42.614  57.285 -57.900  1.00  0.00     0.020 C 
HETATM    6  C   UNL     1     -42.216  57.609 -59.348  1.00  0.00     0.013 C 
HETATM    7  C   UNL     1     -42.978  55.793 -57.804  1.00  0.00     0.013 C 
ENDBRANCH   1   5
BRANCH   1   8
HETATM    8  N   UNL     1     -43.939  57.964 -55.875  1.00  0.00    -0.335 N 
HETATM    9  C   UNL     1     -42.993  58.176 -54.900  1.00  0.00     0.257 C 
HETATM   10  O   UNL     1     -41.890  58.656 -55.137  1.00  0.00    -0.267 OA
HETATM   11  H   UNL     1     -44.828  57.553 -55.606  1.00  0.00     0.164 HD
BRANCH   9  12
HETATM   12  C   UNL     1     -43.312  57.746 -53.511  1.00  0.00     0.085 A 
HETATM   13  C   UNL     1     -42.447  57.057 -52.663  1.00  0.00     0.185 A 
HETATM   14  N   UNL     1     -42.761  56.729 -51.381  1.00  0.00    -0.236 NA
HETATM   15  C   UNL     1     -43.990  57.061 -50.935  1.00  0.00     0.119 A 
HETATM   16  C   UNL     1     -44.931  57.717 -51.708  1.00  0.00     0.020 A 
HETATM   17  C   UNL     1     -44.584  58.061 -53.012  1.00  0.00     0.023 A 
BRANCH  13  18
HETATM   18  O   UNL     1     -41.181  56.725 -53.135  1.00  0.00    -0.291 OA
BRANCH  18  19
HETATM   19  C   UNL     1     -40.956  55.418 -53.497  1.00  0.00     0.078 A 
HETATM   20  C   UNL     1     -40.632  55.053 -54.806  1.00  0.00     0.039 A 
HETATM   21  C   UNL     1     -40.371  53.715 -55.109  1.00  0.00     0.026 A 
HETATM   22  C   UNL     1     -40.411  52.756 -54.098  1.00  0.00     0.034 A 
HETATM   23 CL   UNL     1     -40.093  51.107 -54.473  1.00  0.00    -0.084 Cl
HETATM   24  C   UNL     1     -40.701  53.123 -52.785  1.00  0.00     0.026 A 
HETATM   25  C   UNL     1     -40.966  54.460 -52.481  1.00  0.00     0.039 A 
ENDBRANCH  18  19
ENDBRANCH  13  18
ENDBRANCH   9  12
ENDBRANCH   1   8
TORSDOF 5
ENDMDL
MODEL 8
REMARK VINA RESULT:      -6.4      4.762      7.908
REMARK  5 active torsions:
REMARK  status: ('A' for Active; 'I' for Inactive)
REMARK    1  A    between atoms: C_2  and  C_3 
REMARK    2  A    between atoms: C_3  and  N_4 
REMARK       I    between atoms: N_4  and  C_5 
REMARK    3  A    between atoms: C_5  and  C_6 
REMARK    4  A    between atoms: C_7  and  O_8 
REMARK    5  A    between atoms: O_8  and  C_9 
ROOT
HETATM    1  C   UNL     1     -44.235  57.424 -58.795  1.00  0.00     0.121 C 
HETATM    2  C   UNL     1     -45.723  57.336 -58.912  1.00  0.00     0.091 C 
HETATM    3  N   UNL     1     -46.880  57.272 -58.963  1.00  0.00    -0.195 NA
HETATM    4  C   UNL     1     -43.770  58.546 -59.746  1.00  0.00     0.055 C 
ENDROOT
BRANCH   1   5
HETATM    5  C   UNL     1     -43.587  56.042 -59.170  1.00  0.00     0.020 C 
HETATM    6  C   UNL     1     -42.273  56.161 -59.956  1.00  0.00     0.013 C 
HETATM    7  C   UNL     1     -44.549  55.121 -59.941  1.00  0.00     0.013 C 
ENDBRANCH   1   5
BRANCH   1   8
HETATM    8  N   UNL     1     -43.915  57.792 -57.395  1.00  0.00    -0.335 N 
HETATM    9  C   UNL     1     -42.703  58.286 -56.974  1.00  0.00     0.257 C 
HETATM   10  O   UNL     1     -41.777  58.519 -57.744  1.00  0.00    -0.267 OA
HETATM   11  H   UNL     1     -44.633  57.613 -56.700  1.00  0.00     0.164 HD
BRANCH   9  12
HETATM   12  C   UNL     1     -42.499  58.487 -55.514  1.00  0.00     0.085 A 
HETATM   13  C   UNL     1     -42.637  57.500 -54.539  1.00  0.00     0.185 A 
HETATM   14  N   UNL     1     -42.391  57.715 -53.219  1.00  0.00    -0.236 NA
HETATM   15  C   UNL     1     -42.032  58.961 -52.845  1.00  0.00     0.119 A 
HETATM   16  C   UNL     1     -41.899  60.014 -53.731  1.00  0.00     0.020 A 
HETATM   17  C   UNL     1     -42.137  59.771 -55.081  1.00  0.00     0.023 A 
BRANCH  13  18
HETATM   18  O   UNL     1     -43.003  56.220 -54.939  1.00  0.00    -0.291 OA
BRANCH  18  19
HETATM   19  C   UNL     1     -42.179  55.178 -54.580  1.00  0.00     0.078 A 
HETATM   20  C   UNL     1     -42.493  54.308 -53.533  1.00  0.00     0.039 A 
HETATM   21  C   UNL     1     -41.641  53.240 -53.240  1.00  0.00     0.026 A 
HETATM   22  C   UNL     1     -40.497  53.036 -54.010  1.00  0.00     0.034 A 
HETATM   23 CL   UNL     1     -39.447  51.722 -53.646  1.00  0.00    -0.084 Cl
HETATM   24  C   UNL     1     -40.200  53.883 -55.077  1.00  0.00     0.026 A 
HETATM   25  C   UNL     1     -41.049  54.953 -55.369  1.00  0.00     0.039 A 
ENDBRANCH  18  19
ENDBRANCH  13  18
ENDBRANCH   9  12
ENDBRANCH   1   8
TORSDOF 5
ENDMDL
MODEL 9
REMARK VINA RESULT:      -6.4      4.653      7.899
REMARK  5 active torsions:
REMARK  status: ('A' for Active; 'I' for Inactive)
REMARK    1  A    between atoms: C_2  and  C_3 
REMARK    2  A    between atoms: C_3  and  N_4 
REMARK       I    between atoms: N_4  and  C_5 
REMARK    3  A    between atoms: C_5  and  C_6 
REMARK    4  A    between atoms: C_7  and  O_8 
REMARK    5  A    between atoms: O_8  and  C_9 
ROOT
HETATM    1  C   UNL     1     -44.130  56.593 -59.098  1.00  0.00     0.121 C 
HETATM    2  C   UNL     1     -43.002  57.373 -59.691  1.00  0.00     0.091 C 
HETATM    3  N   UNL     1     -42.126  58.003 -60.120  1.00  0.00    -0.195 NA
HETATM    4  C   UNL     1     -43.699  55.111 -59.083  1.00  0.00     0.055 C 
ENDROOT
BRANCH   1   5
HETATM    5  C   UNL     1     -45.434  56.808 -59.947  1.00  0.00     0.020 C 
HETATM    6  C   UNL     1     -46.641  57.290 -59.128  1.00  0.00     0.013 C 
HETATM    7  C   UNL     1     -45.840  55.557 -60.746  1.00  0.00     0.013 C 
ENDBRANCH   1   5
BRANCH   1   8
HETATM    8  N   UNL     1     -44.325  57.070 -57.707  1.00  0.00    -0.335 N 
HETATM    9  C   UNL     1     -43.410  56.915 -56.692  1.00  0.00     0.257 C 
HETATM   10  O   UNL     1     -42.309  56.402 -56.862  1.00  0.00    -0.267 OA
HETATM   11  H   UNL     1     -45.222  57.494 -57.491  1.00  0.00     0.164 HD
BRANCH   9  12
HETATM   12  C   UNL     1     -43.809  57.337 -55.322  1.00  0.00     0.085 A 
HETATM   13  C   UNL     1     -44.043  56.476 -54.251  1.00  0.00     0.185 A 
HETATM   14  N   UNL     1     -44.356  56.908 -53.000  1.00  0.00    -0.236 NA
HETATM   15  C   UNL     1     -44.477  58.239 -52.811  1.00  0.00     0.119 A 
HETATM   16  C   UNL     1     -44.295  59.171 -53.815  1.00  0.00     0.020 A 
HETATM   17  C   UNL     1     -43.958  58.711 -55.085  1.00  0.00     0.023 A 
BRANCH  13  18
HETATM   18  O   UNL     1     -43.910  55.107 -54.459  1.00  0.00    -0.291 OA
BRANCH  18  19
HETATM   19  C   UNL     1     -42.870  54.464 -53.830  1.00  0.00     0.078 A 
HETATM   20  C   UNL     1     -42.774  54.389 -52.438  1.00  0.00     0.039 A 
HETATM   21  C   UNL     1     -41.719  53.685 -51.852  1.00  0.00     0.026 A 
HETATM   22  C   UNL     1     -40.785  53.040 -52.660  1.00  0.00     0.034 A 
HETATM   23 CL   UNL     1     -39.484  52.175 -51.937  1.00  0.00    -0.084 Cl
HETATM   24  C   UNL     1     -40.898  53.085 -54.049  1.00  0.00     0.026 A 
HETATM   25  C   UNL     1     -41.950  53.792 -54.637  1.00  0.00     0.039 A 
ENDBRANCH  18  19
ENDBRANCH  13  18
ENDBRANCH   9  12
ENDBRANCH   1   8
TORSDOF 5
ENDMDL
MODEL 10
REMARK VINA RESULT:      -6.3      3.125      5.817
REMARK  5 active torsions:
REMARK  status: ('A' for Active; 'I' for Inactive)
REMARK    1  A    between atoms: C_2  and  C_3 
REMARK    2  A    between atoms: C_3  and  N_4 
REMARK       I    between atoms: N_4  and  C_5 
REMARK    3  A    between atoms: C_5  and  C_6 
REMARK    4  A    between atoms: C_7  and  O_8 
REMARK    5  A    between atoms: O_8  and  C_9 
ROOT
HETATM    1  C   UNL     1     -41.482  54.229 -52.487  1.00  0.00     0.121 C 
HETATM    2  C   UNL     1     -40.394  53.675 -51.625  1.00  0.00     0.091 C 
HETATM    3  N   UNL     1     -39.537  53.281 -50.949  1.00  0.00    -0.195 NA
HETATM    4  C   UNL     1     -42.811  53.627 -51.985  1.00  0.00     0.055 C 
ENDROOT
BRANCH   1   5
HETATM    5  C   UNL     1     -41.212  53.863 -53.991  1.00  0.00     0.020 C 
HETATM    6  C   UNL     1     -40.632  52.455 -54.196  1.00  0.00     0.013 C 
HETATM    7  C   UNL     1     -40.306  54.885 -54.701  1.00  0.00     0.013 C 
ENDBRANCH   1   5
BRANCH   1   8
HETATM    8  N   UNL     1     -41.499  55.700 -52.300  1.00  0.00    -0.335 N 
HETATM    9  C   UNL     1     -41.767  56.333 -51.109  1.00  0.00     0.257 C 
HETATM   10  O   UNL     1     -41.971  55.725 -50.064  1.00  0.00    -0.267 OA
HETATM   11  H   UNL     1     -41.350  56.268 -53.128  1.00  0.00     0.164 HD
BRANCH   9  12
HETATM   12  C   UNL     1     -41.870  57.818 -51.115  1.00  0.00     0.085 A 
HETATM   13  C   UNL     1     -42.839  58.554 -51.795  1.00  0.00     0.185 A 
HETATM   14  N   UNL     1     -42.927  59.910 -51.731  1.00  0.00    -0.236 NA
HETATM   15  C   UNL     1     -42.001  60.563 -50.998  1.00  0.00     0.119 A 
HETATM   16  C   UNL     1     -40.982  59.926 -50.314  1.00  0.00     0.020 A 
HETATM   17  C   UNL     1     -40.919  58.536 -50.376  1.00  0.00     0.023 A 
BRANCH  13  18
HETATM   18  O   UNL     1     -43.791  57.869 -52.541  1.00  0.00    -0.291 OA
BRANCH  18  19
HETATM   19  C   UNL     1     -43.793  58.058 -53.903  1.00  0.00     0.078 A 
HETATM   20  C   UNL     1     -42.629  57.960 -54.671  1.00  0.00     0.039 A 
HETATM   21  C   UNL     1     -42.696  58.119 -56.057  1.00  0.00     0.026 A 
HETATM   22  C   UNL     1     -43.928  58.349 -56.668  1.00  0.00     0.034 A 
HETATM   23 CL   UNL     1     -44.009  58.548 -58.375  1.00  0.00    -0.084 Cl
HETATM   24  C   UNL     1     -45.095  58.413 -55.908  1.00  0.00     0.026 A 
HETATM   25  C   UNL     1     -45.029  58.258 -54.521  1.00  0.00     0.039 A 
ENDBRANCH  18  19
ENDBRANCH  13  18
ENDBRANCH   9  12
ENDBRANCH   1   8
TORSDOF 5
ENDMDL
