MODEL 1
REMARK VINA RESULT:      -7.6      0.000      0.000
REMARK  2 active torsions:
REMARK  status: ('A' for Active; 'I' for Inactive)
REMARK    1  A    between atoms: C_7  and  N_8 
REMARK       I    between atoms: N_8  and  C_9 
REMARK       I    between atoms: C_9  and  N_10 
REMARK    2  A    between atoms: N_10  and  C_11 
ROOT
HETATM    1  C   UNL     1     -40.219  52.395 -52.346  1.00  0.00     0.025 A 
HETATM    2  C   UNL     1     -40.013  51.999 -53.667  1.00  0.00     0.044 A 
HETATM    3  C   UNL     1     -39.643  50.647 -53.971  1.00  0.00     0.099 C 
HETATM    4  N   UNL     1     -39.355  49.554 -54.228  1.00  0.00    -0.191 NA
HETATM    5  C   UNL     1     -40.196  52.925 -54.697  1.00  0.00     0.025 A 
HETATM    6  C   UNL     1     -40.597  54.236 -54.409  1.00  0.00     0.031 A 
HETATM    7  C   UNL     1     -40.808  54.640 -53.087  1.00  0.00     0.036 A 
HETATM    8  C   UNL     1     -40.615  53.707 -52.060  1.00  0.00     0.031 A 
ENDROOT
BRANCH   7   9
HETATM    9  N   UNL     1     -41.313  55.901 -52.710  1.00  0.00    -0.309 N 
HETATM   10  C   UNL     1     -42.215  56.716 -53.314  1.00  0.00     0.321 C 
HETATM   11  N   UNL     1     -42.238  56.730 -54.670  1.00  0.00    -0.338 N 
HETATM   12  O   UNL     1     -42.953  57.419 -52.631  1.00  0.00    -0.247 OA
HETATM   13  H   UNL     1     -41.360  56.452 -55.098  1.00  0.00     0.164 HD
HETATM   14  H   UNL     1     -41.181  56.144 -51.733  1.00  0.00     0.170 HD
BRANCH  11  15
HETATM   15  C   UNL     1     -43.246  57.346 -55.528  1.00  0.00     0.089 C 
HETATM   16  C   UNL     1     -43.479  56.665 -56.896  1.00  0.00     0.058 C 
HETATM   17  C   UNL     1     -42.620  57.222 -58.020  1.00  0.00     0.190 C 
HETATM   18  N   UNL     1     -42.695  58.726 -58.023  1.00  0.00    -0.067 N 
HETATM   19  C   UNL     1     -43.051  56.915 -59.444  1.00  0.00     0.035 C 
HETATM   20  H   UNL     1     -43.679  59.008 -58.120  1.00  0.00     0.280 HD
HETATM   21  C   UNL     1     -42.157  59.321 -56.765  1.00  0.00     0.237 C 
HETATM   22  C   UNL     1     -42.009  59.130 -59.302  1.00  0.00     0.235 C 
HETATM   23  C   UNL     1     -43.054  58.870 -55.620  1.00  0.00     0.053 C 
HETATM   24  C   UNL     1     -42.302  57.973 -60.260  1.00  0.00     0.030 C 
ENDBRANCH  11  15
ENDBRANCH   7   9
TORSDOF 2
ENDMDL
MODEL 2
REMARK VINA RESULT:      -7.5      1.988      3.010
REMARK  2 active torsions:
REMARK  status: ('A' for Active; 'I' for Inactive)
REMARK    1  A    between atoms: C_7  and  N_8 
REMARK       I    between atoms: N_8  and  C_9 
REMARK       I    between atoms: C_9  and  N_10 
REMARK    2  A    between atoms: N_10  and  C_11 
ROOT
HETATM    1  C   UNL     1     -40.012  54.048 -54.657  1.00  0.00     0.025 A 
HETATM    2  C   UNL     1     -40.967  53.043 -54.493  1.00  0.00     0.044 A 
HETATM    3  C   UNL     1     -40.562  51.675 -54.350  1.00  0.00     0.099 C 
HETATM    4  N   UNL     1     -40.245  50.568 -54.221  1.00  0.00    -0.191 NA
HETATM    5  C   UNL     1     -42.321  53.384 -54.445  1.00  0.00     0.025 A 
HETATM    6  C   UNL     1     -42.718  54.724 -54.544  1.00  0.00     0.031 A 
HETATM    7  C   UNL     1     -41.768  55.737 -54.705  1.00  0.00     0.036 A 
HETATM    8  C   UNL     1     -40.413  55.385 -54.761  1.00  0.00     0.031 A 
ENDROOT
BRANCH   7   9
HETATM    9  N   UNL     1     -42.065  57.115 -54.707  1.00  0.00    -0.309 N 
HETATM   10  C   UNL     1     -42.573  57.915 -55.680  1.00  0.00     0.321 C 
HETATM   11  N   UNL     1     -42.231  57.637 -56.962  1.00  0.00    -0.338 N 
HETATM   12  O   UNL     1     -43.292  58.860 -55.376  1.00  0.00    -0.247 OA
HETATM   13  H   UNL     1     -41.354  57.132 -57.053  1.00  0.00     0.164 HD
HETATM   14  H   UNL     1     -42.148  57.540 -53.789  1.00  0.00     0.170 HD
BRANCH  11  15
HETATM   15  C   UNL     1     -42.814  58.206 -58.174  1.00  0.00     0.089 C 
HETATM   16  C   UNL     1     -44.355  58.161 -58.271  1.00  0.00     0.058 C 
HETATM   17  C   UNL     1     -44.896  56.918 -58.960  1.00  0.00     0.190 C 
HETATM   18  N   UNL     1     -44.157  56.688 -60.253  1.00  0.00    -0.067 N 
HETATM   19  C   UNL     1     -46.329  56.967 -59.461  1.00  0.00     0.035 C 
HETATM   20  H   UNL     1     -44.254  57.525 -60.843  1.00  0.00     0.280 HD
HETATM   21  C   UNL     1     -42.703  56.434 -60.034  1.00  0.00     0.237 C 
HETATM   22  C   UNL     1     -44.934  55.593 -60.936  1.00  0.00     0.235 C 
HETATM   23  C   UNL     1     -42.097  57.697 -59.437  1.00  0.00     0.053 C 
HETATM   24  C   UNL     1     -46.375  55.817 -60.472  1.00  0.00     0.030 C 
ENDBRANCH  11  15
ENDBRANCH   7   9
TORSDOF 2
ENDMDL
MODEL 3
REMARK VINA RESULT:      -7.5      1.213      1.568
REMARK  2 active torsions:
REMARK  status: ('A' for Active; 'I' for Inactive)
REMARK    1  A    between atoms: C_7  and  N_8 
REMARK       I    between atoms: N_8  and  C_9 
REMARK       I    between atoms: C_9  and  N_10 
REMARK    2  A    between atoms: N_10  and  C_11 
ROOT
HETATM    1  C   UNL     1     -39.778  51.768 -51.962  1.00  0.00     0.025 A 
HETATM    2  C   UNL     1     -39.947  51.573 -53.333  1.00  0.00     0.044 A 
HETATM    3  C   UNL     1     -39.623  50.312 -53.932  1.00  0.00     0.099 C 
HETATM    4  N   UNL     1     -39.374  49.292 -54.424  1.00  0.00    -0.191 NA
HETATM    5  C   UNL     1     -40.460  52.611 -54.115  1.00  0.00     0.025 A 
HETATM    6  C   UNL     1     -40.817  53.832 -53.527  1.00  0.00     0.031 A 
HETATM    7  C   UNL     1     -40.653  54.034 -52.154  1.00  0.00     0.036 A 
HETATM    8  C   UNL     1     -40.130  52.991 -51.378  1.00  0.00     0.031 A 
ENDROOT
BRANCH   7   9
HETATM    9  N   UNL     1     -41.081  55.185 -51.461  1.00  0.00    -0.309 N 
HETATM   10  C   UNL     1     -41.965  56.155 -51.807  1.00  0.00     0.321 C 
HETATM   11  N   UNL     1     -42.039  56.498 -53.117  1.00  0.00    -0.338 N 
HETATM   12  O   UNL     1     -42.640  56.700 -50.940  1.00  0.00    -0.247 OA
HETATM   13  H   UNL     1     -41.193  56.298 -53.642  1.00  0.00     0.164 HD
HETATM   14  H   UNL     1     -40.900  55.179 -50.462  1.00  0.00     0.170 HD
BRANCH  11  15
HETATM   15  C   UNL     1     -43.048  57.341 -53.753  1.00  0.00     0.089 C 
HETATM   16  C   UNL     1     -43.431  56.964 -55.201  1.00  0.00     0.058 C 
HETATM   17  C   UNL     1     -42.607  57.672 -56.264  1.00  0.00     0.190 C 
HETATM   18  N   UNL     1     -42.554  59.148 -55.971  1.00  0.00    -0.067 N 
HETATM   19  C   UNL     1     -43.159  57.686 -57.679  1.00  0.00     0.035 C 
HETATM   20  H   UNL     1     -43.516  59.512 -55.928  1.00  0.00     0.280 HD
HETATM   21  C   UNL     1     -41.883  59.442 -54.671  1.00  0.00     0.237 C 
HETATM   22  C   UNL     1     -41.926  59.751 -57.201  1.00  0.00     0.235 C 
HETATM   23  C   UNL     1     -42.734  58.836 -53.563  1.00  0.00     0.053 C 
HETATM   24  C   UNL     1     -42.381  58.831 -58.336  1.00  0.00     0.030 C 
ENDBRANCH  11  15
ENDBRANCH   7   9
TORSDOF 2
ENDMDL
MODEL 4
REMARK VINA RESULT:      -7.4     14.912     17.975
REMARK  2 active torsions:
REMARK  status: ('A' for Active; 'I' for Inactive)
REMARK    1  A    between atoms: C_7  and  N_8 
REMARK       I    between atoms: N_8  and  C_9 
REMARK       I    between atoms: C_9  and  N_10 
REMARK    2  A    between atoms: N_10  and  C_11 
ROOT
HETATM    1  C   UNL     1     -36.484  41.639 -58.487  1.00  0.00     0.025 A 
HETATM    2  C   UNL     1     -37.456  40.691 -58.809  1.00  0.00     0.044 A 
HETATM    3  C   UNL     1     -37.512  40.127 -60.126  1.00  0.00     0.099 C 
HETATM    4  N   UNL     1     -37.557  39.657 -61.185  1.00  0.00    -0.191 NA
HETATM    5  C   UNL     1     -38.360  40.274 -57.828  1.00  0.00     0.025 A 
HETATM    6  C   UNL     1     -38.284  40.792 -56.528  1.00  0.00     0.031 A 
HETATM    7  C   UNL     1     -37.312  41.740 -56.198  1.00  0.00     0.036 A 
HETATM    8  C   UNL     1     -36.414  42.158 -57.189  1.00  0.00     0.031 A 
ENDROOT
BRANCH   7   9
HETATM    9  N   UNL     1     -37.092  42.236 -54.895  1.00  0.00    -0.309 N 
HETATM   10  C   UNL     1     -36.137  41.935 -53.978  1.00  0.00     0.321 C 
HETATM   11  N   UNL     1     -35.685  40.657 -53.938  1.00  0.00    -0.338 N 
HETATM   12  O   UNL     1     -35.735  42.804 -53.212  1.00  0.00    -0.247 OA
HETATM   13  H   UNL     1     -36.346  39.977 -54.302  1.00  0.00     0.164 HD
HETATM   14  H   UNL     1     -37.553  43.115 -54.685  1.00  0.00     0.170 HD
BRANCH  11  15
HETATM   15  C   UNL     1     -34.529  40.153 -53.203  1.00  0.00     0.089 C 
HETATM   16  C   UNL     1     -33.150  40.408 -53.852  1.00  0.00     0.058 C 
HETATM   17  C   UNL     1     -32.677  39.287 -54.763  1.00  0.00     0.190 C 
HETATM   18  N   UNL     1     -32.830  37.961 -54.066  1.00  0.00    -0.067 N 
HETATM   19  C   UNL     1     -31.200  39.251 -55.115  1.00  0.00     0.035 C 
HETATM   20  H   UNL     1     -32.299  37.987 -53.185  1.00  0.00     0.280 HD
HETATM   21  C   UNL     1     -34.255  37.654 -53.745  1.00  0.00     0.237 C 
HETATM   22  C   UNL     1     -32.119  36.983 -54.963  1.00  0.00     0.235 C 
HETATM   23  C   UNL     1     -34.741  38.697 -52.749  1.00  0.00     0.053 C 
HETATM   24  C   UNL     1     -31.002  37.812 -55.601  1.00  0.00     0.030 C 
ENDBRANCH  11  15
ENDBRANCH   7   9
TORSDOF 2
ENDMDL
MODEL 5
REMARK VINA RESULT:      -7.2      2.809      6.980
REMARK  2 active torsions:
REMARK  status: ('A' for Active; 'I' for Inactive)
REMARK    1  A    between atoms: C_7  and  N_8 
REMARK       I    between atoms: N_8  and  C_9 
REMARK       I    between atoms: C_9  and  N_10 
REMARK    2  A    between atoms: N_10  and  C_11 
ROOT
HETATM    1  C   UNL     1     -45.124  57.147 -59.336  1.00  0.00     0.025 A 
HETATM    2  C   UNL     1     -44.211  56.356 -60.035  1.00  0.00     0.044 A 
HETATM    3  C   UNL     1     -44.664  55.450 -61.050  1.00  0.00     0.099 C 
HETATM    4  N   UNL     1     -45.019  54.723 -61.880  1.00  0.00    -0.191 NA
HETATM    5  C   UNL     1     -42.847  56.474 -59.755  1.00  0.00     0.025 A 
HETATM    6  C   UNL     1     -42.397  57.387 -58.793  1.00  0.00     0.031 A 
HETATM    7  C   UNL     1     -43.304  58.184 -58.091  1.00  0.00     0.036 A 
HETATM    8  C   UNL     1     -44.671  58.055 -58.372  1.00  0.00     0.031 A 
ENDROOT
BRANCH   7   9
HETATM    9  N   UNL     1     -42.938  59.202 -57.186  1.00  0.00    -0.309 N 
HETATM   10  C   UNL     1     -42.258  59.146 -56.012  1.00  0.00     0.321 C 
HETATM   11  N   UNL     1     -42.433  58.046 -55.238  1.00  0.00    -0.338 N 
HETATM   12  O   UNL     1     -41.540  60.082 -55.680  1.00  0.00    -0.247 OA
HETATM   13  H   UNL     1     -43.314  57.567 -55.398  1.00  0.00     0.164 HD
HETATM   14  H   UNL     1     -42.962  60.144 -57.563  1.00  0.00     0.170 HD
BRANCH  11  15
HETATM   15  C   UNL     1     -41.658  57.664 -54.061  1.00  0.00     0.089 C 
HETATM   16  C   UNL     1     -41.454  56.147 -53.847  1.00  0.00     0.058 C 
HETATM   17  C   UNL     1     -42.520  55.495 -52.981  1.00  0.00     0.190 C 
HETATM   18  N   UNL     1     -42.728  56.304 -51.728  1.00  0.00    -0.067 N 
HETATM   19  C   UNL     1     -42.199  54.134 -52.387  1.00  0.00     0.035 C 
HETATM   20  H   UNL     1     -41.830  56.384 -51.233  1.00  0.00     0.280 HD
HETATM   21  C   UNL     1     -43.225  57.680 -52.022  1.00  0.00     0.237 C 
HETATM   22  C   UNL     1     -43.613  55.441 -50.869  1.00  0.00     0.235 C 
HETATM   23  C   UNL     1     -42.140  58.409 -52.803  1.00  0.00     0.053 C 
HETATM   24  C   UNL     1     -43.217  54.012 -51.249  1.00  0.00     0.030 C 
ENDBRANCH  11  15
ENDBRANCH   7   9
TORSDOF 2
ENDMDL
MODEL 6
REMARK VINA RESULT:      -7.1      2.821      4.779
REMARK  2 active torsions:
REMARK  status: ('A' for Active; 'I' for Inactive)
REMARK    1  A    between atoms: C_7  and  N_8 
REMARK       I    between atoms: N_8  and  C_9 
REMARK       I    between atoms: C_9  and  N_10 
REMARK    2  A    between atoms: N_10  and  C_11 
ROOT
HETATM    1  C   UNL     1     -39.955  53.325 -54.636  1.00  0.00     0.025 A 
HETATM    2  C   UNL     1     -40.617  52.990 -53.455  1.00  0.00     0.044 A 
HETATM    3  C   UNL     1     -39.996  52.123 -52.496  1.00  0.00     0.099 C 
HETATM    4  N   UNL     1     -39.498  51.432 -51.710  1.00  0.00    -0.191 NA
HETATM    5  C   UNL     1     -41.881  53.527 -53.200  1.00  0.00     0.025 A 
HETATM    6  C   UNL     1     -42.475  54.407 -54.115  1.00  0.00     0.031 A 
HETATM    7  C   UNL     1     -41.817  54.750 -55.299  1.00  0.00     0.036 A 
HETATM    8  C   UNL     1     -40.553  54.201 -55.550  1.00  0.00     0.031 A 
ENDROOT
BRANCH   7   9
HETATM    9  N   UNL     1     -42.286  55.706 -56.224  1.00  0.00    -0.309 N 
HETATM   10  C   UNL     1     -42.241  57.063 -56.203  1.00  0.00     0.321 C 
HETATM   11  N   UNL     1     -42.343  57.675 -54.997  1.00  0.00    -0.338 N 
HETATM   12  O   UNL     1     -42.134  57.684 -57.254  1.00  0.00    -0.247 OA
HETATM   13  H   UNL     1     -42.822  57.120 -54.294  1.00  0.00     0.164 HD
HETATM   14  H   UNL     1     -42.470  55.350 -57.157  1.00  0.00     0.170 HD
BRANCH  11  15
HETATM   15  C   UNL     1     -42.105  59.085 -54.700  1.00  0.00     0.089 C 
HETATM   16  C   UNL     1     -41.369  59.383 -53.375  1.00  0.00     0.058 C 
HETATM   17  C   UNL     1     -42.294  59.604 -52.189  1.00  0.00     0.190 C 
HETATM   18  N   UNL     1     -43.380  60.578 -52.561  1.00  0.00    -0.067 N 
HETATM   19  C   UNL     1     -41.709  60.290 -50.966  1.00  0.00     0.035 C 
HETATM   20  H   UNL     1     -42.945  61.456 -52.874  1.00  0.00     0.280 HD
HETATM   21  C   UNL     1     -44.244  60.065 -53.664  1.00  0.00     0.237 C 
HETATM   22  C   UNL     1     -44.069  60.886 -51.258  1.00  0.00     0.235 C 
HETATM   23  C   UNL     1     -43.376  59.927 -54.907  1.00  0.00     0.053 C 
HETATM   24  C   UNL     1     -42.955  60.766 -50.215  1.00  0.00     0.030 C 
ENDBRANCH  11  15
ENDBRANCH   7   9
TORSDOF 2
ENDMDL
MODEL 7
REMARK VINA RESULT:      -7.0      3.408      4.593
REMARK  2 active torsions:
REMARK  status: ('A' for Active; 'I' for Inactive)
REMARK    1  A    between atoms: C_7  and  N_8 
REMARK       I    between atoms: N_8  and  C_9 
REMARK       I    between atoms: C_9  and  N_10 
REMARK    2  A    between atoms: N_10  and  C_11 
ROOT
HETATM    1  C   UNL     1     -40.236  52.372 -52.117  1.00  0.00     0.025 A 
HETATM    2  C   UNL     1     -40.433  51.968 -53.438  1.00  0.00     0.044 A 
HETATM    3  C   UNL     1     -39.757  50.812 -53.951  1.00  0.00     0.099 C 
HETATM    4  N   UNL     1     -39.224  49.873 -54.372  1.00  0.00    -0.191 NA
HETATM    5  C   UNL     1     -41.316  52.684 -54.250  1.00  0.00     0.025 A 
HETATM    6  C   UNL     1     -42.010  53.790 -53.741  1.00  0.00     0.031 A 
HETATM    7  C   UNL     1     -41.820  54.199 -52.418  1.00  0.00     0.036 A 
HETATM    8  C   UNL     1     -40.927  53.480 -51.613  1.00  0.00     0.031 A 
ENDROOT
BRANCH   7   9
HETATM    9  N   UNL     1     -42.550  55.229 -51.790  1.00  0.00    -0.309 N 
HETATM   10  C   UNL     1     -42.329  56.567 -51.730  1.00  0.00     0.321 C 
HETATM   11  N   UNL     1     -41.041  56.989 -51.692  1.00  0.00    -0.338 N 
HETATM   12  O   UNL     1     -43.281  57.339 -51.688  1.00  0.00    -0.247 OA
HETATM   13  H   UNL     1     -40.393  56.298 -51.327  1.00  0.00     0.164 HD
HETATM   14  H   UNL     1     -43.508  54.994 -51.549  1.00  0.00     0.170 HD
BRANCH  11  15
HETATM   15  C   UNL     1     -40.557  58.358 -51.844  1.00  0.00     0.089 C 
HETATM   16  C   UNL     1     -41.103  59.387 -50.829  1.00  0.00     0.058 C 
HETATM   17  C   UNL     1     -42.361  60.105 -51.291  1.00  0.00     0.190 C 
HETATM   18  N   UNL     1     -42.173  60.616 -52.695  1.00  0.00    -0.067 N 
HETATM   19  C   UNL     1     -42.734  61.389 -50.571  1.00  0.00     0.035 C 
HETATM   20  H   UNL     1     -41.352  61.235 -52.715  1.00  0.00     0.280 HD
HETATM   21  C   UNL     1     -41.951  59.511 -53.672  1.00  0.00     0.237 C 
HETATM   22  C   UNL     1     -43.373  61.493 -52.936  1.00  0.00     0.235 C 
HETATM   23  C   UNL     1     -40.640  58.826 -53.308  1.00  0.00     0.053 C 
HETATM   24  C   UNL     1     -43.701  62.059 -51.552  1.00  0.00     0.030 C 
ENDBRANCH  11  15
ENDBRANCH   7   9
TORSDOF 2
ENDMDL
MODEL 8
REMARK VINA RESULT:      -7.0     14.998     17.712
REMARK  2 active torsions:
REMARK  status: ('A' for Active; 'I' for Inactive)
REMARK    1  A    between atoms: C_7  and  N_8 
REMARK       I    between atoms: N_8  and  C_9 
REMARK       I    between atoms: C_9  and  N_10 
REMARK    2  A    between atoms: N_10  and  C_11 
ROOT
HETATM    1  C   UNL     1     -38.138  40.890 -57.576  1.00  0.00     0.025 A 
HETATM    2  C   UNL     1     -37.049  40.802 -58.443  1.00  0.00     0.044 A 
HETATM    3  C   UNL     1     -37.222  40.310 -59.778  1.00  0.00     0.099 C 
HETATM    4  N   UNL     1     -37.354  39.925 -60.864  1.00  0.00    -0.191 NA
HETATM    5  C   UNL     1     -35.789  41.222 -58.007  1.00  0.00     0.025 A 
HETATM    6  C   UNL     1     -35.622  41.741 -56.716  1.00  0.00     0.031 A 
HETATM    7  C   UNL     1     -36.709  41.835 -55.843  1.00  0.00     0.036 A 
HETATM    8  C   UNL     1     -37.967  41.405 -56.285  1.00  0.00     0.031 A 
ENDROOT
BRANCH   7   9
HETATM    9  N   UNL     1     -36.659  42.440 -54.570  1.00  0.00    -0.309 N 
HETATM   10  C   UNL     1     -36.373  41.920 -53.349  1.00  0.00     0.321 C 
HETATM   11  N   UNL     1     -36.755  40.642 -53.105  1.00  0.00    -0.338 N 
HETATM   12  O   UNL     1     -35.809  42.614 -52.509  1.00  0.00    -0.247 OA
HETATM   13  H   UNL     1     -37.535  40.331 -53.678  1.00  0.00     0.164 HD
HETATM   14  H   UNL     1     -36.584  43.452 -54.575  1.00  0.00     0.170 HD
BRANCH  11  15
HETATM   15  C   UNL     1     -36.373  39.808 -51.970  1.00  0.00     0.089 C 
HETATM   16  C   UNL     1     -35.417  40.456 -50.944  1.00  0.00     0.058 C 
HETATM   17  C   UNL     1     -33.944  40.212 -51.229  1.00  0.00     0.190 C 
HETATM   18  N   UNL     1     -33.710  38.749 -51.499  1.00  0.00    -0.067 N 
HETATM   19  C   UNL     1     -32.965  40.449 -50.092  1.00  0.00     0.035 C 
HETATM   20  H   UNL     1     -34.037  38.207 -50.687  1.00  0.00     0.280 HD
HETATM   21  C   UNL     1     -34.445  38.274 -52.707  1.00  0.00     0.237 C 
HETATM   22  C   UNL     1     -32.211  38.610 -51.528  1.00  0.00     0.235 C 
HETATM   23  C   UNL     1     -35.936  38.404 -52.424  1.00  0.00     0.053 C 
HETATM   24  C   UNL     1     -31.721  39.680 -50.549  1.00  0.00     0.030 C 
ENDBRANCH  11  15
ENDBRANCH   7   9
TORSDOF 2
ENDMDL
MODEL 9
REMARK VINA RESULT:      -6.9      2.086      2.742
REMARK  2 active torsions:
REMARK  status: ('A' for Active; 'I' for Inactive)
REMARK    1  A    between atoms: C_7  and  N_8 
REMARK       I    between atoms: N_8  and  C_9 
REMARK       I    between atoms: C_9  and  N_10 
REMARK    2  A    between atoms: N_10  and  C_11 
ROOT
HETATM    1  C   UNL     1     -42.075  53.546 -52.077  1.00  0.00     0.025 A 
HETATM    2  C   UNL     1     -40.839  53.479 -51.435  1.00  0.00     0.044 A 
HETATM    3  C   UNL     1     -39.889  52.466 -51.793  1.00  0.00     0.099 C 
HETATM    4  N   UNL     1     -39.110  51.658 -52.084  1.00  0.00    -0.191 NA
HETATM    5  C   UNL     1     -40.522  54.423 -50.455  1.00  0.00     0.025 A 
HETATM    6  C   UNL     1     -41.431  55.440 -50.130  1.00  0.00     0.031 A 
HETATM    7  C   UNL     1     -42.670  55.515 -50.771  1.00  0.00     0.036 A 
HETATM    8  C   UNL     1     -42.983  54.559 -51.747  1.00  0.00     0.031 A 
ENDROOT
BRANCH   7   9
HETATM    9  N   UNL     1     -43.600  56.559 -50.587  1.00  0.00    -0.309 N 
HETATM   10  C   UNL     1     -44.348  57.253 -51.483  1.00  0.00     0.321 C 
HETATM   11  N   UNL     1     -43.806  57.490 -52.703  1.00  0.00    -0.338 N 
HETATM   12  O   UNL     1     -45.460  57.658 -51.163  1.00  0.00    -0.247 OA
HETATM   13  H   UNL     1     -42.790  57.481 -52.710  1.00  0.00     0.164 HD
HETATM   14  H   UNL     1     -43.958  56.657 -49.643  1.00  0.00     0.170 HD
BRANCH  11  15
HETATM   15  C   UNL     1     -44.486  58.012 -53.885  1.00  0.00     0.089 C 
HETATM   16  C   UNL     1     -44.331  57.182 -55.179  1.00  0.00     0.058 C 
HETATM   17  C   UNL     1     -43.154  57.600 -56.046  1.00  0.00     0.190 C 
HETATM   18  N   UNL     1     -43.160  59.095 -56.231  1.00  0.00    -0.067 N 
HETATM   19  C   UNL     1     -43.155  57.138 -57.493  1.00  0.00     0.035 C 
HETATM   20  H   UNL     1     -44.059  59.373 -56.648  1.00  0.00     0.280 HD
HETATM   21  C   UNL     1     -42.996  59.824 -54.940  1.00  0.00     0.237 C 
HETATM   22  C   UNL     1     -42.110  59.345 -57.281  1.00  0.00     0.235 C 
HETATM   23  C   UNL     1     -44.211  59.515 -54.075  1.00  0.00     0.053 C 
HETATM   24  C   UNL     1     -42.153  58.089 -58.154  1.00  0.00     0.030 C 
ENDBRANCH  11  15
ENDBRANCH   7   9
TORSDOF 2
ENDMDL
MODEL 10
REMARK VINA RESULT:      -6.9     14.922     16.676
REMARK  2 active torsions:
REMARK  status: ('A' for Active; 'I' for Inactive)
REMARK    1  A    between atoms: C_7  and  N_8 
REMARK       I    between atoms: N_8  and  C_9 
REMARK       I    between atoms: C_9  and  N_10 
REMARK    2  A    between atoms: N_10  and  C_11 
ROOT
HETATM    1  C   UNL     1     -33.794  41.465 -50.963  1.00  0.00     0.025 A 
HETATM    2  C   UNL     1     -33.508  40.180 -50.502  1.00  0.00     0.044 A 
HETATM    3  C   UNL     1     -32.247  39.895 -49.881  1.00  0.00     0.099 C 
HETATM    4  N   UNL     1     -31.235  39.658 -49.368  1.00  0.00    -0.191 NA
HETATM    5  C   UNL     1     -34.472  39.176 -50.626  1.00  0.00     0.025 A 
HETATM    6  C   UNL     1     -35.721  39.459 -51.194  1.00  0.00     0.031 A 
HETATM    7  C   UNL     1     -36.016  40.745 -51.655  1.00  0.00     0.036 A 
HETATM    8  C   UNL     1     -35.040  41.744 -51.535  1.00  0.00     0.031 A 
ENDROOT
BRANCH   7   9
HETATM    9  N   UNL     1     -37.277  41.148 -52.142  1.00  0.00    -0.309 N 
HETATM   10  C   UNL     1     -37.704  41.403 -53.406  1.00  0.00     0.321 C 
HETATM   11  N   UNL     1     -36.813  41.949 -54.270  1.00  0.00    -0.338 N 
HETATM   12  O   UNL     1     -38.864  41.158 -53.716  1.00  0.00    -0.247 OA
HETATM   13  H   UNL     1     -36.065  42.466 -53.817  1.00  0.00     0.164 HD
HETATM   14  H   UNL     1     -38.053  40.997 -51.506  1.00  0.00     0.170 HD
BRANCH  11  15
HETATM   15  C   UNL     1     -36.968  42.107 -55.713  1.00  0.00     0.089 C 
HETATM   16  C   UNL     1     -37.901  41.092 -56.410  1.00  0.00     0.058 C 
HETATM   17  C   UNL     1     -37.190  39.852 -56.929  1.00  0.00     0.190 C 
HETATM   18  N   UNL     1     -35.967  40.253 -57.712  1.00  0.00    -0.067 N 
HETATM   19  C   UNL     1     -37.921  39.010 -57.960  1.00  0.00     0.035 C 
HETATM   20  H   UNL     1     -36.255  40.877 -58.478  1.00  0.00     0.280 HD
HETATM   21  C   UNL     1     -34.969  40.974 -56.869  1.00  0.00     0.237 C 
HETATM   22  C   UNL     1     -35.502  38.974 -58.356  1.00  0.00     0.235 C 
HETATM   23  C   UNL     1     -35.606  42.279 -56.410  1.00  0.00     0.053 C 
HETATM   24  C   UNL     1     -36.792  38.184 -58.586  1.00  0.00     0.030 C 
ENDBRANCH  11  15
ENDBRANCH   7   9
TORSDOF 2
ENDMDL
