MODEL 1
REMARK VINA RESULT:      -8.1      0.000      0.000
REMARK  5 active torsions:
REMARK  status: ('A' for Active; 'I' for Inactive)
REMARK    1  A    between atoms: C_3  and  O_4 
REMARK    2  A    between atoms: O_4  and  C_5 
REMARK    3  A    between atoms: C_6  and  N_7 
REMARK       I    between atoms: N_7  and  C_8 
REMARK       I    between atoms: C_8  and  N_9 
REMARK    4  A    between atoms: N_9  and  C_10 
REMARK    5  A    between atoms: C_11  and  C_12 
ROOT
HETATM    1  C   UNL     1     -42.454  54.747 -49.932  1.00  0.00     0.014 C 
HETATM    2  C   UNL     1     -41.392  54.189 -49.972  1.00  0.00    -0.091 C 
HETATM    3  C   UNL     1     -40.093  53.508 -50.016  1.00  0.00     0.268 C 
ENDROOT
BRANCH   3   4
HETATM    4  O   UNL     1     -39.642  53.445 -51.374  1.00  0.00    -0.337 OA
BRANCH   4   5
HETATM    5  C   UNL     1     -39.754  52.195 -51.923  1.00  0.00     0.099 A 
HETATM    6  C   UNL     1     -39.801  52.071 -53.320  1.00  0.00     0.070 A 
HETATM    7  C   UNL     1     -39.748  50.788 -53.886  1.00  0.00     0.035 A 
HETATM    8  C   UNL     1     -39.754  49.650 -53.080  1.00  0.00     0.044 A 
HETATM    9  C   UNL     1     -39.795  49.796 -51.701  1.00  0.00     0.119 A 
HETATM   10  F   UNL     1     -39.819  48.706 -50.922  1.00  0.00    -0.206 F 
HETATM   11  C   UNL     1     -39.791  51.054 -51.114  1.00  0.00     0.081 A 
BRANCH   6  12
HETATM   12  N   UNL     1     -39.829  53.143 -54.230  1.00  0.00    -0.306 N 
HETATM   13  C   UNL     1     -40.658  54.219 -54.373  1.00  0.00     0.325 C 
HETATM   14  N   UNL     1     -41.719  54.350 -53.528  1.00  0.00    -0.305 N 
HETATM   15  O   UNL     1     -40.446  54.930 -55.361  1.00  0.00    -0.247 OA
HETATM   16  H   UNL     1     -41.648  53.973 -52.585  1.00  0.00     0.171 HD
HETATM   17  H   UNL     1     -39.301  53.027 -55.086  1.00  0.00     0.171 HD
BRANCH  14  18
HETATM   18  C   UNL     1     -42.838  55.137 -53.776  1.00  0.00     0.086 A 
HETATM   19  C   UNL     1     -43.055  56.515 -53.433  1.00  0.00     0.133 A 
HETATM   20  N   UNL     1     -44.288  56.909 -53.822  1.00  0.00    -0.171 NA
HETATM   21  N   UNL     1     -44.829  55.819 -54.378  1.00  0.00    -0.286 N 
HETATM   22  H   UNL     1     -45.774  55.880 -54.739  1.00  0.00     0.188 HD
HETATM   23  C   UNL     1     -44.009  54.738 -54.378  1.00  0.00     0.141 A 
BRANCH  19  24
HETATM   24  C   UNL     1     -42.132  57.450 -52.771  1.00  0.00     0.089 A 
HETATM   25  N   UNL     1     -40.982  57.756 -53.428  1.00  0.00    -0.259 NA
HETATM   26  C   UNL     1     -40.145  58.631 -52.829  1.00  0.00     0.117 A 
HETATM   27  C   UNL     1     -40.386  59.224 -51.601  1.00  0.00     0.019 A 
HETATM   28  C   UNL     1     -41.560  58.897 -50.938  1.00  0.00     0.004 A 
HETATM   29  C   UNL     1     -42.445  57.998 -51.526  1.00  0.00     0.034 A 
ENDBRANCH  19  24
ENDBRANCH  14  18
ENDBRANCH   6  12
ENDBRANCH   4   5
ENDBRANCH   3   4
TORSDOF 5
ENDMDL
MODEL 2
REMARK VINA RESULT:      -7.8      3.210      6.620
REMARK  5 active torsions:
REMARK  status: ('A' for Active; 'I' for Inactive)
REMARK    1  A    between atoms: C_3  and  O_4 
REMARK    2  A    between atoms: O_4  and  C_5 
REMARK    3  A    between atoms: C_6  and  N_7 
REMARK       I    between atoms: N_7  and  C_8 
REMARK       I    between atoms: C_8  and  N_9 
REMARK    4  A    between atoms: N_9  and  C_10 
REMARK    5  A    between atoms: C_11  and  C_12 
ROOT
HETATM    1  C   UNL     1     -42.272  58.456 -51.369  1.00  0.00     0.014 C 
HETATM    2  C   UNL     1     -42.963  58.581 -52.343  1.00  0.00    -0.091 C 
HETATM    3  C   UNL     1     -43.808  58.739 -53.532  1.00  0.00     0.268 C 
ENDROOT
BRANCH   3   4
HETATM    4  O   UNL     1     -44.460  57.494 -53.813  1.00  0.00    -0.337 OA
BRANCH   4   5
HETATM    5  C   UNL     1     -43.830  56.763 -54.785  1.00  0.00     0.099 A 
HETATM    6  C   UNL     1     -43.612  55.394 -54.567  1.00  0.00     0.070 A 
HETATM    7  C   UNL     1     -43.119  54.611 -55.623  1.00  0.00     0.035 A 
HETATM    8  C   UNL     1     -42.754  55.196 -56.835  1.00  0.00     0.044 A 
HETATM    9  C   UNL     1     -42.899  56.566 -56.999  1.00  0.00     0.119 A 
HETATM   10  F   UNL     1     -42.533  57.135 -58.155  1.00  0.00    -0.206 F 
HETATM   11  C   UNL     1     -43.435  57.354 -55.991  1.00  0.00     0.081 A 
BRANCH   6  12
HETATM   12  N   UNL     1     -43.910  54.703 -53.378  1.00  0.00    -0.306 N 
HETATM   13  C   UNL     1     -43.226  54.525 -52.210  1.00  0.00     0.325 C 
HETATM   14  N   UNL     1     -41.980  55.064 -52.087  1.00  0.00    -0.305 N 
HETATM   15  O   UNL     1     -43.753  53.765 -51.392  1.00  0.00    -0.247 OA
HETATM   16  H   UNL     1     -41.758  55.914 -52.602  1.00  0.00     0.171 HD
HETATM   17  H   UNL     1     -44.650  54.013 -53.427  1.00  0.00     0.171 HD
BRANCH  14  18
HETATM   18  C   UNL     1     -41.029  54.660 -51.157  1.00  0.00     0.086 A 
HETATM   19  C   UNL     1     -40.197  53.489 -51.181  1.00  0.00     0.133 A 
HETATM   20  N   UNL     1     -39.423  53.438 -50.075  1.00  0.00    -0.171 NA
HETATM   21  N   UNL     1     -39.763  54.528 -49.376  1.00  0.00    -0.286 N 
HETATM   22  H   UNL     1     -39.305  54.693 -48.487  1.00  0.00     0.188 HD
HETATM   23  C   UNL     1     -40.713  55.289 -49.976  1.00  0.00     0.141 A 
BRANCH  19  24
HETATM   24  C   UNL     1     -40.111  52.448 -52.218  1.00  0.00     0.089 A 
HETATM   25  N   UNL     1     -40.489  52.793 -53.477  1.00  0.00    -0.259 NA
HETATM   26  C   UNL     1     -40.390  51.843 -54.432  1.00  0.00     0.117 A 
HETATM   27  C   UNL     1     -39.934  50.555 -54.205  1.00  0.00     0.019 A 
HETATM   28  C   UNL     1     -39.560  50.214 -52.913  1.00  0.00     0.004 A 
HETATM   29  C   UNL     1     -39.650  51.169 -51.905  1.00  0.00     0.034 A 
ENDBRANCH  19  24
ENDBRANCH  14  18
ENDBRANCH   6  12
ENDBRANCH   4   5
ENDBRANCH   3   4
TORSDOF 5
ENDMDL
MODEL 3
REMARK VINA RESULT:      -7.8      3.196      4.577
REMARK  5 active torsions:
REMARK  status: ('A' for Active; 'I' for Inactive)
REMARK    1  A    between atoms: C_3  and  O_4 
REMARK    2  A    between atoms: O_4  and  C_5 
REMARK    3  A    between atoms: C_6  and  N_7 
REMARK       I    between atoms: N_7  and  C_8 
REMARK       I    between atoms: C_8  and  N_9 
REMARK    4  A    between atoms: N_9  and  C_10 
REMARK    5  A    between atoms: C_11  and  C_12 
ROOT
HETATM    1  C   UNL     1     -40.889  57.682 -50.732  1.00  0.00     0.014 C 
HETATM    2  C   UNL     1     -41.135  56.608 -50.255  1.00  0.00    -0.091 C 
HETATM    3  C   UNL     1     -41.432  55.296 -49.670  1.00  0.00     0.268 C 
ENDROOT
BRANCH   3   4
HETATM    4  O   UNL     1     -42.382  54.616 -50.499  1.00  0.00    -0.337 OA
BRANCH   4   5
HETATM    5  C   UNL     1     -41.801  53.905 -51.515  1.00  0.00     0.099 A 
HETATM    6  C   UNL     1     -42.256  54.105 -52.827  1.00  0.00     0.070 A 
HETATM    7  C   UNL     1     -41.554  53.506 -53.885  1.00  0.00     0.035 A 
HETATM    8  C   UNL     1     -40.487  52.644 -53.636  1.00  0.00     0.044 A 
HETATM    9  C   UNL     1     -40.108  52.393 -52.325  1.00  0.00     0.119 A 
HETATM   10  F   UNL     1     -39.095  51.551 -52.080  1.00  0.00    -0.206 F 
HETATM   11  C   UNL     1     -40.749  53.016 -51.263  1.00  0.00     0.081 A 
BRANCH   6  12
HETATM   12  N   UNL     1     -43.338  54.924 -53.195  1.00  0.00    -0.306 N 
HETATM   13  C   UNL     1     -43.428  56.073 -53.929  1.00  0.00     0.325 C 
HETATM   14  N   UNL     1     -42.286  56.631 -54.420  1.00  0.00    -0.305 N 
HETATM   15  O   UNL     1     -44.548  56.591 -53.977  1.00  0.00    -0.247 OA
HETATM   16  H   UNL     1     -41.499  56.025 -54.646  1.00  0.00     0.171 HD
HETATM   17  H   UNL     1     -44.194  54.813 -52.664  1.00  0.00     0.171 HD
BRANCH  14  18
HETATM   18  C   UNL     1     -42.163  57.953 -54.832  1.00  0.00     0.086 A 
HETATM   19  C   UNL     1     -42.171  58.477 -56.170  1.00  0.00     0.133 A 
HETATM   20  N   UNL     1     -41.994  59.817 -56.153  1.00  0.00    -0.171 NA
HETATM   21  N   UNL     1     -41.869  60.122 -54.855  1.00  0.00    -0.286 N 
HETATM   22  H   UNL     1     -41.716  61.091 -54.602  1.00  0.00     0.188 HD
HETATM   23  C   UNL     1     -41.963  59.051 -54.028  1.00  0.00     0.141 A 
BRANCH  19  24
HETATM   24  C   UNL     1     -42.355  57.750 -57.436  1.00  0.00     0.089 A 
HETATM   25  N   UNL     1     -43.025  56.569 -57.383  1.00  0.00    -0.259 NA
HETATM   26  C   UNL     1     -43.212  55.914 -58.549  1.00  0.00     0.117 A 
HETATM   27  C   UNL     1     -42.763  56.368 -59.778  1.00  0.00     0.019 A 
HETATM   28  C   UNL     1     -42.073  57.571 -59.817  1.00  0.00     0.004 A 
HETATM   29  C   UNL     1     -41.863  58.272 -58.633  1.00  0.00     0.034 A 
ENDBRANCH  19  24
ENDBRANCH  14  18
ENDBRANCH   6  12
ENDBRANCH   4   5
ENDBRANCH   3   4
TORSDOF 5
ENDMDL
MODEL 4
REMARK VINA RESULT:      -7.7      2.127      2.899
REMARK  5 active torsions:
REMARK  status: ('A' for Active; 'I' for Inactive)
REMARK    1  A    between atoms: C_3  and  O_4 
REMARK    2  A    between atoms: O_4  and  C_5 
REMARK    3  A    between atoms: C_6  and  N_7 
REMARK       I    between atoms: N_7  and  C_8 
REMARK       I    between atoms: C_8  and  N_9 
REMARK    4  A    between atoms: N_9  and  C_10 
REMARK    5  A    between atoms: C_11  and  C_12 
ROOT
HETATM    1  C   UNL     1     -40.419  53.799 -47.667  1.00  0.00     0.014 C 
HETATM    2  C   UNL     1     -40.261  54.198 -48.788  1.00  0.00    -0.091 C 
HETATM    3  C   UNL     1     -40.063  54.688 -50.157  1.00  0.00     0.268 C 
ENDROOT
BRANCH   3   4
HETATM    4  O   UNL     1     -41.284  54.534 -50.892  1.00  0.00    -0.337 OA
BRANCH   4   5
HETATM    5  C   UNL     1     -41.152  53.734 -51.996  1.00  0.00     0.099 A 
HETATM    6  C   UNL     1     -41.998  53.952 -53.093  1.00  0.00     0.070 A 
HETATM    7  C   UNL     1     -41.756  53.248 -54.284  1.00  0.00     0.035 A 
HETATM    8  C   UNL     1     -40.760  52.274 -54.347  1.00  0.00     0.044 A 
HETATM    9  C   UNL     1     -39.990  52.015 -53.222  1.00  0.00     0.119 A 
HETATM   10  F   UNL     1     -39.045  51.068 -53.273  1.00  0.00    -0.206 F 
HETATM   11  C   UNL     1     -40.172  52.736 -52.050  1.00  0.00     0.081 A 
BRANCH   6  12
HETATM   12  N   UNL     1     -43.053  54.881 -53.134  1.00  0.00    -0.306 N 
HETATM   13  C   UNL     1     -43.243  56.042 -53.828  1.00  0.00     0.325 C 
HETATM   14  N   UNL     1     -42.253  56.486 -54.652  1.00  0.00    -0.305 N 
HETATM   15  O   UNL     1     -44.268  56.672 -53.547  1.00  0.00    -0.247 OA
HETATM   16  H   UNL     1     -41.636  55.806 -55.093  1.00  0.00     0.171 HD
HETATM   17  H   UNL     1     -43.714  54.852 -52.367  1.00  0.00     0.171 HD
BRANCH  14  18
HETATM   18  C   UNL     1     -42.127  57.794 -55.107  1.00  0.00     0.086 A 
HETATM   19  C   UNL     1     -41.622  58.940 -54.403  1.00  0.00     0.133 A 
HETATM   20  N   UNL     1     -41.692  60.041 -55.183  1.00  0.00    -0.171 NA
HETATM   21  N   UNL     1     -42.230  59.607 -56.329  1.00  0.00    -0.286 N 
HETATM   22  H   UNL     1     -42.387  60.278 -57.072  1.00  0.00     0.188 HD
HETATM   23  C   UNL     1     -42.506  58.279 -56.337  1.00  0.00     0.141 A 
BRANCH  19  24
HETATM   24  C   UNL     1     -41.072  59.007 -53.040  1.00  0.00     0.089 A 
HETATM   25  N   UNL     1     -39.720  59.072 -52.918  1.00  0.00    -0.259 NA
HETATM   26  C   UNL     1     -39.217  59.156 -51.667  1.00  0.00     0.117 A 
HETATM   27  C   UNL     1     -39.989  59.177 -50.518  1.00  0.00     0.019 A 
HETATM   28  C   UNL     1     -41.368  59.102 -50.656  1.00  0.00     0.004 A 
HETATM   29  C   UNL     1     -41.919  59.014 -51.931  1.00  0.00     0.034 A 
ENDBRANCH  19  24
ENDBRANCH  14  18
ENDBRANCH   6  12
ENDBRANCH   4   5
ENDBRANCH   3   4
TORSDOF 5
ENDMDL
MODEL 5
REMARK VINA RESULT:      -7.3      2.630      3.876
REMARK  5 active torsions:
REMARK  status: ('A' for Active; 'I' for Inactive)
REMARK    1  A    between atoms: C_3  and  O_4 
REMARK    2  A    between atoms: O_4  and  C_5 
REMARK    3  A    between atoms: C_6  and  N_7 
REMARK       I    between atoms: N_7  and  C_8 
REMARK       I    between atoms: C_8  and  N_9 
REMARK    4  A    between atoms: N_9  and  C_10 
REMARK    5  A    between atoms: C_11  and  C_12 
ROOT
HETATM    1  C   UNL     1     -45.138  57.936 -51.211  1.00  0.00     0.014 C 
HETATM    2  C   UNL     1     -44.245  57.147 -51.069  1.00  0.00    -0.091 C 
HETATM    3  C   UNL     1     -43.155  56.181 -50.891  1.00  0.00     0.268 C 
ENDROOT
BRANCH   3   4
HETATM    4  O   UNL     1     -42.206  56.342 -51.952  1.00  0.00    -0.337 OA
BRANCH   4   5
HETATM    5  C   UNL     1     -41.967  55.184 -52.642  1.00  0.00     0.099 A 
HETATM    6  C   UNL     1     -42.779  54.872 -53.743  1.00  0.00     0.070 A 
HETATM    7  C   UNL     1     -42.432  53.776 -54.550  1.00  0.00     0.035 A 
HETATM    8  C   UNL     1     -41.363  52.948 -54.209  1.00  0.00     0.044 A 
HETATM    9  C   UNL     1     -40.626  53.227 -53.067  1.00  0.00     0.119 A 
HETATM   10  F   UNL     1     -39.609  52.424 -52.726  1.00  0.00    -0.206 F 
HETATM   11  C   UNL     1     -40.912  54.336 -52.283  1.00  0.00     0.081 A 
BRANCH   6  12
HETATM   12  N   UNL     1     -43.899  55.613 -54.162  1.00  0.00    -0.306 N 
HETATM   13  C   UNL     1     -44.043  56.873 -54.667  1.00  0.00     0.325 C 
HETATM   14  N   UNL     1     -42.939  57.660 -54.801  1.00  0.00    -0.305 N 
HETATM   15  O   UNL     1     -45.207  57.248 -54.843  1.00  0.00    -0.247 OA
HETATM   16  H   UNL     1     -42.037  57.219 -54.972  1.00  0.00     0.171 HD
HETATM   17  H   UNL     1     -44.804  55.285 -53.847  1.00  0.00     0.171 HD
BRANCH  14  18
HETATM   18  C   UNL     1     -42.961  59.045 -54.921  1.00  0.00     0.086 A 
HETATM   19  C   UNL     1     -42.468  60.029 -53.998  1.00  0.00     0.133 A 
HETATM   20  N   UNL     1     -42.705  61.275 -54.465  1.00  0.00    -0.171 NA
HETATM   21  N   UNL     1     -43.333  61.081 -55.632  1.00  0.00    -0.286 N 
HETATM   22  H   UNL     1     -43.621  61.894 -56.164  1.00  0.00     0.188 HD
HETATM   23  C   UNL     1     -43.509  59.775 -55.949  1.00  0.00     0.141 A 
BRANCH  19  24
HETATM   24  C   UNL     1     -41.777  59.817 -52.716  1.00  0.00     0.089 A 
HETATM   25  N   UNL     1     -40.589  59.158 -52.752  1.00  0.00    -0.259 NA
HETATM   26  C   UNL     1     -39.945  58.983 -51.577  1.00  0.00     0.117 A 
HETATM   27  C   UNL     1     -40.421  59.428 -50.355  1.00  0.00     0.019 A 
HETATM   28  C   UNL     1     -41.639  60.092 -50.331  1.00  0.00     0.004 A 
HETATM   29  C   UNL     1     -42.329  60.289 -51.524  1.00  0.00     0.034 A 
ENDBRANCH  19  24
ENDBRANCH  14  18
ENDBRANCH   6  12
ENDBRANCH   4   5
ENDBRANCH   3   4
TORSDOF 5
ENDMDL
MODEL 6
REMARK VINA RESULT:      -7.2      4.755      7.612
REMARK  5 active torsions:
REMARK  status: ('A' for Active; 'I' for Inactive)
REMARK    1  A    between atoms: C_3  and  O_4 
REMARK    2  A    between atoms: O_4  and  C_5 
REMARK    3  A    between atoms: C_6  and  N_7 
REMARK       I    between atoms: N_7  and  C_8 
REMARK       I    between atoms: C_8  and  N_9 
REMARK    4  A    between atoms: N_9  and  C_10 
REMARK    5  A    between atoms: C_11  and  C_12 
ROOT
HETATM    1  C   UNL     1     -41.737  60.324 -58.569  1.00  0.00     0.014 C 
HETATM    2  C   UNL     1     -42.895  60.038 -58.701  1.00  0.00    -0.091 C 
HETATM    3  C   UNL     1     -44.313  59.693 -58.863  1.00  0.00     0.268 C 
ENDROOT
BRANCH   3   4
HETATM    4  O   UNL     1     -44.616  58.556 -58.047  1.00  0.00    -0.337 OA
BRANCH   4   5
HETATM    5  C   UNL     1     -44.617  57.377 -58.742  1.00  0.00     0.099 A 
HETATM    6  C   UNL     1     -43.645  56.411 -58.440  1.00  0.00     0.070 A 
HETATM    7  C   UNL     1     -43.746  55.142 -59.032  1.00  0.00     0.035 A 
HETATM    8  C   UNL     1     -44.730  54.873 -59.982  1.00  0.00     0.044 A 
HETATM    9  C   UNL     1     -45.630  55.871 -60.329  1.00  0.00     0.119 A 
HETATM   10  F   UNL     1     -46.566  55.623 -61.255  1.00  0.00    -0.206 F 
HETATM   11  C   UNL     1     -45.587  57.117 -59.718  1.00  0.00     0.081 A 
BRANCH   6  12
HETATM   12  N   UNL     1     -42.590  56.580 -57.525  1.00  0.00    -0.306 N 
HETATM   13  C   UNL     1     -42.495  56.410 -56.174  1.00  0.00     0.325 C 
HETATM   14  N   UNL     1     -43.604  56.030 -55.478  1.00  0.00    -0.305 N 
HETATM   15  O   UNL     1     -41.421  56.747 -55.666  1.00  0.00    -0.247 OA
HETATM   16  H   UNL     1     -44.307  55.460 -55.945  1.00  0.00     0.171 HD
HETATM   17  H   UNL     1     -41.804  57.139 -57.836  1.00  0.00     0.171 HD
BRANCH  14  18
HETATM   18  C   UNL     1     -43.774  56.189 -54.108  1.00  0.00     0.086 A 
HETATM   19  C   UNL     1     -43.162  55.447 -53.040  1.00  0.00     0.133 A 
HETATM   20  N   UNL     1     -43.610  55.887 -51.843  1.00  0.00    -0.171 NA
HETATM   21  N   UNL     1     -44.477  56.861 -52.147  1.00  0.00    -0.286 N 
HETATM   22  H   UNL     1     -44.952  57.337 -51.388  1.00  0.00     0.188 HD
HETATM   23  C   UNL     1     -44.610  57.081 -53.479  1.00  0.00     0.141 A 
BRANCH  19  24
HETATM   24  C   UNL     1     -42.172  54.362 -53.129  1.00  0.00     0.089 A 
HETATM   25  N   UNL     1     -42.171  53.614 -54.263  1.00  0.00    -0.259 NA
HETATM   26  C   UNL     1     -41.247  52.632 -54.353  1.00  0.00     0.117 A 
HETATM   27  C   UNL     1     -40.317  52.347 -53.368  1.00  0.00     0.019 A 
HETATM   28  C   UNL     1     -40.334  53.113 -52.212  1.00  0.00     0.004 A 
HETATM   29  C   UNL     1     -41.273  54.133 -52.086  1.00  0.00     0.034 A 
ENDBRANCH  19  24
ENDBRANCH  14  18
ENDBRANCH   6  12
ENDBRANCH   4   5
ENDBRANCH   3   4
TORSDOF 5
ENDMDL
MODEL 7
REMARK VINA RESULT:      -7.1     14.074     16.301
REMARK  5 active torsions:
REMARK  status: ('A' for Active; 'I' for Inactive)
REMARK    1  A    between atoms: C_3  and  O_4 
REMARK    2  A    between atoms: O_4  and  C_5 
REMARK    3  A    between atoms: C_6  and  N_7 
REMARK       I    between atoms: N_7  and  C_8 
REMARK       I    between atoms: C_8  and  N_9 
REMARK    4  A    between atoms: N_9  and  C_10 
REMARK    5  A    between atoms: C_11  and  C_12 
ROOT
HETATM    1  C   UNL     1     -31.062  39.277 -55.623  1.00  0.00     0.014 C 
HETATM    2  C   UNL     1     -31.973  39.925 -56.057  1.00  0.00    -0.091 C 
HETATM    3  C   UNL     1     -33.085  40.722 -56.589  1.00  0.00     0.268 C 
ENDROOT
BRANCH   3   4
HETATM    4  O   UNL     1     -34.324  40.125 -56.189  1.00  0.00    -0.337 OA
BRANCH   4   5
HETATM    5  C   UNL     1     -35.389  40.530 -56.949  1.00  0.00     0.099 A 
HETATM    6  C   UNL     1     -36.126  41.652 -56.539  1.00  0.00     0.070 A 
HETATM    7  C   UNL     1     -37.109  42.166 -57.399  1.00  0.00     0.035 A 
HETATM    8  C   UNL     1     -37.424  41.517 -58.593  1.00  0.00     0.044 A 
HETATM    9  C   UNL     1     -36.740  40.360 -58.937  1.00  0.00     0.119 A 
HETATM   10  F   UNL     1     -37.052  39.723 -60.074  1.00  0.00    -0.206 F 
HETATM   11  C   UNL     1     -35.726  39.862 -58.132  1.00  0.00     0.081 A 
BRANCH   6  12
HETATM   12  N   UNL     1     -35.920  42.366 -55.345  1.00  0.00    -0.306 N 
HETATM   13  C   UNL     1     -35.937  42.003 -54.029  1.00  0.00     0.325 C 
HETATM   14  N   UNL     1     -36.233  40.712 -53.706  1.00  0.00    -0.305 N 
HETATM   15  O   UNL     1     -35.806  42.925 -53.218  1.00  0.00    -0.247 OA
HETATM   16  H   UNL     1     -35.994  39.972 -54.364  1.00  0.00     0.171 HD
HETATM   17  H   UNL     1     -35.990  43.376 -55.402  1.00  0.00     0.171 HD
BRANCH  14  18
HETATM   18  C   UNL     1     -36.664  40.287 -52.455  1.00  0.00     0.086 A 
HETATM   19  C   UNL     1     -35.870  39.921 -51.314  1.00  0.00     0.133 A 
HETATM   20  N   UNL     1     -36.664  39.533 -50.292  1.00  0.00    -0.171 NA
HETATM   21  N   UNL     1     -37.909  39.640 -50.775  1.00  0.00    -0.286 N 
HETATM   22  H   UNL     1     -38.683  39.387 -50.171  1.00  0.00     0.188 HD
HETATM   23  C   UNL     1     -37.964  40.085 -52.055  1.00  0.00     0.141 A 
BRANCH  19  24
HETATM   24  C   UNL     1     -34.406  39.946 -51.172  1.00  0.00     0.089 A 
HETATM   25  N   UNL     1     -33.671  39.982 -52.315  1.00  0.00    -0.259 NA
HETATM   26  C   UNL     1     -32.327  40.026 -52.182  1.00  0.00     0.117 A 
HETATM   27  C   UNL     1     -31.665  40.035 -50.967  1.00  0.00     0.019 A 
HETATM   28  C   UNL     1     -32.426  39.989 -49.808  1.00  0.00     0.004 A 
HETATM   29  C   UNL     1     -33.814  39.942 -49.908  1.00  0.00     0.034 A 
ENDBRANCH  19  24
ENDBRANCH  14  18
ENDBRANCH   6  12
ENDBRANCH   4   5
ENDBRANCH   3   4
TORSDOF 5
ENDMDL
MODEL 8
REMARK VINA RESULT:      -7.1      3.394      4.884
REMARK  5 active torsions:
REMARK  status: ('A' for Active; 'I' for Inactive)
REMARK    1  A    between atoms: C_3  and  O_4 
REMARK    2  A    between atoms: O_4  and  C_5 
REMARK    3  A    between atoms: C_6  and  N_7 
REMARK       I    between atoms: N_7  and  C_8 
REMARK       I    between atoms: C_8  and  N_9 
REMARK    4  A    between atoms: N_9  and  C_10 
REMARK    5  A    between atoms: C_11  and  C_12 
ROOT
HETATM    1  C   UNL     1     -44.584  57.429 -51.229  1.00  0.00     0.014 C 
HETATM    2  C   UNL     1     -43.881  56.457 -51.198  1.00  0.00    -0.091 C 
HETATM    3  C   UNL     1     -43.025  55.265 -51.158  1.00  0.00     0.268 C 
ENDROOT
BRANCH   3   4
HETATM    4  O   UNL     1     -41.711  55.616 -51.606  1.00  0.00    -0.337 OA
BRANCH   4   5
HETATM    5  C   UNL     1     -41.337  54.962 -52.750  1.00  0.00     0.099 A 
HETATM    6  C   UNL     1     -40.910  55.717 -53.853  1.00  0.00     0.070 A 
HETATM    7  C   UNL     1     -40.371  55.047 -54.963  1.00  0.00     0.035 A 
HETATM    8  C   UNL     1     -40.355  53.654 -55.017  1.00  0.00     0.044 A 
HETATM    9  C   UNL     1     -40.862  52.927 -53.950  1.00  0.00     0.119 A 
HETATM   10  F   UNL     1     -40.866  51.588 -54.005  1.00  0.00    -0.206 F 
HETATM   11  C   UNL     1     -41.349  53.564 -52.817  1.00  0.00     0.081 A 
BRANCH   6  12
HETATM   12  N   UNL     1     -40.909  57.122 -53.924  1.00  0.00    -0.306 N 
HETATM   13  C   UNL     1     -41.888  58.040 -54.176  1.00  0.00     0.325 C 
HETATM   14  N   UNL     1     -43.147  57.600 -54.456  1.00  0.00    -0.305 N 
HETATM   15  O   UNL     1     -41.512  59.214 -54.258  1.00  0.00    -0.247 OA
HETATM   16  H   UNL     1     -43.463  56.721 -54.052  1.00  0.00     0.171 HD
HETATM   17  H   UNL     1     -40.008  57.571 -54.038  1.00  0.00     0.171 HD
BRANCH  14  18
HETATM   18  C   UNL     1     -44.125  58.352 -55.097  1.00  0.00     0.086 A 
HETATM   19  C   UNL     1     -44.379  58.472 -56.507  1.00  0.00     0.133 A 
HETATM   20  N   UNL     1     -45.402  59.326 -56.731  1.00  0.00    -0.171 NA
HETATM   21  N   UNL     1     -45.771  59.735 -55.510  1.00  0.00    -0.286 N 
HETATM   22  H   UNL     1     -46.532  60.401 -55.435  1.00  0.00     0.188 HD
HETATM   23  C   UNL     1     -45.045  59.186 -54.505  1.00  0.00     0.141 A 
BRANCH  19  24
HETATM   24  C   UNL     1     -43.695  57.796 -57.621  1.00  0.00     0.089 A 
HETATM   25  N   UNL     1     -43.530  56.451 -57.523  1.00  0.00    -0.259 NA
HETATM   26  C   UNL     1     -42.921  55.829 -58.557  1.00  0.00     0.117 A 
HETATM   27  C   UNL     1     -42.460  56.474 -59.691  1.00  0.00     0.019 A 
HETATM   28  C   UNL     1     -42.628  57.849 -59.774  1.00  0.00     0.004 A 
HETATM   29  C   UNL     1     -43.251  58.522 -58.727  1.00  0.00     0.034 A 
ENDBRANCH  19  24
ENDBRANCH  14  18
ENDBRANCH   6  12
ENDBRANCH   4   5
ENDBRANCH   3   4
TORSDOF 5
ENDMDL
MODEL 9
REMARK VINA RESULT:      -7.0      3.505      6.836
REMARK  5 active torsions:
REMARK  status: ('A' for Active; 'I' for Inactive)
REMARK    1  A    between atoms: C_3  and  O_4 
REMARK    2  A    between atoms: O_4  and  C_5 
REMARK    3  A    between atoms: C_6  and  N_7 
REMARK       I    between atoms: N_7  and  C_8 
REMARK       I    between atoms: C_8  and  N_9 
REMARK    4  A    between atoms: N_9  and  C_10 
REMARK    5  A    between atoms: C_11  and  C_12 
ROOT
HETATM    1  C   UNL     1     -40.702  59.244 -50.140  1.00  0.00     0.014 C 
HETATM    2  C   UNL     1     -41.560  59.719 -50.831  1.00  0.00    -0.091 C 
HETATM    3  C   UNL     1     -42.608  60.305 -51.675  1.00  0.00     0.268 C 
ENDROOT
BRANCH   3   4
HETATM    4  O   UNL     1     -43.544  59.283 -52.038  1.00  0.00    -0.337 OA
BRANCH   4   5
HETATM    5  C   UNL     1     -43.190  58.604 -53.173  1.00  0.00     0.099 A 
HETATM    6  C   UNL     1     -43.468  57.231 -53.255  1.00  0.00     0.070 A 
HETATM    7  C   UNL     1     -43.258  56.571 -54.477  1.00  0.00     0.035 A 
HETATM    8  C   UNL     1     -42.687  57.238 -55.560  1.00  0.00     0.044 A 
HETATM    9  C   UNL     1     -42.340  58.575 -55.428  1.00  0.00     0.119 A 
HETATM   10  F   UNL     1     -41.774  59.215 -56.460  1.00  0.00    -0.206 F 
HETATM   11  C   UNL     1     -42.588  59.266 -54.250  1.00  0.00     0.081 A 
BRANCH   6  12
HETATM   12  N   UNL     1     -44.013  56.450 -52.221  1.00  0.00    -0.306 N 
HETATM   13  C   UNL     1     -43.463  55.825 -51.139  1.00  0.00     0.325 C 
HETATM   14  N   UNL     1     -42.114  55.892 -50.955  1.00  0.00    -0.305 N 
HETATM   15  O   UNL     1     -44.236  55.129 -50.472  1.00  0.00    -0.247 OA
HETATM   16  H   UNL     1     -41.610  56.709 -51.295  1.00  0.00     0.171 HD
HETATM   17  H   UNL     1     -44.936  56.064 -52.382  1.00  0.00     0.171 HD
BRANCH  14  18
HETATM   18  C   UNL     1     -41.378  55.020 -50.161  1.00  0.00     0.086 A 
HETATM   19  C   UNL     1     -40.707  53.810 -50.548  1.00  0.00     0.133 A 
HETATM   20  N   UNL     1     -40.126  53.229 -49.475  1.00  0.00    -0.171 NA
HETATM   21  N   UNL     1     -40.430  54.036 -48.451  1.00  0.00    -0.286 N 
HETATM   22  H   UNL     1     -40.099  53.787 -47.526  1.00  0.00     0.188 HD
HETATM   23  C   UNL     1     -41.171  55.116 -48.805  1.00  0.00     0.141 A 
BRANCH  19  24
HETATM   24  C   UNL     1     -40.594  53.214 -51.889  1.00  0.00     0.089 A 
HETATM   25  N   UNL     1     -39.776  52.138 -52.023  1.00  0.00    -0.259 NA
HETATM   26  C   UNL     1     -39.690  51.578 -53.250  1.00  0.00     0.117 A 
HETATM   27  C   UNL     1     -40.376  52.033 -54.363  1.00  0.00     0.019 A 
HETATM   28  C   UNL     1     -41.202  53.139 -54.214  1.00  0.00     0.004 A 
HETATM   29  C   UNL     1     -41.313  53.740 -52.963  1.00  0.00     0.034 A 
ENDBRANCH  19  24
ENDBRANCH  14  18
ENDBRANCH   6  12
ENDBRANCH   4   5
ENDBRANCH   3   4
TORSDOF 5
ENDMDL
MODEL 10
REMARK VINA RESULT:      -6.9      2.814      4.723
REMARK  5 active torsions:
REMARK  status: ('A' for Active; 'I' for Inactive)
REMARK    1  A    between atoms: C_3  and  O_4 
REMARK    2  A    between atoms: O_4  and  C_5 
REMARK    3  A    between atoms: C_6  and  N_7 
REMARK       I    between atoms: N_7  and  C_8 
REMARK       I    between atoms: C_8  and  N_9 
REMARK    4  A    between atoms: N_9  and  C_10 
REMARK    5  A    between atoms: C_11  and  C_12 
ROOT
HETATM    1  C   UNL     1     -42.461  57.322 -55.802  1.00  0.00     0.014 C 
HETATM    2  C   UNL     1     -42.539  56.125 -55.812  1.00  0.00    -0.091 C 
HETATM    3  C   UNL     1     -42.635  54.660 -55.829  1.00  0.00     0.268 C 
ENDROOT
BRANCH   3   4
HETATM    4  O   UNL     1     -43.096  54.206 -54.551  1.00  0.00    -0.337 OA
BRANCH   4   5
HETATM    5  C   UNL     1     -42.090  53.733 -53.751  1.00  0.00     0.099 A 
HETATM    6  C   UNL     1     -42.135  54.007 -52.375  1.00  0.00     0.070 A 
HETATM    7  C   UNL     1     -41.200  53.386 -51.532  1.00  0.00     0.035 A 
HETATM    8  C   UNL     1     -40.179  52.595 -52.057  1.00  0.00     0.044 A 
HETATM    9  C   UNL     1     -40.103  52.408 -53.430  1.00  0.00     0.119 A 
HETATM   10  F   UNL     1     -39.113  51.664 -53.941  1.00  0.00    -0.206 F 
HETATM   11  C   UNL     1     -41.048  52.964 -54.281  1.00  0.00     0.081 A 
BRANCH   6  12
HETATM   12  N   UNL     1     -43.096  54.813 -51.738  1.00  0.00    -0.306 N 
HETATM   13  C   UNL     1     -43.171  56.155 -51.497  1.00  0.00     0.325 C 
HETATM   14  N   UNL     1     -42.139  56.953 -51.890  1.00  0.00    -0.305 N 
HETATM   15  O   UNL     1     -44.131  56.523 -50.813  1.00  0.00    -0.247 OA
HETATM   16  H   UNL     1     -41.588  56.683 -52.702  1.00  0.00     0.171 HD
HETATM   17  H   UNL     1     -43.761  54.339 -51.138  1.00  0.00     0.171 HD
BRANCH  14  18
HETATM   18  C   UNL     1     -41.886  58.226 -51.390  1.00  0.00     0.086 A 
HETATM   19  C   UNL     1     -42.323  59.492 -51.910  1.00  0.00     0.133 A 
HETATM   20  N   UNL     1     -41.841  60.504 -51.153  1.00  0.00    -0.171 NA
HETATM   21  N   UNL     1     -41.121  59.897 -50.201  1.00  0.00    -0.286 N 
HETATM   22  H   UNL     1     -40.651  60.473 -49.513  1.00  0.00     0.188 HD
HETATM   23  C   UNL     1     -41.116  58.544 -50.296  1.00  0.00     0.141 A 
BRANCH  19  24
HETATM   24  C   UNL     1     -43.181  59.757 -53.075  1.00  0.00     0.089 A 
HETATM   25  N   UNL     1     -44.355  59.076 -53.149  1.00  0.00    -0.259 NA
HETATM   26  C   UNL     1     -45.152  59.336 -54.209  1.00  0.00     0.117 A 
HETATM   27  C   UNL     1     -44.845  60.241 -55.210  1.00  0.00     0.019 A 
HETATM   28  C   UNL     1     -43.640  60.923 -55.127  1.00  0.00     0.004 A 
HETATM   29  C   UNL     1     -42.794  60.679 -54.049  1.00  0.00     0.034 A 
ENDBRANCH  19  24
ENDBRANCH  14  18
ENDBRANCH   6  12
ENDBRANCH   4   5
ENDBRANCH   3   4
TORSDOF 5
ENDMDL
