MODEL 1
REMARK VINA RESULT:      -8.6      0.000      0.000
REMARK  6 active torsions:
REMARK  status: ('A' for Active; 'I' for Inactive)
REMARK    1  A    between atoms: O_2  and  C_3 
REMARK    2  A    between atoms: C_6  and  C_7 
REMARK    3  A    between atoms: C_12  and  C_13 
REMARK       I    between atoms: C_13  and  N_14 
REMARK    4  A    between atoms: N_14  and  C_15 
REMARK    5  A    between atoms: C_17  and  O_18 
REMARK    6  A    between atoms: C_24  and  C_25 
ROOT
HETATM    1  C   UNL     1     -43.356  55.272 -53.394  1.00  0.00     0.118 C 
HETATM    2  N   UNL     1     -44.004  55.859 -52.227  1.00  0.00    -0.366 N 
HETATM    3  C   UNL     1     -43.973  57.178 -51.950  1.00  0.00     0.123 A 
HETATM    4  N   UNL     1     -43.227  58.049 -52.690  1.00  0.00    -0.240 N 
HETATM    5  N   UNL     1     -43.369  59.339 -52.330  1.00  0.00    -0.165 NA
HETATM    6  C   UNL     1     -44.188  59.275 -51.254  1.00  0.00     0.148 A 
HETATM    7  C   UNL     1     -44.584  57.934 -50.986  1.00  0.00     0.089 A 
HETATM    8  C   UNL     1     -42.402  57.650 -53.812  1.00  0.00     0.221 C 
HETATM    9  C   UNL     1     -42.944  56.345 -54.420  1.00  0.00     0.066 C 
HETATM   10  H   UNL     1     -44.526  55.207 -51.642  1.00  0.00     0.161 HD
ENDROOT
BRANCH   6  11
HETATM   11  C   UNL     1     -44.596  60.477 -50.505  1.00  0.00     0.276 C 
HETATM   12  N   UNL     1     -45.025  60.167 -49.228  1.00  0.00    -0.322 N 
HETATM   13  H   UNL     1     -44.992  59.171 -49.024  1.00  0.00     0.169 HD
HETATM   14  O   UNL     1     -44.537  61.594 -51.007  1.00  0.00    -0.266 OA
BRANCH  12  15
HETATM   15  C   UNL     1     -45.484  61.037 -48.224  1.00  0.00     0.037 A 
HETATM   16  C   UNL     1     -46.607  61.857 -48.361  1.00  0.00     0.066 A 
HETATM   17  C   UNL     1     -46.988  62.690 -47.308  1.00  0.00     0.067 A 
HETATM   18  C   UNL     1     -46.269  62.723 -46.121  1.00  0.00     0.036 A 
HETATM   19  C   UNL     1     -45.149  61.908 -45.978  1.00  0.00     0.005 A 
HETATM   20  C   UNL     1     -44.759  61.069 -47.026  1.00  0.00     0.029 A 
BRANCH  17  21
HETATM   21  O   UNL     1     -48.080  63.503 -47.410  1.00  0.00    -0.361 OA
HETATM   22  H   UNL     1     -47.930  64.288 -46.857  1.00  0.00     0.217 HD
ENDBRANCH  17  21
ENDBRANCH  12  15
ENDBRANCH   6  11
BRANCH   8  23
HETATM   23  C   UNL     1     -40.952  57.588 -53.390  1.00  0.00     0.409 C 
HETATM   24  F   UNL     1     -40.230  56.653 -54.032  1.00  0.00    -0.169 F 
HETATM   25  F   UNL     1     -40.351  58.786 -53.611  1.00  0.00    -0.169 F 
HETATM   26  F   UNL     1     -40.833  57.347 -52.062  1.00  0.00    -0.169 F 
ENDBRANCH   8  23
BRANCH   1  27
HETATM   27  C   UNL     1     -42.253  54.297 -53.021  1.00  0.00    -0.035 A 
HETATM   28  C   UNL     1     -41.888  54.159 -51.671  1.00  0.00     0.012 A 
HETATM   29  C   UNL     1     -40.864  53.288 -51.278  1.00  0.00     0.037 A 
HETATM   30  C   UNL     1     -40.183  52.533 -52.229  1.00  0.00     0.068 A 
HETATM   31  C   UNL     1     -40.531  52.666 -53.573  1.00  0.00     0.037 A 
HETATM   32  C   UNL     1     -41.550  53.539 -53.967  1.00  0.00     0.012 A 
BRANCH  30  33
HETATM   33  O   UNL     1     -39.171  51.648 -51.984  1.00  0.00    -0.356 OA
HETATM   34  C   UNL     1     -39.526  50.420 -51.361  1.00  0.00     0.210 C 
ENDBRANCH  30  33
ENDBRANCH   1  27
TORSDOF 6
ENDMDL
MODEL 2
REMARK VINA RESULT:      -8.2      6.173      9.640
REMARK  6 active torsions:
REMARK  status: ('A' for Active; 'I' for Inactive)
REMARK    1  A    between atoms: O_2  and  C_3 
REMARK    2  A    between atoms: C_6  and  C_7 
REMARK    3  A    between atoms: C_12  and  C_13 
REMARK       I    between atoms: C_13  and  N_14 
REMARK    4  A    between atoms: N_14  and  C_15 
REMARK    5  A    between atoms: C_17  and  O_18 
REMARK    6  A    between atoms: C_24  and  C_25 
ROOT
HETATM    1  C   UNL     1     -45.640  58.752 -58.083  1.00  0.00     0.118 C 
HETATM    2  N   UNL     1     -45.447  57.829 -56.971  1.00  0.00    -0.366 N 
HETATM    3  C   UNL     1     -44.231  57.456 -56.522  1.00  0.00     0.123 A 
HETATM    4  N   UNL     1     -43.085  57.832 -57.159  1.00  0.00    -0.240 N 
HETATM    5  N   UNL     1     -41.956  57.442 -56.537  1.00  0.00    -0.165 NA
HETATM    6  C   UNL     1     -42.412  56.713 -55.491  1.00  0.00     0.148 A 
HETATM    7  C   UNL     1     -43.834  56.699 -55.453  1.00  0.00     0.089 A 
HETATM    8  C   UNL     1     -43.061  58.639 -58.363  1.00  0.00     0.221 C 
HETATM    9  C   UNL     1     -44.338  59.493 -58.444  1.00  0.00     0.066 C 
HETATM   10  H   UNL     1     -46.301  57.506 -56.517  1.00  0.00     0.161 HD
ENDROOT
BRANCH   6  11
HETATM   11  C   UNL     1     -41.500  56.053 -54.538  1.00  0.00     0.276 C 
HETATM   12  N   UNL     1     -41.714  54.689 -54.483  1.00  0.00    -0.322 N 
HETATM   13  H   UNL     1     -42.459  54.373 -55.099  1.00  0.00     0.169 HD
HETATM   14  O   UNL     1     -40.671  56.692 -53.900  1.00  0.00    -0.266 OA
BRANCH  12  15
HETATM   15  C   UNL     1     -41.046  53.730 -53.701  1.00  0.00     0.037 A 
HETATM   16  C   UNL     1     -41.045  53.731 -52.304  1.00  0.00     0.066 A 
HETATM   17  C   UNL     1     -40.352  52.738 -51.612  1.00  0.00     0.067 A 
HETATM   18  C   UNL     1     -39.658  51.742 -52.287  1.00  0.00     0.036 A 
HETATM   19  C   UNL     1     -39.655  51.735 -53.679  1.00  0.00     0.005 A 
HETATM   20  C   UNL     1     -40.347  52.725 -54.383  1.00  0.00     0.029 A 
BRANCH  17  21
HETATM   21  O   UNL     1     -40.332  52.710 -50.247  1.00  0.00    -0.361 OA
HETATM   22  H   UNL     1     -41.000  53.336 -49.919  1.00  0.00     0.217 HD
ENDBRANCH  17  21
ENDBRANCH  12  15
ENDBRANCH   6  11
BRANCH   8  23
HETATM   23  C   UNL     1     -42.819  57.760 -59.567  1.00  0.00     0.409 C 
HETATM   24  F   UNL     1     -43.496  58.134 -60.667  1.00  0.00    -0.169 F 
HETATM   25  F   UNL     1     -41.499  57.760 -59.886  1.00  0.00    -0.169 F 
HETATM   26  F   UNL     1     -43.144  56.470 -59.313  1.00  0.00    -0.169 F 
ENDBRANCH   8  23
BRANCH   1  27
HETATM   27  C   UNL     1     -46.347  58.107 -59.262  1.00  0.00    -0.035 A 
HETATM   28  C   UNL     1     -47.030  58.921 -60.181  1.00  0.00     0.012 A 
HETATM   29  C   UNL     1     -47.714  58.373 -61.274  1.00  0.00     0.037 A 
HETATM   30  C   UNL     1     -47.726  56.995 -61.472  1.00  0.00     0.068 A 
HETATM   31  C   UNL     1     -47.058  56.175 -60.563  1.00  0.00     0.037 A 
HETATM   32  C   UNL     1     -46.380  56.721 -59.469  1.00  0.00     0.012 A 
BRANCH  30  33
HETATM   33  O   UNL     1     -48.348  56.332 -62.493  1.00  0.00    -0.356 OA
HETATM   34  C   UNL     1     -48.532  57.047 -63.708  1.00  0.00     0.210 C 
ENDBRANCH  30  33
ENDBRANCH   1  27
TORSDOF 6
ENDMDL
MODEL 3
REMARK VINA RESULT:      -8.2      2.337      9.467
REMARK  6 active torsions:
REMARK  status: ('A' for Active; 'I' for Inactive)
REMARK    1  A    between atoms: O_2  and  C_3 
REMARK    2  A    between atoms: C_6  and  C_7 
REMARK    3  A    between atoms: C_12  and  C_13 
REMARK       I    between atoms: C_13  and  N_14 
REMARK    4  A    between atoms: N_14  and  C_15 
REMARK    5  A    between atoms: C_17  and  O_18 
REMARK    6  A    between atoms: C_24  and  C_25 
ROOT
HETATM    1  C   UNL     1     -42.118  60.321 -51.303  1.00  0.00     0.118 C 
HETATM    2  N   UNL     1     -41.641  59.231 -50.460  1.00  0.00    -0.366 N 
HETATM    3  C   UNL     1     -41.626  57.942 -50.858  1.00  0.00     0.123 A 
HETATM    4  N   UNL     1     -42.169  57.551 -52.047  1.00  0.00    -0.240 N 
HETATM    5  N   UNL     1     -42.000  56.245 -52.327  1.00  0.00    -0.165 NA
HETATM    6  C   UNL     1     -41.385  55.766 -51.220  1.00  0.00     0.148 A 
HETATM    7  C   UNL     1     -41.137  56.802 -50.277  1.00  0.00     0.089 A 
HETATM    8  C   UNL     1     -42.815  58.460 -52.973  1.00  0.00     0.221 C 
HETATM    9  C   UNL     1     -42.270  59.884 -52.772  1.00  0.00     0.066 C 
HETATM   10  H   UNL     1     -41.275  59.508 -49.550  1.00  0.00     0.161 HD
ENDROOT
BRANCH   6  11
HETATM   11  C   UNL     1     -41.029  54.342 -51.075  1.00  0.00     0.276 C 
HETATM   12  N   UNL     1     -40.702  53.767 -52.288  1.00  0.00    -0.322 N 
HETATM   13  H   UNL     1     -40.766  54.415 -53.070  1.00  0.00     0.169 HD
HETATM   14  O   UNL     1     -41.038  53.789 -49.981  1.00  0.00    -0.266 OA
BRANCH  12  15
HETATM   15  C   UNL     1     -40.310  52.443 -52.552  1.00  0.00     0.037 A 
HETATM   16  C   UNL     1     -39.849  51.561 -51.572  1.00  0.00     0.066 A 
HETATM   17  C   UNL     1     -39.480  50.263 -51.927  1.00  0.00     0.067 A 
HETATM   18  C   UNL     1     -39.561  49.828 -53.243  1.00  0.00     0.036 A 
HETATM   19  C   UNL     1     -40.020  50.702 -54.225  1.00  0.00     0.005 A 
HETATM   20  C   UNL     1     -40.393  52.005 -53.879  1.00  0.00     0.029 A 
BRANCH  17  21
HETATM   21  O   UNL     1     -39.027  49.376 -50.993  1.00  0.00    -0.361 OA
HETATM   22  H   UNL     1     -38.322  48.842 -51.396  1.00  0.00     0.217 HD
ENDBRANCH  17  21
ENDBRANCH  12  15
ENDBRANCH   6  11
BRANCH   8  23
HETATM   23  C   UNL     1     -44.316  58.341 -52.850  1.00  0.00     0.409 C 
HETATM   24  F   UNL     1     -44.753  58.170 -51.590  1.00  0.00    -0.169 F 
HETATM   25  F   UNL     1     -44.914  59.459 -53.337  1.00  0.00    -0.169 F 
HETATM   26  F   UNL     1     -44.793  57.309 -53.585  1.00  0.00    -0.169 F 
ENDBRANCH   8  23
BRANCH   1  27
HETATM   27  C   UNL     1     -43.335  61.019 -50.722  1.00  0.00    -0.035 A 
HETATM   28  C   UNL     1     -43.757  60.691 -49.421  1.00  0.00     0.012 A 
HETATM   29  C   UNL     1     -44.885  61.292 -48.848  1.00  0.00     0.037 A 
HETATM   30  C   UNL     1     -45.614  62.237 -49.563  1.00  0.00     0.068 A 
HETATM   31  C   UNL     1     -45.210  62.567 -50.857  1.00  0.00     0.037 A 
HETATM   32  C   UNL     1     -44.087  61.963 -51.432  1.00  0.00     0.012 A 
BRANCH  30  33
HETATM   33  O   UNL     1     -46.727  62.899 -49.125  1.00  0.00    -0.356 OA
HETATM   34  C   UNL     1     -47.121  62.675 -47.777  1.00  0.00     0.210 C 
ENDBRANCH  30  33
ENDBRANCH   1  27
TORSDOF 6
ENDMDL
MODEL 4
REMARK VINA RESULT:      -8.0      2.504      9.429
REMARK  6 active torsions:
REMARK  status: ('A' for Active; 'I' for Inactive)
REMARK    1  A    between atoms: O_2  and  C_3 
REMARK    2  A    between atoms: C_6  and  C_7 
REMARK    3  A    between atoms: C_12  and  C_13 
REMARK       I    between atoms: C_13  and  N_14 
REMARK    4  A    between atoms: N_14  and  C_15 
REMARK    5  A    between atoms: C_17  and  O_18 
REMARK    6  A    between atoms: C_24  and  C_25 
ROOT
HETATM    1  C   UNL     1     -43.992  59.968 -53.541  1.00  0.00     0.118 C 
HETATM    2  N   UNL     1     -42.680  59.411 -53.849  1.00  0.00    -0.366 N 
HETATM    3  C   UNL     1     -42.403  58.092 -53.783  1.00  0.00     0.123 A 
HETATM    4  N   UNL     1     -43.311  57.192 -53.307  1.00  0.00    -0.240 N 
HETATM    5  N   UNL     1     -42.906  55.909 -53.382  1.00  0.00    -0.165 NA
HETATM    6  C   UNL     1     -41.642  56.009 -53.860  1.00  0.00     0.148 A 
HETATM    7  C   UNL     1     -41.294  57.364 -54.120  1.00  0.00     0.089 A 
HETATM    8  C   UNL     1     -44.627  57.555 -52.822  1.00  0.00     0.221 C 
HETATM    9  C   UNL     1     -45.076  58.875 -53.472  1.00  0.00     0.066 C 
HETATM   10  H   UNL     1     -41.981  60.083 -54.162  1.00  0.00     0.161 HD
ENDROOT
BRANCH   6  11
HETATM   11  C   UNL     1     -40.790  54.825 -54.076  1.00  0.00     0.276 C 
HETATM   12  N   UNL     1     -41.154  53.773 -53.257  1.00  0.00    -0.322 N 
HETATM   13  H   UNL     1     -41.937  53.991 -52.647  1.00  0.00     0.169 HD
HETATM   14  O   UNL     1     -39.882  54.834 -54.899  1.00  0.00    -0.266 OA
BRANCH  12  15
HETATM   15  C   UNL     1     -40.584  52.490 -53.177  1.00  0.00     0.037 A 
HETATM   16  C   UNL     1     -40.584  51.573 -54.231  1.00  0.00     0.066 A 
HETATM   17  C   UNL     1     -39.995  50.321 -54.059  1.00  0.00     0.067 A 
HETATM   18  C   UNL     1     -39.406  49.963 -52.853  1.00  0.00     0.036 A 
HETATM   19  C   UNL     1     -39.402  50.872 -51.798  1.00  0.00     0.005 A 
HETATM   20  C   UNL     1     -39.989  52.131 -51.961  1.00  0.00     0.029 A 
BRANCH  17  21
HETATM   21  O   UNL     1     -39.977  49.403 -55.069  1.00  0.00    -0.361 OA
HETATM   22  H   UNL     1     -40.887  49.089 -55.213  1.00  0.00     0.217 HD
ENDBRANCH  17  21
ENDBRANCH  12  15
ENDBRANCH   6  11
BRANCH   8  23
HETATM   23  C   UNL     1     -44.635  57.568 -51.311  1.00  0.00     0.409 C 
HETATM   24  F   UNL     1     -44.820  56.359 -50.751  1.00  0.00    -0.169 F 
HETATM   25  F   UNL     1     -43.456  58.054 -50.843  1.00  0.00    -0.169 F 
HETATM   26  F   UNL     1     -45.598  58.387 -50.827  1.00  0.00    -0.169 F 
ENDBRANCH   8  23
BRANCH   1  27
HETATM   27  C   UNL     1     -43.962  60.905 -52.347  1.00  0.00    -0.035 A 
HETATM   28  C   UNL     1     -45.149  61.545 -51.948  1.00  0.00     0.012 A 
HETATM   29  C   UNL     1     -45.169  62.433 -50.865  1.00  0.00     0.037 A 
HETATM   30  C   UNL     1     -44.002  62.698 -50.154  1.00  0.00     0.068 A 
HETATM   31  C   UNL     1     -42.817  62.075 -50.544  1.00  0.00     0.037 A 
HETATM   32  C   UNL     1     -42.794  61.192 -51.629  1.00  0.00     0.012 A 
BRANCH  30  33
HETATM   33  O   UNL     1     -43.883  63.537 -49.081  1.00  0.00    -0.356 OA
HETATM   34  C   UNL     1     -44.885  63.444 -48.077  1.00  0.00     0.210 C 
ENDBRANCH  30  33
ENDBRANCH   1  27
TORSDOF 6
ENDMDL
MODEL 5
REMARK VINA RESULT:      -7.9      2.597      9.342
REMARK  6 active torsions:
REMARK  status: ('A' for Active; 'I' for Inactive)
REMARK    1  A    between atoms: O_2  and  C_3 
REMARK    2  A    between atoms: C_6  and  C_7 
REMARK    3  A    between atoms: C_12  and  C_13 
REMARK       I    between atoms: C_13  and  N_14 
REMARK    4  A    between atoms: N_14  and  C_15 
REMARK    5  A    between atoms: C_17  and  O_18 
REMARK    6  A    between atoms: C_24  and  C_25 
ROOT
HETATM    1  C   UNL     1     -42.153  60.469 -53.401  1.00  0.00     0.118 C 
HETATM    2  N   UNL     1     -41.274  59.361 -53.043  1.00  0.00    -0.366 N 
HETATM    3  C   UNL     1     -41.389  58.126 -53.573  1.00  0.00     0.123 A 
HETATM    4  N   UNL     1     -42.420  57.794 -54.403  1.00  0.00    -0.240 N 
HETATM    5  N   UNL     1     -42.343  56.548 -54.906  1.00  0.00    -0.165 NA
HETATM    6  C   UNL     1     -41.246  56.034 -54.300  1.00  0.00     0.148 A 
HETATM    7  C   UNL     1     -40.625  56.996 -53.455  1.00  0.00     0.089 A 
HETATM    8  C   UNL     1     -43.477  58.712 -54.779  1.00  0.00     0.221 C 
HETATM    9  C   UNL     1     -42.975  60.160 -54.667  1.00  0.00     0.066 C 
HETATM   10  H   UNL     1     -40.528  59.588 -52.387  1.00  0.00     0.161 HD
ENDROOT
BRANCH   6  11
HETATM   11  C   UNL     1     -40.793  54.651 -54.538  1.00  0.00     0.276 C 
HETATM   12  N   UNL     1     -40.715  53.927 -53.363  1.00  0.00    -0.322 N 
HETATM   13  H   UNL     1     -40.975  54.465 -52.541  1.00  0.00     0.169 HD
HETATM   14  O   UNL     1     -40.534  54.248 -55.666  1.00  0.00    -0.266 OA
BRANCH  12  15
HETATM   15  C   UNL     1     -40.330  52.586 -53.186  1.00  0.00     0.037 A 
HETATM   16  C   UNL     1     -40.358  51.630 -54.204  1.00  0.00     0.066 A 
HETATM   17  C   UNL     1     -39.957  50.321 -53.935  1.00  0.00     0.067 A 
HETATM   18  C   UNL     1     -39.529  49.946 -52.668  1.00  0.00     0.036 A 
HETATM   19  C   UNL     1     -39.497  50.895 -51.649  1.00  0.00     0.005 A 
HETATM   20  C   UNL     1     -39.897  52.210 -51.908  1.00  0.00     0.029 A 
BRANCH  17  21
HETATM   21  O   UNL     1     -39.972  49.363 -54.907  1.00  0.00    -0.361 OA
HETATM   22  H   UNL     1     -39.141  49.424 -55.409  1.00  0.00     0.217 HD
ENDBRANCH  17  21
ENDBRANCH  12  15
ENDBRANCH   6  11
BRANCH   8  23
HETATM   23  C   UNL     1     -44.723  58.418 -53.977  1.00  0.00     0.409 C 
HETATM   24  F   UNL     1     -44.485  58.035 -52.710  1.00  0.00    -0.169 F 
HETATM   25  F   UNL     1     -45.515  59.520 -53.924  1.00  0.00    -0.169 F 
HETATM   26  F   UNL     1     -45.468  57.447 -54.557  1.00  0.00    -0.169 F 
ENDBRANCH   8  23
BRANCH   1  27
HETATM   27  C   UNL     1     -42.970  60.969 -52.223  1.00  0.00    -0.035 A 
HETATM   28  C   UNL     1     -43.935  61.970 -52.434  1.00  0.00     0.012 A 
HETATM   29  C   UNL     1     -44.701  62.478 -51.377  1.00  0.00     0.037 A 
HETATM   30  C   UNL     1     -44.519  61.995 -50.085  1.00  0.00     0.068 A 
HETATM   31  C   UNL     1     -43.560  61.007 -49.861  1.00  0.00     0.037 A 
HETATM   32  C   UNL     1     -42.791  60.502 -50.915  1.00  0.00     0.012 A 
BRANCH  30  33
HETATM   33  O   UNL     1     -45.197  62.399 -48.969  1.00  0.00    -0.356 OA
HETATM   34  C   UNL     1     -45.187  61.517 -47.854  1.00  0.00     0.210 C 
ENDBRANCH  30  33
ENDBRANCH   1  27
TORSDOF 6
ENDMDL
MODEL 6
REMARK VINA RESULT:      -7.9      6.533     10.413
REMARK  6 active torsions:
REMARK  status: ('A' for Active; 'I' for Inactive)
REMARK    1  A    between atoms: O_2  and  C_3 
REMARK    2  A    between atoms: C_6  and  C_7 
REMARK    3  A    between atoms: C_12  and  C_13 
REMARK       I    between atoms: C_13  and  N_14 
REMARK    4  A    between atoms: N_14  and  C_15 
REMARK    5  A    between atoms: C_17  and  O_18 
REMARK    6  A    between atoms: C_24  and  C_25 
ROOT
HETATM    1  C   UNL     1     -43.471  58.831 -58.820  1.00  0.00     0.118 C 
HETATM    2  N   UNL     1     -43.590  58.478 -57.410  1.00  0.00    -0.366 N 
HETATM    3  C   UNL     1     -43.272  57.262 -56.922  1.00  0.00     0.123 A 
HETATM    4  N   UNL     1     -42.921  56.230 -57.743  1.00  0.00    -0.240 N 
HETATM    5  N   UNL     1     -42.557  55.108 -57.092  1.00  0.00    -0.165 NA
HETATM    6  C   UNL     1     -42.763  55.422 -55.791  1.00  0.00     0.148 A 
HETATM    7  C   UNL     1     -43.214  56.764 -55.648  1.00  0.00     0.089 A 
HETATM    8  C   UNL     1     -42.871  56.332 -59.188  1.00  0.00     0.221 C 
HETATM    9  C   UNL     1     -42.639  57.794 -59.599  1.00  0.00     0.066 C 
HETATM   10  H   UNL     1     -43.896  59.232 -56.795  1.00  0.00     0.161 HD
ENDROOT
BRANCH   6  11
HETATM   11  C   UNL     1     -42.519  54.457 -54.703  1.00  0.00     0.276 C 
HETATM   12  N   UNL     1     -41.283  53.849 -54.822  1.00  0.00    -0.322 N 
HETATM   13  H   UNL     1     -40.757  54.163 -55.634  1.00  0.00     0.169 HD
HETATM   14  O   UNL     1     -43.351  54.260 -53.824  1.00  0.00    -0.266 OA
BRANCH  12  15
HETATM   15  C   UNL     1     -40.698  52.885 -53.983  1.00  0.00     0.037 A 
HETATM   16  C   UNL     1     -40.379  51.589 -54.394  1.00  0.00     0.066 A 
HETATM   17  C   UNL     1     -39.800  50.698 -53.489  1.00  0.00     0.067 A 
HETATM   18  C   UNL     1     -39.534  51.076 -52.180  1.00  0.00     0.036 A 
HETATM   19  C   UNL     1     -39.849  52.367 -51.763  1.00  0.00     0.005 A 
HETATM   20  C   UNL     1     -40.429  53.267 -52.662  1.00  0.00     0.029 A 
BRANCH  17  21
HETATM   21  O   UNL     1     -39.475  49.425 -53.860  1.00  0.00    -0.361 OA
HETATM   22  H   UNL     1     -40.151  49.107 -54.483  1.00  0.00     0.217 HD
ENDBRANCH  17  21
ENDBRANCH  12  15
ENDBRANCH   6  11
BRANCH   8  23
HETATM   23  C   UNL     1     -44.104  55.700 -59.791  1.00  0.00     0.409 C 
HETATM   24  F   UNL     1     -44.414  56.158 -61.017  1.00  0.00    -0.169 F 
HETATM   25  F   UNL     1     -43.936  54.356 -59.892  1.00  0.00    -0.169 F 
HETATM   26  F   UNL     1     -45.191  55.886 -59.005  1.00  0.00    -0.169 F 
ENDBRANCH   8  23
BRANCH   1  27
HETATM   27  C   UNL     1     -44.809  59.171 -59.452  1.00  0.00    -0.035 A 
HETATM   28  C   UNL     1     -44.835  59.744 -60.735  1.00  0.00     0.012 A 
HETATM   29  C   UNL     1     -46.043  60.093 -61.353  1.00  0.00     0.037 A 
HETATM   30  C   UNL     1     -47.253  59.874 -60.700  1.00  0.00     0.068 A 
HETATM   31  C   UNL     1     -47.240  59.312 -59.423  1.00  0.00     0.037 A 
HETATM   32  C   UNL     1     -46.035  58.968 -58.804  1.00  0.00     0.012 A 
BRANCH  30  33
HETATM   33  O   UNL     1     -48.497  60.164 -61.187  1.00  0.00    -0.356 OA
HETATM   34  C   UNL     1     -49.107  59.186 -62.019  1.00  0.00     0.210 C 
ENDBRANCH  30  33
ENDBRANCH   1  27
TORSDOF 6
ENDMDL
MODEL 7
REMARK VINA RESULT:      -7.9      4.890      7.733
REMARK  6 active torsions:
REMARK  status: ('A' for Active; 'I' for Inactive)
REMARK    1  A    between atoms: O_2  and  C_3 
REMARK    2  A    between atoms: C_6  and  C_7 
REMARK    3  A    between atoms: C_12  and  C_13 
REMARK       I    between atoms: C_13  and  N_14 
REMARK    4  A    between atoms: N_14  and  C_15 
REMARK    5  A    between atoms: C_17  and  O_18 
REMARK    6  A    between atoms: C_24  and  C_25 
ROOT
HETATM    1  C   UNL     1     -43.548  54.624 -53.261  1.00  0.00     0.118 C 
HETATM    2  N   UNL     1     -44.067  55.901 -53.738  1.00  0.00    -0.366 N 
HETATM    3  C   UNL     1     -43.623  56.507 -54.858  1.00  0.00     0.123 A 
HETATM    4  N   UNL     1     -42.564  56.018 -55.566  1.00  0.00    -0.240 N 
HETATM    5  N   UNL     1     -42.299  56.696 -56.699  1.00  0.00    -0.165 NA
HETATM    6  C   UNL     1     -43.189  57.717 -56.667  1.00  0.00     0.148 A 
HETATM    7  C   UNL     1     -44.033  57.630 -55.524  1.00  0.00     0.089 A 
HETATM    8  C   UNL     1     -41.819  54.834 -55.187  1.00  0.00     0.221 C 
HETATM    9  C   UNL     1     -42.707  53.910 -54.337  1.00  0.00     0.066 C 
HETATM   10  H   UNL     1     -44.829  56.297 -53.188  1.00  0.00     0.161 HD
ENDROOT
BRANCH   6  11
HETATM   11  C   UNL     1     -43.238  58.749 -57.719  1.00  0.00     0.276 C 
HETATM   12  N   UNL     1     -41.990  59.284 -57.974  1.00  0.00    -0.322 N 
HETATM   13  H   UNL     1     -41.255  58.883 -57.396  1.00  0.00     0.169 HD
HETATM   14  O   UNL     1     -44.292  59.052 -58.268  1.00  0.00    -0.266 OA
BRANCH  12  15
HETATM   15  C   UNL     1     -41.637  60.279 -58.903  1.00  0.00     0.037 A 
HETATM   16  C   UNL     1     -41.878  60.180 -60.275  1.00  0.00     0.066 A 
HETATM   17  C   UNL     1     -41.492  61.219 -61.123  1.00  0.00     0.067 A 
HETATM   18  C   UNL     1     -40.869  62.356 -60.627  1.00  0.00     0.036 A 
HETATM   19  C   UNL     1     -40.626  62.462 -59.259  1.00  0.00     0.005 A 
HETATM   20  C   UNL     1     -41.009  61.426 -58.402  1.00  0.00     0.029 A 
BRANCH  17  21
HETATM   21  O   UNL     1     -41.714  61.153 -62.468  1.00  0.00    -0.361 OA
HETATM   22  H   UNL     1     -41.944  60.236 -62.695  1.00  0.00     0.217 HD
ENDBRANCH  17  21
ENDBRANCH  12  15
ENDBRANCH   6  11
BRANCH   8  23
HETATM   23  C   UNL     1     -40.519  55.232 -54.528  1.00  0.00     0.409 C 
HETATM   24  F   UNL     1     -40.473  56.516 -54.131  1.00  0.00    -0.169 F 
HETATM   25  F   UNL     1     -40.298  54.462 -53.431  1.00  0.00    -0.169 F 
HETATM   26  F   UNL     1     -39.464  55.027 -55.351  1.00  0.00    -0.169 F 
ENDBRANCH   8  23
BRANCH   1  27
HETATM   27  C   UNL     1     -42.873  54.739 -51.905  1.00  0.00    -0.035 A 
HETATM   28  C   UNL     1     -42.567  56.013 -51.397  1.00  0.00     0.012 A 
HETATM   29  C   UNL     1     -41.927  56.171 -50.161  1.00  0.00     0.037 A 
HETATM   30  C   UNL     1     -41.582  55.055 -49.404  1.00  0.00     0.068 A 
HETATM   31  C   UNL     1     -41.875  53.785 -49.899  1.00  0.00     0.037 A 
HETATM   32  C   UNL     1     -42.508  53.626 -51.136  1.00  0.00     0.012 A 
BRANCH  30  33
HETATM   33  O   UNL     1     -40.961  55.067 -48.186  1.00  0.00    -0.356 OA
HETATM   34  C   UNL     1     -40.195  53.920 -47.843  1.00  0.00     0.210 C 
ENDBRANCH  30  33
ENDBRANCH   1  27
TORSDOF 6
ENDMDL
MODEL 8
REMARK VINA RESULT:      -7.8      5.188      7.789
REMARK  6 active torsions:
REMARK  status: ('A' for Active; 'I' for Inactive)
REMARK    1  A    between atoms: O_2  and  C_3 
REMARK    2  A    between atoms: C_6  and  C_7 
REMARK    3  A    between atoms: C_12  and  C_13 
REMARK       I    between atoms: C_13  and  N_14 
REMARK    4  A    between atoms: N_14  and  C_15 
REMARK    5  A    between atoms: C_17  and  O_18 
REMARK    6  A    between atoms: C_24  and  C_25 
ROOT
HETATM    1  C   UNL     1     -40.328  55.209 -54.247  1.00  0.00     0.118 C 
HETATM    2  N   UNL     1     -41.053  55.319 -55.508  1.00  0.00    -0.366 N 
HETATM    3  C   UNL     1     -42.217  55.988 -55.635  1.00  0.00     0.123 A 
HETATM    4  N   UNL     1     -42.863  56.516 -54.555  1.00  0.00    -0.240 N 
HETATM    5  N   UNL     1     -43.969  57.219 -54.865  1.00  0.00    -0.165 NA
HETATM    6  C   UNL     1     -44.073  57.062 -56.206  1.00  0.00     0.148 A 
HETATM    7  C   UNL     1     -42.992  56.294 -56.721  1.00  0.00     0.089 A 
HETATM    8  C   UNL     1     -42.380  56.400 -53.194  1.00  0.00     0.221 C 
HETATM    9  C   UNL     1     -40.856  56.204 -53.196  1.00  0.00     0.066 C 
HETATM   10  H   UNL     1     -40.599  54.888 -56.313  1.00  0.00     0.161 HD
ENDROOT
BRANCH   6  11
HETATM   11  C   UNL     1     -45.181  57.651 -56.981  1.00  0.00     0.276 C 
HETATM   12  N   UNL     1     -45.172  57.224 -58.296  1.00  0.00    -0.322 N 
HETATM   13  H   UNL     1     -44.408  56.587 -58.506  1.00  0.00     0.169 HD
HETATM   14  O   UNL     1     -45.984  58.420 -56.465  1.00  0.00    -0.266 OA
BRANCH  12  15
HETATM   15  C   UNL     1     -46.062  57.561 -59.330  1.00  0.00     0.037 A 
HETATM   16  C   UNL     1     -46.459  56.673 -60.333  1.00  0.00     0.066 A 
HETATM   17  C   UNL     1     -47.348  57.096 -61.322  1.00  0.00     0.067 A 
HETATM   18  C   UNL     1     -47.848  58.392 -61.331  1.00  0.00     0.036 A 
HETATM   19  C   UNL     1     -47.457  59.282 -60.334  1.00  0.00     0.005 A 
HETATM   20  C   UNL     1     -46.568  58.867 -59.338  1.00  0.00     0.029 A 
BRANCH  17  21
HETATM   21  O   UNL     1     -47.755  56.252 -62.314  1.00  0.00    -0.361 OA
HETATM   22  H   UNL     1     -47.929  56.781 -63.112  1.00  0.00     0.217 HD
ENDBRANCH  17  21
ENDBRANCH  12  15
ENDBRANCH   6  11
BRANCH   8  23
HETATM   23  C   UNL     1     -43.149  55.323 -52.465  1.00  0.00     0.409 C 
HETATM   24  F   UNL     1     -42.476  54.760 -51.446  1.00  0.00    -0.169 F 
HETATM   25  F   UNL     1     -44.300  55.834 -51.956  1.00  0.00    -0.169 F 
HETATM   26  F   UNL     1     -43.519  54.325 -53.303  1.00  0.00    -0.169 F 
ENDBRANCH   8  23
BRANCH   1  27
HETATM   27  C   UNL     1     -40.219  53.775 -53.761  1.00  0.00    -0.035 A 
HETATM   28  C   UNL     1     -40.381  52.724 -54.681  1.00  0.00     0.012 A 
HETATM   29  C   UNL     1     -40.308  51.384 -54.278  1.00  0.00     0.037 A 
HETATM   30  C   UNL     1     -40.069  51.066 -52.944  1.00  0.00     0.068 A 
HETATM   31  C   UNL     1     -39.913  52.099 -52.020  1.00  0.00     0.037 A 
HETATM   32  C   UNL     1     -39.991  53.437 -52.420  1.00  0.00     0.012 A 
BRANCH  30  33
HETATM   33  O   UNL     1     -39.972  49.808 -52.419  1.00  0.00    -0.356 OA
HETATM   34  C   UNL     1     -39.577  49.707 -51.057  1.00  0.00     0.210 C 
ENDBRANCH  30  33
ENDBRANCH   1  27
TORSDOF 6
ENDMDL
MODEL 9
REMARK VINA RESULT:      -7.5      5.011      8.124
REMARK  6 active torsions:
REMARK  status: ('A' for Active; 'I' for Inactive)
REMARK    1  A    between atoms: O_2  and  C_3 
REMARK    2  A    between atoms: C_6  and  C_7 
REMARK    3  A    between atoms: C_12  and  C_13 
REMARK       I    between atoms: C_13  and  N_14 
REMARK    4  A    between atoms: N_14  and  C_15 
REMARK    5  A    between atoms: C_17  and  O_18 
REMARK    6  A    between atoms: C_24  and  C_25 
ROOT
HETATM    1  C   UNL     1     -43.711  55.658 -53.086  1.00  0.00     0.118 C 
HETATM    2  N   UNL     1     -43.719  57.033 -53.572  1.00  0.00    -0.366 N 
HETATM    3  C   UNL     1     -43.166  57.406 -54.745  1.00  0.00     0.123 A 
HETATM    4  N   UNL     1     -42.452  56.532 -55.511  1.00  0.00    -0.240 N 
HETATM    5  N   UNL     1     -42.037  57.042 -56.686  1.00  0.00    -0.165 NA
HETATM    6  C   UNL     1     -42.442  58.333 -56.627  1.00  0.00     0.148 A 
HETATM    7  C   UNL     1     -43.152  58.596 -55.422  1.00  0.00     0.089 A 
HETATM    8  C   UNL     1     -42.210  55.151 -55.143  1.00  0.00     0.221 C 
HETATM    9  C   UNL     1     -43.317  54.663 -54.194  1.00  0.00     0.066 C 
HETATM   10  H   UNL     1     -44.212  57.703 -52.983  1.00  0.00     0.161 HD
ENDROOT
BRANCH   6  11
HETATM   11  C   UNL     1     -42.166  59.293 -57.712  1.00  0.00     0.276 C 
HETATM   12  N   UNL     1     -42.969  59.067 -58.814  1.00  0.00    -0.322 N 
HETATM   13  H   UNL     1     -43.604  58.282 -58.695  1.00  0.00     0.169 HD
HETATM   14  O   UNL     1     -41.316  60.167 -57.591  1.00  0.00    -0.266 OA
BRANCH  12  15
HETATM   15  C   UNL     1     -43.001  59.770 -60.031  1.00  0.00     0.037 A 
HETATM   16  C   UNL     1     -41.869  60.312 -60.645  1.00  0.00     0.066 A 
HETATM   17  C   UNL     1     -41.998  60.995 -61.854  1.00  0.00     0.067 A 
HETATM   18  C   UNL     1     -43.236  61.151 -62.464  1.00  0.00     0.036 A 
HETATM   19  C   UNL     1     -44.368  60.612 -61.858  1.00  0.00     0.005 A 
HETATM   20  C   UNL     1     -44.250  59.925 -60.646  1.00  0.00     0.029 A 
BRANCH  17  21
HETATM   21  O   UNL     1     -40.911  61.536 -62.480  1.00  0.00    -0.361 OA
HETATM   22  H   UNL     1     -40.341  61.943 -61.805  1.00  0.00     0.217 HD
ENDBRANCH  17  21
ENDBRANCH  12  15
ENDBRANCH   6  11
BRANCH   8  23
HETATM   23  C   UNL     1     -40.809  55.001 -54.600  1.00  0.00     0.409 C 
HETATM   24  F   UNL     1     -39.907  54.587 -55.507  1.00  0.00    -0.169 F 
HETATM   25  F   UNL     1     -40.370  56.188 -54.107  1.00  0.00    -0.169 F 
HETATM   26  F   UNL     1     -40.769  54.127 -53.565  1.00  0.00    -0.169 F 
ENDBRANCH   8  23
BRANCH   1  27
HETATM   27  C   UNL     1     -42.935  55.502 -51.791  1.00  0.00    -0.035 A 
HETATM   28  C   UNL     1     -42.173  56.582 -51.313  1.00  0.00     0.012 A 
HETATM   29  C   UNL     1     -41.424  56.481 -50.133  1.00  0.00     0.037 A 
HETATM   30  C   UNL     1     -41.424  55.296 -49.404  1.00  0.00     0.068 A 
HETATM   31  C   UNL     1     -42.170  54.214 -49.871  1.00  0.00     0.037 A 
HETATM   32  C   UNL     1     -42.913  54.312 -51.051  1.00  0.00     0.012 A 
BRANCH  30  33
HETATM   33  O   UNL     1     -40.743  55.064 -48.241  1.00  0.00    -0.356 OA
HETATM   34  C   UNL     1     -40.346  53.724 -47.983  1.00  0.00     0.210 C 
ENDBRANCH  30  33
ENDBRANCH   1  27
TORSDOF 6
ENDMDL
MODEL 10
REMARK VINA RESULT:      -7.5      2.918      9.555
REMARK  6 active torsions:
REMARK  status: ('A' for Active; 'I' for Inactive)
REMARK    1  A    between atoms: O_2  and  C_3 
REMARK    2  A    between atoms: C_6  and  C_7 
REMARK    3  A    between atoms: C_12  and  C_13 
REMARK       I    between atoms: C_13  and  N_14 
REMARK    4  A    between atoms: N_14  and  C_15 
REMARK    5  A    between atoms: C_17  and  O_18 
REMARK    6  A    between atoms: C_24  and  C_25 
ROOT
HETATM    1  C   UNL     1     -43.359  62.212 -50.299  1.00  0.00     0.118 C 
HETATM    2  N   UNL     1     -42.689  60.917 -50.287  1.00  0.00    -0.366 N 
HETATM    3  C   UNL     1     -43.008  59.912 -51.128  1.00  0.00     0.123 A 
HETATM    4  N   UNL     1     -44.070  60.000 -51.980  1.00  0.00    -0.240 N 
HETATM    5  N   UNL     1     -44.202  58.944 -52.806  1.00  0.00    -0.165 NA
HETATM    6  C   UNL     1     -43.218  58.106 -52.402  1.00  0.00     0.148 A 
HETATM    7  C   UNL     1     -42.451  58.681 -51.349  1.00  0.00     0.089 A 
HETATM    8  C   UNL     1     -44.949  61.149 -52.055  1.00  0.00     0.221 C 
HETATM    9  C   UNL     1     -44.206  62.406 -51.571  1.00  0.00     0.066 C 
HETATM   10  H   UNL     1     -41.922  60.826 -49.621  1.00  0.00     0.161 HD
ENDROOT
BRANCH   6  11
HETATM   11  C   UNL     1     -43.007  56.785 -53.022  1.00  0.00     0.276 C 
HETATM   12  N   UNL     1     -41.713  56.334 -52.843  1.00  0.00    -0.322 N 
HETATM   13  H   UNL     1     -41.129  56.983 -52.322  1.00  0.00     0.169 HD
HETATM   14  O   UNL     1     -43.911  56.205 -53.612  1.00  0.00    -0.266 OA
BRANCH  12  15
HETATM   15  C   UNL     1     -41.139  55.128 -53.282  1.00  0.00     0.037 A 
HETATM   16  C   UNL     1     -40.877  54.042 -52.444  1.00  0.00     0.066 A 
HETATM   17  C   UNL     1     -40.303  52.884 -52.970  1.00  0.00     0.067 A 
HETATM   18  C   UNL     1     -39.984  52.789 -54.318  1.00  0.00     0.036 A 
HETATM   19  C   UNL     1     -40.243  53.868 -55.160  1.00  0.00     0.005 A 
HETATM   20  C   UNL     1     -40.818  55.032 -54.643  1.00  0.00     0.029 A 
BRANCH  17  21
HETATM   21  O   UNL     1     -40.035  51.805 -52.178  1.00  0.00    -0.361 OA
HETATM   22  H   UNL     1     -40.760  51.710 -51.536  1.00  0.00     0.217 HD
ENDBRANCH  17  21
ENDBRANCH  12  15
ENDBRANCH   6  11
BRANCH   8  23
HETATM   23  C   UNL     1     -46.237  60.862 -51.319  1.00  0.00     0.409 C 
HETATM   24  F   UNL     1     -46.139  59.886 -50.399  1.00  0.00    -0.169 F 
HETATM   25  F   UNL     1     -46.668  61.980 -50.679  1.00  0.00    -0.169 F 
HETATM   26  F   UNL     1     -47.228  60.511 -52.173  1.00  0.00    -0.169 F 
ENDBRANCH   8  23
BRANCH   1  27
HETATM   27  C   UNL     1     -44.092  62.501 -49.001  1.00  0.00    -0.035 A 
HETATM   28  C   UNL     1     -44.468  61.430 -48.172  1.00  0.00     0.012 A 
HETATM   29  C   UNL     1     -45.163  61.644 -46.974  1.00  0.00     0.037 A 
HETATM   30  C   UNL     1     -45.495  62.936 -46.579  1.00  0.00     0.068 A 
HETATM   31  C   UNL     1     -45.134  64.008 -47.396  1.00  0.00     0.037 A 
HETATM   32  C   UNL     1     -44.445  63.795 -48.594  1.00  0.00     0.012 A 
BRANCH  30  33
HETATM   33  O   UNL     1     -46.165  63.284 -45.440  1.00  0.00    -0.356 OA
HETATM   34  C   UNL     1     -47.515  63.705 -45.589  1.00  0.00     0.210 C 
ENDBRANCH  30  33
ENDBRANCH   1  27
TORSDOF 6
ENDMDL
