MODEL 1
REMARK VINA RESULT:      -8.2      0.000      0.000
REMARK  6 active torsions:
REMARK  status: ('A' for Active; 'I' for Inactive)
REMARK    1  A    between atoms: C_2  and  C_3 
REMARK    2  A    between atoms: C_8  and  C_9 
REMARK    3  A    between atoms: C_9  and  N_10 
REMARK    4  A    between atoms: C_12  and  C_13 
REMARK    5  A    between atoms: C_13  and  N_14 
REMARK       I    between atoms: N_14  and  C_15 
REMARK    6  A    between atoms: C_15  and  C_16 
ROOT
HETATM    1  N   UNL     1     -43.932  56.727 -56.488  1.00  0.00    -0.061 N 
HETATM    2  H   UNL     1     -44.802  56.185 -56.546  1.00  0.00     0.280 HD
HETATM    3  C   UNL     1     -43.054  56.040 -55.424  1.00  0.00     0.206 C 
HETATM    4  C   UNL     1     -43.858  55.997 -54.109  1.00  0.00     0.035 C 
HETATM    5  C   UNL     1     -44.326  57.377 -53.664  1.00  0.00     0.004 C 
HETATM    6  C   UNL     1     -45.118  58.064 -54.763  1.00  0.00     0.028 C 
HETATM    7  C   UNL     1     -44.322  58.129 -56.056  1.00  0.00     0.236 C 
ENDROOT
BRANCH   1   8
HETATM    8  C   UNL     1     -43.380  56.742 -57.913  1.00  0.00     0.277 C 
BRANCH   8   9
HETATM    9  C   UNL     1     -44.145  55.982 -58.937  1.00  0.00     0.012 A 
HETATM   10  C   UNL     1     -45.306  56.331 -59.716  1.00  0.00     0.071 A 
HETATM   11  N   UNL     1     -45.620  55.331 -60.555  1.00  0.00    -0.178 NA
HETATM   12  N   UNL     1     -44.772  54.344 -60.282  1.00  0.00    -0.288 N 
HETATM   13  H   UNL     1     -44.860  53.470 -60.793  1.00  0.00     0.188 HD
HETATM   14  C   UNL     1     -43.878  54.677 -59.315  1.00  0.00     0.120 A 
BRANCH  10  15
HETATM   15  C   UNL     1     -46.213  57.569 -59.788  1.00  0.00    -0.004 C 
HETATM   16  C   UNL     1     -47.309  57.348 -60.862  1.00  0.00     0.021 C 
HETATM   17  C   UNL     1     -45.374  58.802 -60.190  1.00  0.00     0.021 C 
HETATM   18  C   UNL     1     -46.945  57.910 -58.483  1.00  0.00     0.021 C 
ENDBRANCH  10  15
ENDBRANCH   8   9
ENDBRANCH   1   8
BRANCH   3  19
HETATM   19  C   UNL     1     -42.660  54.590 -55.841  1.00  0.00     0.156 C 
BRANCH  19  20
HETATM   20  N   UNL     1     -42.142  53.765 -54.761  1.00  0.00    -0.355 N 
HETATM   21  C   UNL     1     -40.788  53.489 -54.683  1.00  0.00     0.251 C 
HETATM   22  O   UNL     1     -39.980  54.016 -55.441  1.00  0.00    -0.268 OA
HETATM   23  H   UNL     1     -42.775  53.110 -54.312  1.00  0.00     0.162 HD
BRANCH  21  24
HETATM   24  C   UNL     1     -40.349  52.502 -53.661  1.00  0.00     0.032 A 
HETATM   25  C   UNL     1     -40.323  52.907 -52.320  1.00  0.00     0.017 A 
HETATM   26  C   UNL     1     -39.925  52.013 -51.325  1.00  0.00     0.001 A 
HETATM   27  C   UNL     1     -39.561  50.711 -51.664  1.00  0.00     0.000 A 
HETATM   28  C   UNL     1     -39.602  50.298 -52.995  1.00  0.00     0.001 A 
HETATM   29  C   UNL     1     -39.998  51.188 -53.996  1.00  0.00     0.017 A 
ENDBRANCH  21  24
ENDBRANCH  19  20
ENDBRANCH   3  19
TORSDOF 6
ENDMDL
MODEL 2
REMARK VINA RESULT:      -7.9      3.120      4.888
REMARK  6 active torsions:
REMARK  status: ('A' for Active; 'I' for Inactive)
REMARK    1  A    between atoms: C_2  and  C_3 
REMARK    2  A    between atoms: C_8  and  C_9 
REMARK    3  A    between atoms: C_9  and  N_10 
REMARK    4  A    between atoms: C_12  and  C_13 
REMARK    5  A    between atoms: C_13  and  N_14 
REMARK       I    between atoms: N_14  and  C_15 
REMARK    6  A    between atoms: C_15  and  C_16 
ROOT
HETATM    1  N   UNL     1     -42.850  57.773 -51.592  1.00  0.00    -0.061 N 
HETATM    2  H   UNL     1     -43.203  58.039 -50.665  1.00  0.00     0.280 HD
HETATM    3  C   UNL     1     -41.603  56.898 -51.355  1.00  0.00     0.206 C 
HETATM    4  C   UNL     1     -40.607  57.721 -50.512  1.00  0.00     0.035 C 
HETATM    5  C   UNL     1     -40.257  59.055 -51.158  1.00  0.00     0.004 C 
HETATM    6  C   UNL     1     -41.511  59.861 -51.457  1.00  0.00     0.028 C 
HETATM    7  C   UNL     1     -42.488  59.063 -52.305  1.00  0.00     0.236 C 
ENDROOT
BRANCH   1   8
HETATM    8  C   UNL     1     -44.030  57.094 -52.285  1.00  0.00     0.277 C 
BRANCH   8   9
HETATM    9  C   UNL     1     -44.296  57.487 -53.695  1.00  0.00     0.012 A 
HETATM   10  C   UNL     1     -43.833  56.936 -54.943  1.00  0.00     0.071 A 
HETATM   11  N   UNL     1     -44.380  57.600 -55.975  1.00  0.00    -0.178 NA
HETATM   12  N   UNL     1     -45.089  58.589 -55.439  1.00  0.00    -0.288 N 
HETATM   13  H   UNL     1     -45.565  59.238 -56.059  1.00  0.00     0.188 HD
HETATM   14  C   UNL     1     -45.062  58.574 -54.081  1.00  0.00     0.120 A 
BRANCH  10  15
HETATM   15  C   UNL     1     -42.892  55.782 -55.320  1.00  0.00    -0.004 C 
HETATM   16  C   UNL     1     -42.831  55.643 -56.862  1.00  0.00     0.021 C 
HETATM   17  C   UNL     1     -43.430  54.460 -54.728  1.00  0.00     0.021 C 
HETATM   18  C   UNL     1     -41.443  55.949 -54.841  1.00  0.00     0.021 C 
ENDBRANCH  10  15
ENDBRANCH   8   9
ENDBRANCH   1   8
BRANCH   3  19
HETATM   19  C   UNL     1     -41.952  55.577 -50.604  1.00  0.00     0.156 C 
BRANCH  19  20
HETATM   20  N   UNL     1     -41.701  54.361 -51.361  1.00  0.00    -0.355 N 
HETATM   21  C   UNL     1     -40.530  53.649 -51.167  1.00  0.00     0.251 C 
HETATM   22  O   UNL     1     -39.735  53.949 -50.282  1.00  0.00    -0.268 OA
HETATM   23  H   UNL     1     -42.169  54.248 -52.255  1.00  0.00     0.162 HD
BRANCH  21  24
HETATM   24  C   UNL     1     -40.257  52.517 -52.092  1.00  0.00     0.032 A 
HETATM   25  C   UNL     1     -40.551  52.689 -53.452  1.00  0.00     0.017 A 
HETATM   26  C   UNL     1     -40.304  51.658 -54.358  1.00  0.00     0.001 A 
HETATM   27  C   UNL     1     -39.755  50.456 -53.913  1.00  0.00     0.000 A 
HETATM   28  C   UNL     1     -39.446  50.285 -52.564  1.00  0.00     0.001 A 
HETATM   29  C   UNL     1     -39.692  51.314 -51.651  1.00  0.00     0.017 A 
ENDBRANCH  21  24
ENDBRANCH  19  20
ENDBRANCH   3  19
TORSDOF 6
ENDMDL
MODEL 3
REMARK VINA RESULT:      -7.8      2.244      3.786
REMARK  6 active torsions:
REMARK  status: ('A' for Active; 'I' for Inactive)
REMARK    1  A    between atoms: C_2  and  C_3 
REMARK    2  A    between atoms: C_8  and  C_9 
REMARK    3  A    between atoms: C_9  and  N_10 
REMARK    4  A    between atoms: C_12  and  C_13 
REMARK    5  A    between atoms: C_13  and  N_14 
REMARK       I    between atoms: N_14  and  C_15 
REMARK    6  A    between atoms: C_15  and  C_16 
ROOT
HETATM    1  N   UNL     1     -42.018  58.241 -53.329  1.00  0.00    -0.061 N 
HETATM    2  H   UNL     1     -42.968  58.037 -52.997  1.00  0.00     0.280 HD
HETATM    3  C   UNL     1     -41.164  56.998 -53.014  1.00  0.00     0.206 C 
HETATM    4  C   UNL     1     -41.259  56.736 -51.497  1.00  0.00     0.035 C 
HETATM    5  C   UNL     1     -40.842  57.944 -50.668  1.00  0.00     0.004 C 
HETATM    6  C   UNL     1     -41.643  59.175 -51.058  1.00  0.00     0.028 C 
HETATM    7  C   UNL     1     -41.536  59.451 -52.549  1.00  0.00     0.236 C 
ENDROOT
BRANCH   1   8
HETATM    8  C   UNL     1     -42.182  58.592 -54.807  1.00  0.00     0.277 C 
BRANCH   8   9
HETATM    9  C   UNL     1     -43.561  58.530 -55.363  1.00  0.00     0.012 A 
HETATM   10  C   UNL     1     -44.076  57.951 -56.577  1.00  0.00     0.071 A 
HETATM   11  N   UNL     1     -45.409  58.104 -56.634  1.00  0.00    -0.178 NA
HETATM   12  N   UNL     1     -45.742  58.822 -55.566  1.00  0.00    -0.288 N 
HETATM   13  H   UNL     1     -46.717  59.079 -55.436  1.00  0.00     0.188 HD
HETATM   14  C   UNL     1     -44.673  59.114 -54.780  1.00  0.00     0.120 A 
BRANCH  10  15
HETATM   15  C   UNL     1     -43.440  57.212 -57.763  1.00  0.00    -0.004 C 
HETATM   16  C   UNL     1     -44.492  57.031 -58.887  1.00  0.00     0.021 C 
HETATM   17  C   UNL     1     -42.963  55.815 -57.308  1.00  0.00     0.021 C 
HETATM   18  C   UNL     1     -42.241  57.927 -58.401  1.00  0.00     0.021 C 
ENDBRANCH  10  15
ENDBRANCH   8   9
ENDBRANCH   1   8
BRANCH   3  19
HETATM   19  C   UNL     1     -41.657  55.739 -53.791  1.00  0.00     0.156 C 
BRANCH  19  20
HETATM   20  N   UNL     1     -41.169  54.472 -53.271  1.00  0.00    -0.355 N 
HETATM   21  C   UNL     1     -40.496  53.592 -54.100  1.00  0.00     0.251 C 
HETATM   22  O   UNL     1     -40.192  53.896 -55.249  1.00  0.00    -0.268 OA
HETATM   23  H   UNL     1     -41.628  54.080 -52.454  1.00  0.00     0.162 HD
BRANCH  21  24
HETATM   24  C   UNL     1     -40.177  52.245 -53.553  1.00  0.00     0.032 A 
HETATM   25  C   UNL     1     -40.197  51.154 -54.432  1.00  0.00     0.017 A 
HETATM   26  C   UNL     1     -39.897  49.874 -53.966  1.00  0.00     0.001 A 
HETATM   27  C   UNL     1     -39.569  49.679 -52.625  1.00  0.00     0.000 A 
HETATM   28  C   UNL     1     -39.532  50.765 -51.750  1.00  0.00     0.001 A 
HETATM   29  C   UNL     1     -39.832  52.049 -52.210  1.00  0.00     0.017 A 
ENDBRANCH  21  24
ENDBRANCH  19  20
ENDBRANCH   3  19
TORSDOF 6
ENDMDL
MODEL 4
REMARK VINA RESULT:      -7.7      2.853      7.866
REMARK  6 active torsions:
REMARK  status: ('A' for Active; 'I' for Inactive)
REMARK    1  A    between atoms: C_2  and  C_3 
REMARK    2  A    between atoms: C_8  and  C_9 
REMARK    3  A    between atoms: C_9  and  N_10 
REMARK    4  A    between atoms: C_12  and  C_13 
REMARK    5  A    between atoms: C_13  and  N_14 
REMARK       I    between atoms: N_14  and  C_15 
REMARK    6  A    between atoms: C_15  and  C_16 
ROOT
HETATM    1  N   UNL     1     -40.790  53.150 -52.213  1.00  0.00    -0.061 N 
HETATM    2  H   UNL     1     -41.617  52.610 -51.934  1.00  0.00     0.280 HD
HETATM    3  C   UNL     1     -40.860  53.303 -53.745  1.00  0.00     0.206 C 
HETATM    4  C   UNL     1     -40.925  51.888 -54.355  1.00  0.00     0.035 C 
HETATM    5  C   UNL     1     -39.760  51.009 -53.919  1.00  0.00     0.004 C 
HETATM    6  C   UNL     1     -39.664  50.944 -52.403  1.00  0.00     0.028 C 
HETATM    7  C   UNL     1     -39.579  52.336 -51.798  1.00  0.00     0.236 C 
ENDROOT
BRANCH   1   8
HETATM    8  C   UNL     1     -40.868  54.442 -51.401  1.00  0.00     0.277 C 
BRANCH   8   9
HETATM    9  C   UNL     1     -42.225  54.998 -51.152  1.00  0.00     0.012 A 
HETATM   10  C   UNL     1     -42.738  56.341 -51.241  1.00  0.00     0.071 A 
HETATM   11  N   UNL     1     -44.051  56.355 -50.963  1.00  0.00    -0.178 NA
HETATM   12  N   UNL     1     -44.367  55.110 -50.622  1.00  0.00    -0.288 N 
HETATM   13  H   UNL     1     -45.323  54.910 -50.340  1.00  0.00     0.188 HD
HETATM   14  C   UNL     1     -43.310  54.262 -50.705  1.00  0.00     0.120 A 
BRANCH  10  15
HETATM   15  C   UNL     1     -42.117  57.702 -51.588  1.00  0.00    -0.004 C 
HETATM   16  C   UNL     1     -41.051  58.074 -50.525  1.00  0.00     0.021 C 
HETATM   17  C   UNL     1     -43.215  58.789 -51.583  1.00  0.00     0.021 C 
HETATM   18  C   UNL     1     -41.411  57.761 -52.950  1.00  0.00     0.021 C 
ENDBRANCH  10  15
ENDBRANCH   8   9
ENDBRANCH   1   8
BRANCH   3  19
HETATM   19  C   UNL     1     -42.110  54.120 -54.194  1.00  0.00     0.156 C 
BRANCH  19  20
HETATM   20  N   UNL     1     -41.968  54.801 -55.471  1.00  0.00    -0.355 N 
HETATM   21  C   UNL     1     -42.871  55.781 -55.843  1.00  0.00     0.251 C 
HETATM   22  O   UNL     1     -43.736  56.183 -55.072  1.00  0.00    -0.268 OA
HETATM   23  H   UNL     1     -41.470  54.323 -56.216  1.00  0.00     0.162 HD
BRANCH  21  24
HETATM   24  C   UNL     1     -42.771  56.312 -57.228  1.00  0.00     0.032 A 
HETATM   25  C   UNL     1     -42.317  57.627 -57.401  1.00  0.00     0.017 A 
HETATM   26  C   UNL     1     -42.201  58.165 -58.683  1.00  0.00     0.001 A 
HETATM   27  C   UNL     1     -42.528  57.392 -59.796  1.00  0.00     0.000 A 
HETATM   28  C   UNL     1     -42.965  56.078 -59.630  1.00  0.00     0.001 A 
HETATM   29  C   UNL     1     -43.084  55.533 -58.350  1.00  0.00     0.017 A 
ENDBRANCH  21  24
ENDBRANCH  19  20
ENDBRANCH   3  19
TORSDOF 6
ENDMDL
MODEL 5
REMARK VINA RESULT:      -7.7      3.064      5.595
REMARK  6 active torsions:
REMARK  status: ('A' for Active; 'I' for Inactive)
REMARK    1  A    between atoms: C_2  and  C_3 
REMARK    2  A    between atoms: C_8  and  C_9 
REMARK    3  A    between atoms: C_9  and  N_10 
REMARK    4  A    between atoms: C_12  and  C_13 
REMARK    5  A    between atoms: C_13  and  N_14 
REMARK       I    between atoms: N_14  and  C_15 
REMARK    6  A    between atoms: C_15  and  C_16 
ROOT
HETATM    1  N   UNL     1     -42.315  57.592 -54.520  1.00  0.00    -0.061 N 
HETATM    2  H   UNL     1     -41.639  58.210 -54.983  1.00  0.00     0.280 HD
HETATM    3  C   UNL     1     -42.033  56.167 -55.033  1.00  0.00     0.206 C 
HETATM    4  C   UNL     1     -42.150  56.191 -56.571  1.00  0.00     0.035 C 
HETATM    5  C   UNL     1     -43.498  56.716 -57.047  1.00  0.00     0.004 C 
HETATM    6  C   UNL     1     -43.787  58.087 -56.458  1.00  0.00     0.028 C 
HETATM    7  C   UNL     1     -43.695  58.065 -54.942  1.00  0.00     0.236 C 
ENDROOT
BRANCH   1   8
HETATM    8  C   UNL     1     -42.106  57.826 -53.024  1.00  0.00     0.277 C 
BRANCH   8   9
HETATM    9  C   UNL     1     -43.213  57.414 -52.119  1.00  0.00     0.012 A 
HETATM   10  C   UNL     1     -44.158  58.187 -51.354  1.00  0.00     0.071 A 
HETATM   11  N   UNL     1     -45.011  57.372 -50.712  1.00  0.00    -0.178 NA
HETATM   12  N   UNL     1     -44.597  56.135 -50.967  1.00  0.00    -0.288 N 
HETATM   13  H   UNL     1     -45.096  55.358 -50.543  1.00  0.00     0.188 HD
HETATM   14  C   UNL     1     -43.519  56.104 -51.792  1.00  0.00     0.120 A 
BRANCH  10  15
HETATM   15  C   UNL     1     -44.387  59.690 -51.142  1.00  0.00    -0.004 C 
HETATM   16  C   UNL     1     -44.811  60.346 -52.481  1.00  0.00     0.021 C 
HETATM   17  C   UNL     1     -43.075  60.352 -50.666  1.00  0.00     0.021 C 
HETATM   18  C   UNL     1     -45.480  60.039 -50.121  1.00  0.00     0.021 C 
ENDBRANCH  10  15
ENDBRANCH   8   9
ENDBRANCH   1   8
BRANCH   3  19
HETATM   19  C   UNL     1     -40.612  55.671 -54.627  1.00  0.00     0.156 C 
BRANCH  19  20
HETATM   20  N   UNL     1     -40.486  54.229 -54.487  1.00  0.00    -0.355 N 
HETATM   21  C   UNL     1     -40.456  53.651 -53.230  1.00  0.00     0.251 C 
HETATM   22  O   UNL     1     -40.648  54.311 -52.214  1.00  0.00    -0.268 OA
HETATM   23  H   UNL     1     -40.057  53.709 -55.247  1.00  0.00     0.162 HD
BRANCH  21  24
HETATM   24  C   UNL     1     -40.152  52.197 -53.153  1.00  0.00     0.032 A 
HETATM   25  C   UNL     1     -39.737  51.673 -51.922  1.00  0.00     0.017 A 
HETATM   26  C   UNL     1     -39.448  50.313 -51.800  1.00  0.00     0.001 A 
HETATM   27  C   UNL     1     -39.581  49.472 -52.903  1.00  0.00     0.000 A 
HETATM   28  C   UNL     1     -40.010  49.985 -54.127  1.00  0.00     0.001 A 
HETATM   29  C   UNL     1     -40.299  51.345 -54.256  1.00  0.00     0.017 A 
ENDBRANCH  21  24
ENDBRANCH  19  20
ENDBRANCH   3  19
TORSDOF 6
ENDMDL
MODEL 6
REMARK VINA RESULT:      -7.7      2.964      6.170
REMARK  6 active torsions:
REMARK  status: ('A' for Active; 'I' for Inactive)
REMARK    1  A    between atoms: C_2  and  C_3 
REMARK    2  A    between atoms: C_8  and  C_9 
REMARK    3  A    between atoms: C_9  and  N_10 
REMARK    4  A    between atoms: C_12  and  C_13 
REMARK    5  A    between atoms: C_13  and  N_14 
REMARK       I    between atoms: N_14  and  C_15 
REMARK    6  A    between atoms: C_15  and  C_16 
ROOT
HETATM    1  N   UNL     1     -43.507  57.172 -54.240  1.00  0.00    -0.061 N 
HETATM    2  H   UNL     1     -42.916  58.011 -54.233  1.00  0.00     0.280 HD
HETATM    3  C   UNL     1     -42.738  56.097 -55.032  1.00  0.00     0.206 C 
HETATM    4  C   UNL     1     -42.439  56.670 -56.432  1.00  0.00     0.035 C 
HETATM    5  C   UNL     1     -43.698  57.126 -57.158  1.00  0.00     0.004 C 
HETATM    6  C   UNL     1     -44.480  58.122 -56.319  1.00  0.00     0.028 C 
HETATM    7  C   UNL     1     -44.796  57.555 -54.945  1.00  0.00     0.236 C 
ENDROOT
BRANCH   1   8
HETATM    8  C   UNL     1     -43.776  56.864 -52.768  1.00  0.00     0.277 C 
BRANCH   8   9
HETATM    9  C   UNL     1     -43.870  58.028 -51.845  1.00  0.00     0.012 A 
HETATM   10  C   UNL     1     -42.853  58.836 -51.222  1.00  0.00     0.071 A 
HETATM   11  N   UNL     1     -43.419  59.814 -50.496  1.00  0.00    -0.178 NA
HETATM   12  N   UNL     1     -44.730  59.608 -50.564  1.00  0.00    -0.288 N 
HETATM   13  H   UNL     1     -45.348  60.230 -50.049  1.00  0.00     0.188 HD
HETATM   14  C   UNL     1     -45.053  58.546 -51.346  1.00  0.00     0.120 A 
BRANCH  10  15
HETATM   15  C   UNL     1     -41.318  58.816 -51.229  1.00  0.00    -0.004 C 
HETATM   16  C   UNL     1     -40.801  59.028 -52.675  1.00  0.00     0.021 C 
HETATM   17  C   UNL     1     -40.815  57.445 -50.724  1.00  0.00     0.021 C 
HETATM   18  C   UNL     1     -40.654  59.900 -50.367  1.00  0.00     0.021 C 
ENDBRANCH  10  15
ENDBRANCH   8   9
ENDBRANCH   1   8
BRANCH   3  19
HETATM   19  C   UNL     1     -41.399  55.705 -54.334  1.00  0.00     0.156 C 
BRANCH  19  20
HETATM   20  N   UNL     1     -41.139  54.275 -54.274  1.00  0.00    -0.355 N 
HETATM   21  C   UNL     1     -40.717  53.693 -53.092  1.00  0.00     0.251 C 
HETATM   22  O   UNL     1     -40.662  54.330 -52.045  1.00  0.00    -0.268 OA
HETATM   23  H   UNL     1     -40.905  53.794 -55.137  1.00  0.00     0.162 HD
BRANCH  21  24
HETATM   24  C   UNL     1     -40.303  52.265 -53.142  1.00  0.00     0.032 A 
HETATM   25  C   UNL     1     -39.812  51.677 -51.969  1.00  0.00     0.017 A 
HETATM   26  C   UNL     1     -39.419  50.339 -51.967  1.00  0.00     0.001 A 
HETATM   27  C   UNL     1     -39.523  49.581 -53.132  1.00  0.00     0.000 A 
HETATM   28  C   UNL     1     -40.026  50.156 -54.298  1.00  0.00     0.001 A 
HETATM   29  C   UNL     1     -40.420  51.496 -54.307  1.00  0.00     0.017 A 
ENDBRANCH  21  24
ENDBRANCH  19  20
ENDBRANCH   3  19
TORSDOF 6
ENDMDL
MODEL 7
REMARK VINA RESULT:      -7.5      2.491      3.952
REMARK  6 active torsions:
REMARK  status: ('A' for Active; 'I' for Inactive)
REMARK    1  A    between atoms: C_2  and  C_3 
REMARK    2  A    between atoms: C_8  and  C_9 
REMARK    3  A    between atoms: C_9  and  N_10 
REMARK    4  A    between atoms: C_12  and  C_13 
REMARK    5  A    between atoms: C_13  and  N_14 
REMARK       I    between atoms: N_14  and  C_15 
REMARK    6  A    between atoms: C_15  and  C_16 
ROOT
HETATM    1  N   UNL     1     -42.677  57.301 -52.329  1.00  0.00    -0.061 N 
HETATM    2  H   UNL     1     -43.299  57.620 -51.577  1.00  0.00     0.280 HD
HETATM    3  C   UNL     1     -41.523  56.537 -51.653  1.00  0.00     0.206 C 
HETATM    4  C   UNL     1     -40.854  57.494 -50.645  1.00  0.00     0.035 C 
HETATM    5  C   UNL     1     -40.383  58.790 -51.292  1.00  0.00     0.004 C 
HETATM    6  C   UNL     1     -41.524  59.480 -52.022  1.00  0.00     0.028 C 
HETATM    7  C   UNL     1     -42.173  58.548 -53.033  1.00  0.00     0.236 C 
ENDROOT
BRANCH   1   8
HETATM    8  C   UNL     1     -43.571  56.487 -53.264  1.00  0.00     0.277 C 
BRANCH   8   9
HETATM    9  C   UNL     1     -43.045  56.217 -54.629  1.00  0.00     0.012 A 
HETATM   10  C   UNL     1     -43.286  56.869 -55.890  1.00  0.00     0.071 A 
HETATM   11  N   UNL     1     -42.548  56.297 -56.856  1.00  0.00    -0.178 NA
HETATM   12  N   UNL     1     -41.926  55.272 -56.283  1.00  0.00    -0.288 N 
HETATM   13  H   UNL     1     -41.332  54.680 -56.857  1.00  0.00     0.188 HD
HETATM   14  C   UNL     1     -42.199  55.171 -54.956  1.00  0.00     0.120 A 
BRANCH  10  15
HETATM   15  C   UNL     1     -44.168  58.044 -56.336  1.00  0.00    -0.004 C 
HETATM   16  C   UNL     1     -44.673  57.797 -57.781  1.00  0.00     0.021 C 
HETATM   17  C   UNL     1     -43.340  59.348 -56.322  1.00  0.00     0.021 C 
HETATM   18  C   UNL     1     -45.417  58.278 -55.474  1.00  0.00     0.021 C 
ENDBRANCH  10  15
ENDBRANCH   8   9
ENDBRANCH   1   8
BRANCH   3  19
HETATM   19  C   UNL     1     -42.024  55.263 -50.907  1.00  0.00     0.156 C 
BRANCH  19  20
HETATM   20  N   UNL     1     -41.726  54.007 -51.577  1.00  0.00    -0.355 N 
HETATM   21  C   UNL     1     -40.507  53.383 -51.378  1.00  0.00     0.251 C 
HETATM   22  O   UNL     1     -39.699  53.799 -50.554  1.00  0.00    -0.268 OA
HETATM   23  H   UNL     1     -42.220  53.795 -52.439  1.00  0.00     0.162 HD
BRANCH  21  24
HETATM   24  C   UNL     1     -40.199  52.199 -52.223  1.00  0.00     0.032 A 
HETATM   25  C   UNL     1     -39.747  51.034 -51.589  1.00  0.00     0.017 A 
HETATM   26  C   UNL     1     -39.453  49.896 -52.340  1.00  0.00     0.001 A 
HETATM   27  C   UNL     1     -39.617  49.913 -53.725  1.00  0.00     0.000 A 
HETATM   28  C   UNL     1     -40.082  51.065 -54.359  1.00  0.00     0.001 A 
HETATM   29  C   UNL     1     -40.378  52.208 -53.612  1.00  0.00     0.017 A 
ENDBRANCH  21  24
ENDBRANCH  19  20
ENDBRANCH   3  19
TORSDOF 6
ENDMDL
MODEL 8
REMARK VINA RESULT:      -7.5      3.206      6.290
REMARK  6 active torsions:
REMARK  status: ('A' for Active; 'I' for Inactive)
REMARK    1  A    between atoms: C_2  and  C_3 
REMARK    2  A    between atoms: C_8  and  C_9 
REMARK    3  A    between atoms: C_9  and  N_10 
REMARK    4  A    between atoms: C_12  and  C_13 
REMARK    5  A    between atoms: C_13  and  N_14 
REMARK       I    between atoms: N_14  and  C_15 
REMARK    6  A    between atoms: C_15  and  C_16 
ROOT
HETATM    1  N   UNL     1     -42.970  57.397 -53.757  1.00  0.00    -0.061 N 
HETATM    2  H   UNL     1     -42.358  58.206 -53.915  1.00  0.00     0.280 HD
HETATM    3  C   UNL     1     -42.461  56.274 -54.682  1.00  0.00     0.206 C 
HETATM    4  C   UNL     1     -42.484  56.811 -56.128  1.00  0.00     0.035 C 
HETATM    5  C   UNL     1     -43.860  57.317 -56.542  1.00  0.00     0.004 C 
HETATM    6  C   UNL     1     -44.372  58.362 -55.566  1.00  0.00     0.028 C 
HETATM    7  C   UNL     1     -44.372  57.832 -54.142  1.00  0.00     0.236 C 
ENDROOT
BRANCH   1   8
HETATM    8  C   UNL     1     -42.888  57.125 -52.256  1.00  0.00     0.277 C 
BRANCH   8   9
HETATM    9  C   UNL     1     -42.095  58.084 -51.442  1.00  0.00     0.012 A 
HETATM   10  C   UNL     1     -42.397  59.411 -50.967  1.00  0.00     0.071 A 
HETATM   11  N   UNL     1     -41.382  59.879 -50.223  1.00  0.00    -0.178 NA
HETATM   12  N   UNL     1     -40.429  58.953 -50.279  1.00  0.00    -0.288 N 
HETATM   13  H   UNL     1     -39.550  59.129 -49.800  1.00  0.00     0.188 HD
HETATM   14  C   UNL     1     -40.800  57.867 -51.005  1.00  0.00     0.120 A 
BRANCH  10  15
HETATM   15  C   UNL     1     -43.598  60.354 -51.121  1.00  0.00    -0.004 C 
HETATM   16  C   UNL     1     -43.474  61.524 -50.111  1.00  0.00     0.021 C 
HETATM   17  C   UNL     1     -44.904  59.584 -50.822  1.00  0.00     0.021 C 
HETATM   18  C   UNL     1     -43.744  60.993 -52.510  1.00  0.00     0.021 C 
ENDBRANCH  10  15
ENDBRANCH   8   9
ENDBRANCH   1   8
BRANCH   3  19
HETATM   19  C   UNL     1     -41.013  55.828 -54.316  1.00  0.00     0.156 C 
BRANCH  19  20
HETATM   20  N   UNL     1     -40.822  54.389 -54.228  1.00  0.00    -0.355 N 
HETATM   21  C   UNL     1     -40.606  53.788 -53.000  1.00  0.00     0.251 C 
HETATM   22  O   UNL     1     -40.683  54.422 -51.952  1.00  0.00    -0.268 OA
HETATM   23  H   UNL     1     -40.481  53.899 -55.049  1.00  0.00     0.162 HD
BRANCH  21  24
HETATM   24  C   UNL     1     -40.247  52.345 -52.998  1.00  0.00     0.032 A 
HETATM   25  C   UNL     1     -40.350  51.636 -54.203  1.00  0.00     0.017 A 
HETATM   26  C   UNL     1     -40.017  50.283 -54.250  1.00  0.00     0.001 A 
HETATM   27  C   UNL     1     -39.572  49.634 -53.100  1.00  0.00     0.000 A 
HETATM   28  C   UNL     1     -39.452  50.338 -51.902  1.00  0.00     0.001 A 
HETATM   29  C   UNL     1     -39.784  51.694 -51.847  1.00  0.00     0.017 A 
ENDBRANCH  21  24
ENDBRANCH  19  20
ENDBRANCH   3  19
TORSDOF 6
ENDMDL
MODEL 9
REMARK VINA RESULT:      -7.4      2.855      7.800
REMARK  6 active torsions:
REMARK  status: ('A' for Active; 'I' for Inactive)
REMARK    1  A    between atoms: C_2  and  C_3 
REMARK    2  A    between atoms: C_8  and  C_9 
REMARK    3  A    between atoms: C_9  and  N_10 
REMARK    4  A    between atoms: C_12  and  C_13 
REMARK    5  A    between atoms: C_13  and  N_14 
REMARK       I    between atoms: N_14  and  C_15 
REMARK    6  A    between atoms: C_15  and  C_16 
ROOT
HETATM    1  N   UNL     1     -42.015  56.652 -52.244  1.00  0.00    -0.061 N 
HETATM    2  H   UNL     1     -41.234  56.400 -52.862  1.00  0.00     0.280 HD
HETATM    3  C   UNL     1     -42.997  57.484 -53.093  1.00  0.00     0.206 C 
HETATM    4  C   UNL     1     -42.222  58.692 -53.657  1.00  0.00     0.035 C 
HETATM    5  C   UNL     1     -41.561  59.524 -52.565  1.00  0.00     0.004 C 
HETATM    6  C   UNL     1     -40.664  58.662 -51.692  1.00  0.00     0.028 C 
HETATM    7  C   UNL     1     -41.427  57.481 -51.116  1.00  0.00     0.236 C 
ENDROOT
BRANCH   1   8
HETATM    8  C   UNL     1     -42.543  55.322 -51.710  1.00  0.00     0.277 C 
BRANCH   8   9
HETATM    9  C   UNL     1     -41.538  54.256 -51.451  1.00  0.00     0.012 A 
HETATM   10  C   UNL     1     -40.802  53.401 -52.346  1.00  0.00     0.071 A 
HETATM   11  N   UNL     1     -39.964  52.613 -51.651  1.00  0.00    -0.178 NA
HETATM   12  N   UNL     1     -40.200  52.871 -50.369  1.00  0.00    -0.288 N 
HETATM   13  H   UNL     1     -39.684  52.349 -49.665  1.00  0.00     0.188 HD
HETATM   14  C   UNL     1     -41.140  53.835 -50.193  1.00  0.00     0.120 A 
BRANCH  10  15
HETATM   15  C   UNL     1     -40.771  53.222 -53.871  1.00  0.00    -0.004 C 
HETATM   16  C   UNL     1     -39.839  52.038 -54.237  1.00  0.00     0.021 C 
HETATM   17  C   UNL     1     -40.218  54.504 -54.532  1.00  0.00     0.021 C 
HETATM   18  C   UNL     1     -42.132  52.918 -54.513  1.00  0.00     0.021 C 
ENDBRANCH  10  15
ENDBRANCH   8   9
ENDBRANCH   1   8
BRANCH   3  19
HETATM   19  C   UNL     1     -43.596  56.655 -54.271  1.00  0.00     0.156 C 
BRANCH  19  20
HETATM   20  N   UNL     1     -43.419  57.249 -55.586  1.00  0.00    -0.355 N 
HETATM   21  C   UNL     1     -43.056  56.461 -56.663  1.00  0.00     0.251 C 
HETATM   22  O   UNL     1     -42.988  55.239 -56.572  1.00  0.00    -0.268 OA
HETATM   23  H   UNL     1     -43.193  58.238 -55.639  1.00  0.00     0.162 HD
BRANCH  21  24
HETATM   24  C   UNL     1     -42.723  57.153 -57.937  1.00  0.00     0.032 A 
HETATM   25  C   UNL     1     -42.343  58.501 -57.876  1.00  0.00     0.017 A 
HETATM   26  C   UNL     1     -42.014  59.190 -59.044  1.00  0.00     0.001 A 
HETATM   27  C   UNL     1     -42.054  58.534 -60.274  1.00  0.00     0.000 A 
HETATM   28  C   UNL     1     -42.415  57.189 -60.338  1.00  0.00     0.001 A 
HETATM   29  C   UNL     1     -42.747  56.494 -59.172  1.00  0.00     0.017 A 
ENDBRANCH  21  24
ENDBRANCH  19  20
ENDBRANCH   3  19
TORSDOF 6
ENDMDL
MODEL 10
REMARK VINA RESULT:      -7.4      2.923      5.822
REMARK  6 active torsions:
REMARK  status: ('A' for Active; 'I' for Inactive)
REMARK    1  A    between atoms: C_2  and  C_3 
REMARK    2  A    between atoms: C_8  and  C_9 
REMARK    3  A    between atoms: C_9  and  N_10 
REMARK    4  A    between atoms: C_12  and  C_13 
REMARK    5  A    between atoms: C_13  and  N_14 
REMARK       I    between atoms: N_14  and  C_15 
REMARK    6  A    between atoms: C_15  and  C_16 
ROOT
HETATM    1  N   UNL     1     -42.798  57.654 -55.451  1.00  0.00    -0.061 N 
HETATM    2  H   UNL     1     -41.793  57.470 -55.355  1.00  0.00     0.280 HD
HETATM    3  C   UNL     1     -43.517  56.312 -55.212  1.00  0.00     0.206 C 
HETATM    4  C   UNL     1     -42.961  55.295 -56.230  1.00  0.00     0.035 C 
HETATM    5  C   UNL     1     -43.100  55.773 -57.670  1.00  0.00     0.004 C 
HETATM    6  C   UNL     1     -42.456  57.136 -57.856  1.00  0.00     0.028 C 
HETATM    7  C   UNL     1     -43.015  58.148 -56.870  1.00  0.00     0.236 C 
ENDROOT
BRANCH   1   8
HETATM    8  C   UNL     1     -43.095  58.768 -54.448  1.00  0.00     0.277 C 
BRANCH   8   9
HETATM    9  C   UNL     1     -42.090  58.989 -53.374  1.00  0.00     0.012 A 
HETATM   10  C   UNL     1     -42.187  59.653 -52.099  1.00  0.00     0.071 A 
HETATM   11  N   UNL     1     -41.019  59.564 -51.440  1.00  0.00    -0.178 NA
HETATM   12  N   UNL     1     -40.177  58.957 -52.270  1.00  0.00    -0.288 N 
HETATM   13  H   UNL     1     -39.215  58.817 -51.971  1.00  0.00     0.188 HD
HETATM   14  C   UNL     1     -40.762  58.604 -53.443  1.00  0.00     0.120 A 
BRANCH  10  15
HETATM   15  C   UNL     1     -43.309  60.399 -51.363  1.00  0.00    -0.004 C 
HETATM   16  C   UNL     1     -43.748  61.630 -52.197  1.00  0.00     0.021 C 
HETATM   17  C   UNL     1     -42.792  60.893 -49.994  1.00  0.00     0.021 C 
HETATM   18  C   UNL     1     -44.577  59.571 -51.110  1.00  0.00     0.021 C 
ENDBRANCH  10  15
ENDBRANCH   8   9
ENDBRANCH   1   8
BRANCH   3  19
HETATM   19  C   UNL     1     -43.289  55.777 -53.766  1.00  0.00     0.156 C 
BRANCH  19  20
HETATM   20  N   UNL     1     -42.651  54.472 -53.692  1.00  0.00    -0.355 N 
HETATM   21  C   UNL     1     -41.465  54.315 -52.997  1.00  0.00     0.251 C 
HETATM   22  O   UNL     1     -40.981  55.228 -52.335  1.00  0.00    -0.268 OA
HETATM   23  H   UNL     1     -42.852  53.798 -54.424  1.00  0.00     0.162 HD
BRANCH  21  24
HETATM   24  C   UNL     1     -40.778  53.000 -53.106  1.00  0.00     0.032 A 
HETATM   25  C   UNL     1     -40.143  52.490 -51.965  1.00  0.00     0.017 A 
HETATM   26  C   UNL     1     -39.492  51.257 -52.018  1.00  0.00     0.001 A 
HETATM   27  C   UNL     1     -39.481  50.525 -53.204  1.00  0.00     0.000 A 
HETATM   28  C   UNL     1     -40.125  51.021 -54.337  1.00  0.00     0.001 A 
HETATM   29  C   UNL     1     -40.777  52.255 -54.292  1.00  0.00     0.017 A 
ENDBRANCH  21  24
ENDBRANCH  19  20
ENDBRANCH   3  19
TORSDOF 6
ENDMDL
