MODEL 1
REMARK VINA RESULT:      -8.4      0.000      0.000
REMARK  5 active torsions:
REMARK  status: ('A' for Active; 'I' for Inactive)
REMARK    1  A    between atoms: C_9  and  C_10 
REMARK       I    between atoms: C_10  and  N_11 
REMARK    2  A    between atoms: N_11  and  C_12 
REMARK    3  A    between atoms: C_12  and  C_13 
REMARK    4  A    between atoms: C_13  and  N_14 
REMARK       I    between atoms: N_14  and  C_15 
REMARK    5  A    between atoms: C_15  and  C_16 
ROOT
HETATM    1  C   UNL     1     -40.788  58.574 -52.854  1.00  0.00     0.272 C 
HETATM    2  N   UNL     1     -41.427  57.714 -51.986  1.00  0.00    -0.354 N 
HETATM    3  O   UNL     1     -39.800  59.231 -52.538  1.00  0.00    -0.266 OA
HETATM    4  H   UNL     1     -42.266  57.267 -52.345  1.00  0.00     0.162 HD
ENDROOT
BRANCH   2   5
HETATM    5  C   UNL     1     -41.024  57.545 -50.609  1.00  0.00     0.142 C 
BRANCH   5   6
HETATM    6  C   UNL     1     -41.399  56.167 -50.050  1.00  0.00     0.142 C 
BRANCH   6   7
HETATM    7  N   UNL     1     -41.117  55.091 -50.982  1.00  0.00    -0.355 N 
HETATM    8  C   UNL     1     -40.383  53.988 -50.602  1.00  0.00     0.251 C 
HETATM    9  O   UNL     1     -39.941  53.847 -49.466  1.00  0.00    -0.268 OA
HETATM   10  H   UNL     1     -41.625  55.095 -51.855  1.00  0.00     0.162 HD
BRANCH   8  11
HETATM   11  C   UNL     1     -40.158  52.926 -51.629  1.00  0.00     0.032 A 
HETATM   12  C   UNL     1     -39.703  51.640 -51.306  1.00  0.00     0.018 A 
HETATM   13  C   UNL     1     -39.523  50.684 -52.313  1.00  0.00     0.025 A 
HETATM   14  C   UNL     1     -39.806  51.005 -53.640  1.00  0.00     0.034 A 
HETATM   15 CL   UNL     1     -39.588  49.824 -54.871  1.00  0.00    -0.084 Cl
HETATM   16  C   UNL     1     -40.272  52.275 -53.971  1.00  0.00     0.025 A 
HETATM   17  C   UNL     1     -40.449  53.232 -52.968  1.00  0.00     0.018 A 
ENDBRANCH   8  11
ENDBRANCH   6   7
ENDBRANCH   5   6
ENDBRANCH   2   5
BRANCH   1  18
HETATM   18  C   UNL     1     -41.423  58.638 -54.180  1.00  0.00     0.157 A 
HETATM   19  C   UNL     1     -42.009  57.563 -54.914  1.00  0.00     0.029 A 
HETATM   20  C   UNL     1     -42.205  56.183 -54.712  1.00  0.00     0.023 A 
HETATM   21  C   UNL     1     -42.456  58.136 -56.098  1.00  0.00     0.063 A 
HETATM   22  C   UNL     1     -42.845  55.421 -55.705  1.00  0.00    -0.061 A 
HETATM   23  C   UNL     1     -43.060  53.948 -55.513  1.00  0.00     0.048 C 
HETATM   24  C   UNL     1     -43.280  56.040 -56.884  1.00  0.00     0.009 A 
HETATM   25  C   UNL     1     -43.096  57.409 -57.105  1.00  0.00     0.032 A 
HETATM   26  N   UNL     1     -42.126  59.460 -56.006  1.00  0.00    -0.277 N 
HETATM   27  H   UNL     1     -42.302  60.185 -56.693  1.00  0.00     0.189 HD
HETATM   28  N   UNL     1     -41.498  59.800 -54.868  1.00  0.00    -0.168 NA
ENDBRANCH   1  18
TORSDOF 5
ENDMDL
MODEL 2
REMARK VINA RESULT:      -8.1      2.122      2.964
REMARK  5 active torsions:
REMARK  status: ('A' for Active; 'I' for Inactive)
REMARK    1  A    between atoms: C_9  and  C_10 
REMARK       I    between atoms: C_10  and  N_11 
REMARK    2  A    between atoms: N_11  and  C_12 
REMARK    3  A    between atoms: C_12  and  C_13 
REMARK    4  A    between atoms: C_13  and  N_14 
REMARK       I    between atoms: N_14  and  C_15 
REMARK    5  A    between atoms: C_15  and  C_16 
ROOT
HETATM    1  C   UNL     1     -42.297  57.647 -54.788  1.00  0.00     0.272 C 
HETATM    2  N   UNL     1     -42.783  57.156 -53.595  1.00  0.00    -0.354 N 
HETATM    3  O   UNL     1     -41.634  58.679 -54.865  1.00  0.00    -0.266 OA
HETATM    4  H   UNL     1     -43.365  56.324 -53.665  1.00  0.00     0.162 HD
ENDROOT
BRANCH   2   5
HETATM    5  C   UNL     1     -42.603  57.834 -52.333  1.00  0.00     0.142 C 
BRANCH   5   6
HETATM    6  C   UNL     1     -41.687  57.063 -51.375  1.00  0.00     0.142 C 
BRANCH   6   7
HETATM    7  N   UNL     1     -41.157  55.848 -51.966  1.00  0.00    -0.355 N 
HETATM    8  C   UNL     1     -41.358  54.619 -51.376  1.00  0.00     0.251 C 
HETATM    9  O   UNL     1     -41.997  54.479 -50.338  1.00  0.00    -0.268 OA
HETATM   10  H   UNL     1     -40.796  55.915 -52.907  1.00  0.00     0.162 HD
BRANCH   8  11
HETATM   11  C   UNL     1     -40.785  53.424 -52.068  1.00  0.00     0.032 A 
HETATM   12  C   UNL     1     -39.992  52.472 -51.411  1.00  0.00     0.018 A 
HETATM   13  C   UNL     1     -39.493  51.368 -52.112  1.00  0.00     0.025 A 
HETATM   14  C   UNL     1     -39.793  51.205 -53.464  1.00  0.00     0.034 A 
HETATM   15 CL   UNL     1     -39.183  49.842 -54.317  1.00  0.00    -0.084 Cl
HETATM   16  C   UNL     1     -40.592  52.136 -54.123  1.00  0.00     0.025 A 
HETATM   17  C   UNL     1     -41.087  53.242 -53.426  1.00  0.00     0.018 A 
ENDBRANCH   8  11
ENDBRANCH   6   7
ENDBRANCH   5   6
ENDBRANCH   2   5
BRANCH   1  18
HETATM   18  C   UNL     1     -42.672  56.826 -55.951  1.00  0.00     0.157 A 
HETATM   19  C   UNL     1     -42.639  57.205 -57.326  1.00  0.00     0.029 A 
HETATM   20  C   UNL     1     -42.286  58.358 -58.055  1.00  0.00     0.023 A 
HETATM   21  C   UNL     1     -43.093  56.089 -58.018  1.00  0.00     0.063 A 
HETATM   22  C   UNL     1     -42.398  58.353 -59.456  1.00  0.00    -0.061 A 
HETATM   23  C   UNL     1     -42.030  59.572 -60.253  1.00  0.00     0.048 C 
HETATM   24  C   UNL     1     -42.858  57.206 -60.114  1.00  0.00     0.009 A 
HETATM   25  C   UNL     1     -43.215  56.050 -59.410  1.00  0.00     0.032 A 
HETATM   26  N   UNL     1     -43.356  55.151 -57.059  1.00  0.00    -0.277 N 
HETATM   27  H   UNL     1     -43.704  54.210 -57.201  1.00  0.00     0.189 HD
HETATM   28  N   UNL     1     -43.120  55.559 -55.800  1.00  0.00    -0.168 NA
ENDBRANCH   1  18
TORSDOF 5
ENDMDL
MODEL 3
REMARK VINA RESULT:      -7.9      3.355      6.774
REMARK  5 active torsions:
REMARK  status: ('A' for Active; 'I' for Inactive)
REMARK    1  A    between atoms: C_9  and  C_10 
REMARK       I    between atoms: C_10  and  N_11 
REMARK    2  A    between atoms: N_11  and  C_12 
REMARK    3  A    between atoms: C_12  and  C_13 
REMARK    4  A    between atoms: C_13  and  N_14 
REMARK       I    between atoms: N_14  and  C_15 
REMARK    5  A    between atoms: C_15  and  C_16 
ROOT
HETATM    1  C   UNL     1     -42.544  54.248 -54.999  1.00  0.00     0.272 C 
HETATM    2  N   UNL     1     -41.952  55.055 -55.947  1.00  0.00    -0.354 N 
HETATM    3  O   UNL     1     -43.761  54.171 -54.852  1.00  0.00    -0.266 OA
HETATM    4  H   UNL     1     -40.935  55.076 -55.936  1.00  0.00     0.162 HD
ENDROOT
BRANCH   2   5
HETATM    5  C   UNL     1     -42.705  55.923 -56.821  1.00  0.00     0.142 C 
BRANCH   5   6
HETATM    6  C   UNL     1     -43.252  57.159 -56.096  1.00  0.00     0.142 C 
BRANCH   6   7
HETATM    7  N   UNL     1     -42.322  57.687 -55.115  1.00  0.00    -0.355 N 
HETATM    8  C   UNL     1     -42.635  57.712 -53.773  1.00  0.00     0.251 C 
HETATM    9  O   UNL     1     -43.698  57.285 -53.333  1.00  0.00    -0.268 OA
HETATM   10  H   UNL     1     -41.378  57.866 -55.426  1.00  0.00     0.162 HD
BRANCH   8  11
HETATM   11  C   UNL     1     -41.606  58.262 -52.838  1.00  0.00     0.032 A 
HETATM   12  C   UNL     1     -40.267  58.453 -53.208  1.00  0.00     0.018 A 
HETATM   13  C   UNL     1     -39.352  58.983 -52.290  1.00  0.00     0.025 A 
HETATM   14  C   UNL     1     -39.773  59.333 -51.008  1.00  0.00     0.034 A 
HETATM   15 CL   UNL     1     -38.646  59.990 -49.887  1.00  0.00    -0.084 Cl
HETATM   16  C   UNL     1     -41.103  59.162 -50.634  1.00  0.00     0.025 A 
HETATM   17  C   UNL     1     -42.018  58.629 -51.547  1.00  0.00     0.018 A 
ENDBRANCH   8  11
ENDBRANCH   6   7
ENDBRANCH   5   6
ENDBRANCH   2   5
BRANCH   1  18
HETATM   18  C   UNL     1     -41.573  53.512 -54.173  1.00  0.00     0.157 A 
HETATM   19  C   UNL     1     -41.209  53.776 -52.819  1.00  0.00     0.029 A 
HETATM   20  C   UNL     1     -41.572  54.716 -51.834  1.00  0.00     0.023 A 
HETATM   21  C   UNL     1     -40.257  52.813 -52.507  1.00  0.00     0.063 A 
HETATM   22  C   UNL     1     -40.968  54.658 -50.566  1.00  0.00    -0.061 A 
HETATM   23  C   UNL     1     -41.337  55.653 -49.502  1.00  0.00     0.048 C 
HETATM   24  C   UNL     1     -40.014  53.670 -50.293  1.00  0.00     0.009 A 
HETATM   25  C   UNL     1     -39.638  52.728 -51.257  1.00  0.00     0.032 A 
HETATM   26  N   UNL     1     -40.115  52.064 -53.642  1.00  0.00    -0.277 N 
HETATM   27  H   UNL     1     -39.502  51.269 -53.778  1.00  0.00     0.189 HD
HETATM   28  N   UNL     1     -40.887  52.457 -54.669  1.00  0.00    -0.168 NA
ENDBRANCH   1  18
TORSDOF 5
ENDMDL
MODEL 4
REMARK VINA RESULT:      -7.9      2.279      5.929
REMARK  5 active torsions:
REMARK  status: ('A' for Active; 'I' for Inactive)
REMARK    1  A    between atoms: C_9  and  C_10 
REMARK       I    between atoms: C_10  and  N_11 
REMARK    2  A    between atoms: N_11  and  C_12 
REMARK    3  A    between atoms: C_12  and  C_13 
REMARK    4  A    between atoms: C_13  and  N_14 
REMARK       I    between atoms: N_14  and  C_15 
REMARK    5  A    between atoms: C_15  and  C_16 
ROOT
HETATM    1  C   UNL     1     -42.597  56.495 -51.044  1.00  0.00     0.272 C 
HETATM    2  N   UNL     1     -42.053  57.723 -50.733  1.00  0.00    -0.354 N 
HETATM    3  O   UNL     1     -43.650  56.369 -51.664  1.00  0.00    -0.266 OA
HETATM    4  H   UNL     1     -41.206  57.701 -50.169  1.00  0.00     0.162 HD
ENDROOT
BRANCH   2   5
HETATM    5  C   UNL     1     -42.696  58.974 -51.060  1.00  0.00     0.142 C 
BRANCH   5   6
HETATM    6  C   UNL     1     -42.141  59.605 -52.342  1.00  0.00     0.142 C 
BRANCH   6   7
HETATM    7  N   UNL     1     -42.521  58.870 -53.535  1.00  0.00    -0.355 N 
HETATM    8  C   UNL     1     -41.668  57.955 -54.114  1.00  0.00     0.251 C 
HETATM    9  O   UNL     1     -40.558  57.703 -53.656  1.00  0.00    -0.268 OA
HETATM   10  H   UNL     1     -43.490  58.920 -53.816  1.00  0.00     0.162 HD
BRANCH   8  11
HETATM   11  C   UNL     1     -42.155  57.238 -55.332  1.00  0.00     0.032 A 
HETATM   12  C   UNL     1     -42.300  55.845 -55.386  1.00  0.00     0.018 A 
HETATM   13  C   UNL     1     -42.773  55.232 -56.554  1.00  0.00     0.025 A 
HETATM   14  C   UNL     1     -43.109  56.007 -57.662  1.00  0.00     0.034 A 
HETATM   15 CL   UNL     1     -43.695  55.248 -59.090  1.00  0.00    -0.084 Cl
HETATM   16  C   UNL     1     -42.983  57.393 -57.615  1.00  0.00     0.025 A 
HETATM   17  C   UNL     1     -42.508  58.007 -56.452  1.00  0.00     0.018 A 
ENDBRANCH   8  11
ENDBRANCH   6   7
ENDBRANCH   5   6
ENDBRANCH   2   5
BRANCH   1  18
HETATM   18  C   UNL     1     -41.802  55.363 -50.542  1.00  0.00     0.157 A 
HETATM   19  C   UNL     1     -41.209  54.314 -51.306  1.00  0.00     0.029 A 
HETATM   20  C   UNL     1     -41.137  53.964 -52.669  1.00  0.00     0.023 A 
HETATM   21  C   UNL     1     -40.581  53.499 -50.372  1.00  0.00     0.063 A 
HETATM   22  C   UNL     1     -40.437  52.807 -53.051  1.00  0.00    -0.061 A 
HETATM   23  C   UNL     1     -40.352  52.412 -54.498  1.00  0.00     0.048 C 
HETATM   24  C   UNL     1     -39.818  52.013 -52.077  1.00  0.00     0.009 A 
HETATM   25  C   UNL     1     -39.876  52.343 -50.718  1.00  0.00     0.032 A 
HETATM   26  N   UNL     1     -40.825  54.083 -49.160  1.00  0.00    -0.277 N 
HETATM   27  H   UNL     1     -40.515  53.760 -48.251  1.00  0.00     0.189 HD
HETATM   28  N   UNL     1     -41.562  55.205 -49.221  1.00  0.00    -0.168 NA
ENDBRANCH   1  18
TORSDOF 5
ENDMDL
MODEL 5
REMARK VINA RESULT:      -7.9      4.497      8.662
REMARK  5 active torsions:
REMARK  status: ('A' for Active; 'I' for Inactive)
REMARK    1  A    between atoms: C_9  and  C_10 
REMARK       I    between atoms: C_10  and  N_11 
REMARK    2  A    between atoms: N_11  and  C_12 
REMARK    3  A    between atoms: C_12  and  C_13 
REMARK    4  A    between atoms: C_13  and  N_14 
REMARK       I    between atoms: N_14  and  C_15 
REMARK    5  A    between atoms: C_15  and  C_16 
ROOT
HETATM    1  C   UNL     1     -42.512  54.777 -55.252  1.00  0.00     0.272 C 
HETATM    2  N   UNL     1     -42.191  56.003 -55.795  1.00  0.00    -0.354 N 
HETATM    3  O   UNL     1     -43.321  54.009 -55.766  1.00  0.00    -0.266 OA
HETATM    4  H   UNL     1     -41.550  56.573 -55.250  1.00  0.00     0.162 HD
ENDROOT
BRANCH   2   5
HETATM    5  C   UNL     1     -42.814  56.520 -56.991  1.00  0.00     0.142 C 
BRANCH   5   6
HETATM    6  C   UNL     1     -43.352  57.945 -56.807  1.00  0.00     0.142 C 
BRANCH   6   7
HETATM    7  N   UNL     1     -42.855  58.862 -57.816  1.00  0.00    -0.355 N 
HETATM    8  C   UNL     1     -41.998  59.891 -57.488  1.00  0.00     0.251 C 
HETATM    9  O   UNL     1     -41.601  60.082 -56.343  1.00  0.00    -0.268 OA
HETATM   10  H   UNL     1     -43.013  58.613 -58.781  1.00  0.00     0.162 HD
BRANCH   8  11
HETATM   11  C   UNL     1     -41.529  60.774 -58.598  1.00  0.00     0.032 A 
HETATM   12  C   UNL     1     -40.663  61.858 -58.395  1.00  0.00     0.018 A 
HETATM   13  C   UNL     1     -40.251  62.643 -59.479  1.00  0.00     0.025 A 
HETATM   14  C   UNL     1     -40.692  62.342 -60.766  1.00  0.00     0.034 A 
HETATM   15 CL   UNL     1     -40.176  63.306 -62.094  1.00  0.00    -0.084 Cl
HETATM   16  C   UNL     1     -41.541  61.260 -60.983  1.00  0.00     0.025 A 
HETATM   17  C   UNL     1     -41.958  60.478 -59.902  1.00  0.00     0.018 A 
ENDBRANCH   8  11
ENDBRANCH   6   7
ENDBRANCH   5   6
ENDBRANCH   2   5
BRANCH   1  18
HETATM   18  C   UNL     1     -41.806  54.497 -53.991  1.00  0.00     0.157 A 
HETATM   19  C   UNL     1     -41.036  53.341 -53.667  1.00  0.00     0.029 A 
HETATM   20  C   UNL     1     -40.671  52.147 -54.319  1.00  0.00     0.023 A 
HETATM   21  C   UNL     1     -40.593  53.556 -52.368  1.00  0.00     0.063 A 
HETATM   22  C   UNL     1     -39.872  51.206 -53.647  1.00  0.00    -0.061 A 
HETATM   23  C   UNL     1     -39.475  49.924 -54.321  1.00  0.00     0.048 C 
HETATM   24  C   UNL     1     -39.447  51.463 -52.337  1.00  0.00     0.009 A 
HETATM   25  C   UNL     1     -39.797  52.642 -51.670  1.00  0.00     0.032 A 
HETATM   26  N   UNL     1     -41.101  54.773 -52.009  1.00  0.00    -0.277 N 
HETATM   27  H   UNL     1     -40.979  55.251 -51.123  1.00  0.00     0.189 HD
HETATM   28  N   UNL     1     -41.843  55.369 -52.958  1.00  0.00    -0.168 NA
ENDBRANCH   1  18
TORSDOF 5
ENDMDL
MODEL 6
REMARK VINA RESULT:      -7.9      3.118      6.689
REMARK  5 active torsions:
REMARK  status: ('A' for Active; 'I' for Inactive)
REMARK    1  A    between atoms: C_9  and  C_10 
REMARK       I    between atoms: C_10  and  N_11 
REMARK    2  A    between atoms: N_11  and  C_12 
REMARK    3  A    between atoms: C_12  and  C_13 
REMARK    4  A    between atoms: C_13  and  N_14 
REMARK       I    between atoms: N_14  and  C_15 
REMARK    5  A    between atoms: C_15  and  C_16 
ROOT
HETATM    1  C   UNL     1     -42.747  54.913 -54.188  1.00  0.00     0.272 C 
HETATM    2  N   UNL     1     -42.102  55.853 -54.963  1.00  0.00    -0.354 N 
HETATM    3  O   UNL     1     -43.921  54.596 -54.360  1.00  0.00    -0.266 OA
HETATM    4  H   UNL     1     -41.147  56.070 -54.690  1.00  0.00     0.162 HD
ENDROOT
BRANCH   2   5
HETATM    5  C   UNL     1     -42.761  56.590 -56.015  1.00  0.00     0.142 C 
BRANCH   5   6
HETATM    6  C   UNL     1     -42.759  58.103 -55.767  1.00  0.00     0.142 C 
BRANCH   6   7
HETATM    7  N   UNL     1     -41.825  58.496 -54.728  1.00  0.00    -0.355 N 
HETATM    8  C   UNL     1     -42.194  58.505 -53.400  1.00  0.00     0.251 C 
HETATM    9  O   UNL     1     -43.315  58.176 -53.022  1.00  0.00    -0.268 OA
HETATM   10  H   UNL     1     -40.855  58.586 -54.992  1.00  0.00     0.162 HD
BRANCH   8  11
HETATM   11  C   UNL     1     -41.159  58.911 -52.402  1.00  0.00     0.032 A 
HETATM   12  C   UNL     1     -41.479  59.359 -51.112  1.00  0.00     0.018 A 
HETATM   13  C   UNL     1     -40.461  59.715 -50.218  1.00  0.00     0.025 A 
HETATM   14  C   UNL     1     -39.126  59.614 -50.605  1.00  0.00     0.034 A 
HETATM   15 CL   UNL     1     -37.881  60.046 -49.499  1.00  0.00    -0.084 Cl
HETATM   16  C   UNL     1     -38.795  59.157 -51.877  1.00  0.00     0.025 A 
HETATM   17  C   UNL     1     -39.809  58.805 -52.773  1.00  0.00     0.018 A 
ENDBRANCH   8  11
ENDBRANCH   6   7
ENDBRANCH   5   6
ENDBRANCH   2   5
BRANCH   1  18
HETATM   18  C   UNL     1     -41.894  54.350 -53.128  1.00  0.00     0.157 A 
HETATM   19  C   UNL     1     -41.128  53.147 -53.179  1.00  0.00     0.029 A 
HETATM   20  C   UNL     1     -40.890  52.132 -54.127  1.00  0.00     0.023 A 
HETATM   21  C   UNL     1     -40.514  53.058 -51.936  1.00  0.00     0.063 A 
HETATM   22  C   UNL     1     -40.044  51.060 -53.797  1.00  0.00    -0.061 A 
HETATM   23  C   UNL     1     -39.781  49.965 -54.791  1.00  0.00     0.048 C 
HETATM   24  C   UNL     1     -39.445  51.009 -52.532  1.00  0.00     0.009 A 
HETATM   25  C   UNL     1     -39.667  52.007 -51.575  1.00  0.00     0.032 A 
HETATM   26  N   UNL     1     -40.931  54.163 -51.247  1.00  0.00    -0.277 N 
HETATM   27  H   UNL     1     -40.679  54.425 -50.301  1.00  0.00     0.189 HD
HETATM   28  N   UNL     1     -41.768  54.963 -51.929  1.00  0.00    -0.168 NA
ENDBRANCH   1  18
TORSDOF 5
ENDMDL
MODEL 7
REMARK VINA RESULT:      -7.8      1.988      2.549
REMARK  5 active torsions:
REMARK  status: ('A' for Active; 'I' for Inactive)
REMARK    1  A    between atoms: C_9  and  C_10 
REMARK       I    between atoms: C_10  and  N_11 
REMARK    2  A    between atoms: N_11  and  C_12 
REMARK    3  A    between atoms: C_12  and  C_13 
REMARK    4  A    between atoms: C_13  and  N_14 
REMARK       I    between atoms: N_14  and  C_15 
REMARK    5  A    between atoms: C_15  and  C_16 
ROOT
HETATM    1  C   UNL     1     -43.141  57.263 -54.875  1.00  0.00     0.272 C 
HETATM    2  N   UNL     1     -42.959  58.092 -53.789  1.00  0.00    -0.354 N 
HETATM    3  O   UNL     1     -43.581  56.120 -54.778  1.00  0.00    -0.266 OA
HETATM    4  H   UNL     1     -42.537  58.995 -53.989  1.00  0.00     0.162 HD
ENDROOT
BRANCH   2   5
HETATM    5  C   UNL     1     -43.218  57.675 -52.431  1.00  0.00     0.142 C 
BRANCH   5   6
HETATM    6  C   UNL     1     -41.970  57.118 -51.736  1.00  0.00     0.142 C 
BRANCH   6   7
HETATM    7  N   UNL     1     -41.515  55.870 -52.321  1.00  0.00    -0.355 N 
HETATM    8  C   UNL     1     -41.023  54.849 -51.537  1.00  0.00     0.251 C 
HETATM    9  O   UNL     1     -40.952  54.928 -50.315  1.00  0.00    -0.268 OA
HETATM   10  H   UNL     1     -41.739  55.711 -53.293  1.00  0.00     0.162 HD
BRANCH   8  11
HETATM   11  C   UNL     1     -40.594  53.597 -52.231  1.00  0.00     0.032 A 
HETATM   12  C   UNL     1     -39.891  52.571 -51.584  1.00  0.00     0.018 A 
HETATM   13  C   UNL     1     -39.526  51.416 -52.286  1.00  0.00     0.025 A 
HETATM   14  C   UNL     1     -39.871  51.278 -53.630  1.00  0.00     0.034 A 
HETATM   15 CL   UNL     1     -39.425  49.853 -54.485  1.00  0.00    -0.084 Cl
HETATM   16  C   UNL     1     -40.581  52.283 -54.280  1.00  0.00     0.025 A 
HETATM   17  C   UNL     1     -40.943  53.439 -53.582  1.00  0.00     0.018 A 
ENDBRANCH   8  11
ENDBRANCH   6   7
ENDBRANCH   5   6
ENDBRANCH   2   5
BRANCH   1  18
HETATM   18  C   UNL     1     -42.737  57.878 -56.150  1.00  0.00     0.157 A 
HETATM   19  C   UNL     1     -42.927  57.355 -57.464  1.00  0.00     0.029 A 
HETATM   20  C   UNL     1     -43.499  56.196 -58.024  1.00  0.00     0.023 A 
HETATM   21  C   UNL     1     -42.366  58.301 -58.313  1.00  0.00     0.063 A 
HETATM   22  C   UNL     1     -43.492  56.024 -59.419  1.00  0.00    -0.061 A 
HETATM   23  C   UNL     1     -44.093  54.794 -60.036  1.00  0.00     0.048 C 
HETATM   24  C   UNL     1     -42.917  57.004 -60.238  1.00  0.00     0.009 A 
HETATM   25  C   UNL     1     -42.343  58.163 -59.703  1.00  0.00     0.032 A 
HETATM   26  N   UNL     1     -41.897  59.290 -57.493  1.00  0.00    -0.277 N 
HETATM   27  H   UNL     1     -41.427  60.144 -57.770  1.00  0.00     0.189 HD
HETATM   28  N   UNL     1     -42.097  59.069 -56.183  1.00  0.00    -0.168 NA
ENDBRANCH   1  18
TORSDOF 5
ENDMDL
MODEL 8
REMARK VINA RESULT:      -7.7      4.623      8.534
REMARK  5 active torsions:
REMARK  status: ('A' for Active; 'I' for Inactive)
REMARK    1  A    between atoms: C_9  and  C_10 
REMARK       I    between atoms: C_10  and  N_11 
REMARK    2  A    between atoms: N_11  and  C_12 
REMARK    3  A    between atoms: C_12  and  C_13 
REMARK    4  A    between atoms: C_13  and  N_14 
REMARK       I    between atoms: N_14  and  C_15 
REMARK    5  A    between atoms: C_15  and  C_16 
ROOT
HETATM    1  C   UNL     1     -42.717  55.190 -54.023  1.00  0.00     0.272 C 
HETATM    2  N   UNL     1     -42.139  56.218 -54.737  1.00  0.00    -0.354 N 
HETATM    3  O   UNL     1     -43.873  54.817 -54.205  1.00  0.00    -0.266 OA
HETATM    4  H   UNL     1     -41.195  56.472 -54.459  1.00  0.00     0.162 HD
ENDROOT
BRANCH   2   5
HETATM    5  C   UNL     1     -42.855  56.985 -55.729  1.00  0.00     0.142 C 
BRANCH   5   6
HETATM    6  C   UNL     1     -42.921  56.278 -57.088  1.00  0.00     0.142 C 
BRANCH   6   7
HETATM    7  N   UNL     1     -44.008  56.764 -57.918  1.00  0.00    -0.355 N 
HETATM    8  C   UNL     1     -44.379  56.105 -59.070  1.00  0.00     0.251 C 
HETATM    9  O   UNL     1     -43.828  55.077 -59.451  1.00  0.00    -0.268 OA
HETATM   10  H   UNL     1     -44.592  57.491 -57.530  1.00  0.00     0.162 HD
BRANCH   8  11
HETATM   11  C   UNL     1     -45.519  56.675 -59.850  1.00  0.00     0.032 A 
HETATM   12  C   UNL     1     -46.443  55.878 -60.541  1.00  0.00     0.018 A 
HETATM   13  C   UNL     1     -47.497  56.472 -61.245  1.00  0.00     0.025 A 
HETATM   14  C   UNL     1     -47.638  57.858 -61.252  1.00  0.00     0.034 A 
HETATM   15 CL   UNL     1     -48.940  58.581 -62.114  1.00  0.00    -0.084 Cl
HETATM   16  C   UNL     1     -46.736  58.660 -60.558  1.00  0.00     0.025 A 
HETATM   17  C   UNL     1     -45.680  58.070 -59.858  1.00  0.00     0.018 A 
ENDBRANCH   8  11
ENDBRANCH   6   7
ENDBRANCH   5   6
ENDBRANCH   2   5
BRANCH   1  18
HETATM   18  C   UNL     1     -41.819  54.607 -53.013  1.00  0.00     0.157 A 
HETATM   19  C   UNL     1     -41.095  53.381 -53.102  1.00  0.00     0.029 A 
HETATM   20  C   UNL     1     -40.949  52.353 -54.054  1.00  0.00     0.023 A 
HETATM   21  C   UNL     1     -40.409  53.279 -51.898  1.00  0.00     0.063 A 
HETATM   22  C   UNL     1     -40.118  51.256 -53.768  1.00  0.00    -0.061 A 
HETATM   23  C   UNL     1     -39.951  50.147 -54.767  1.00  0.00     0.048 C 
HETATM   24  C   UNL     1     -39.444  51.194 -52.542  1.00  0.00     0.009 A 
HETATM   25  C   UNL     1     -39.575  52.204 -51.581  1.00  0.00     0.032 A 
HETATM   26  N   UNL     1     -40.748  54.401 -51.193  1.00  0.00    -0.277 N 
HETATM   27  H   UNL     1     -40.430  54.662 -50.267  1.00  0.00     0.189 HD
HETATM   28  N   UNL     1     -41.599  55.223 -51.829  1.00  0.00    -0.168 NA
ENDBRANCH   1  18
TORSDOF 5
ENDMDL
MODEL 9
REMARK VINA RESULT:      -7.7      3.704      7.435
REMARK  5 active torsions:
REMARK  status: ('A' for Active; 'I' for Inactive)
REMARK    1  A    between atoms: C_9  and  C_10 
REMARK       I    between atoms: C_10  and  N_11 
REMARK    2  A    between atoms: N_11  and  C_12 
REMARK    3  A    between atoms: C_12  and  C_13 
REMARK    4  A    between atoms: C_13  and  N_14 
REMARK       I    between atoms: N_14  and  C_15 
REMARK    5  A    between atoms: C_15  and  C_16 
ROOT
HETATM    1  C   UNL     1     -42.498  55.077 -54.357  1.00  0.00     0.272 C 
HETATM    2  N   UNL     1     -41.867  56.090 -55.046  1.00  0.00    -0.354 N 
HETATM    3  O   UNL     1     -43.625  54.678 -54.638  1.00  0.00    -0.266 OA
HETATM    4  H   UNL     1     -40.958  56.370 -54.686  1.00  0.00     0.162 HD
ENDROOT
BRANCH   2   5
HETATM    5  C   UNL     1     -42.492  56.812 -56.130  1.00  0.00     0.142 C 
BRANCH   5   6
HETATM    6  C   UNL     1     -42.313  58.330 -56.009  1.00  0.00     0.142 C 
BRANCH   6   7
HETATM    7  N   UNL     1     -42.843  58.856 -54.764  1.00  0.00    -0.355 N 
HETATM    8  C   UNL     1     -42.018  59.436 -53.824  1.00  0.00     0.251 C 
HETATM    9  O   UNL     1     -40.807  59.550 -53.986  1.00  0.00    -0.268 OA
HETATM   10  H   UNL     1     -43.846  58.945 -54.693  1.00  0.00     0.162 HD
BRANCH   8  11
HETATM   11  C   UNL     1     -42.659  59.961 -52.580  1.00  0.00     0.032 A 
HETATM   12  C   UNL     1     -44.011  60.330 -52.518  1.00  0.00     0.018 A 
HETATM   13  C   UNL     1     -44.556  60.806 -51.319  1.00  0.00     0.025 A 
HETATM   14  C   UNL     1     -43.759  60.904 -50.181  1.00  0.00     0.034 A 
HETATM   15 CL   UNL     1     -44.437  61.483 -48.709  1.00  0.00    -0.084 Cl
HETATM   16  C   UNL     1     -42.419  60.528 -50.226  1.00  0.00     0.025 A 
HETATM   17  C   UNL     1     -41.871  60.057 -51.422  1.00  0.00     0.018 A 
ENDBRANCH   8  11
ENDBRANCH   6   7
ENDBRANCH   5   6
ENDBRANCH   2   5
BRANCH   1  18
HETATM   18  C   UNL     1     -41.696  54.543 -53.244  1.00  0.00     0.157 A 
HETATM   19  C   UNL     1     -40.982  53.309 -53.204  1.00  0.00     0.029 A 
HETATM   20  C   UNL     1     -40.768  52.229 -54.084  1.00  0.00     0.023 A 
HETATM   21  C   UNL     1     -40.402  53.268 -51.943  1.00  0.00     0.063 A 
HETATM   22  C   UNL     1     -39.978  51.143 -53.669  1.00  0.00    -0.061 A 
HETATM   23  C   UNL     1     -39.741  49.980 -54.589  1.00  0.00     0.048 C 
HETATM   24  C   UNL     1     -39.411  51.144 -52.388  1.00  0.00     0.009 A 
HETATM   25  C   UNL     1     -39.610  52.206 -51.499  1.00  0.00     0.032 A 
HETATM   26  N   UNL     1     -40.785  54.430 -51.331  1.00  0.00    -0.277 N 
HETATM   27  H   UNL     1     -40.544  54.738 -50.396  1.00  0.00     0.189 HD
HETATM   28  N   UNL     1     -41.570  55.222 -52.081  1.00  0.00    -0.168 NA
ENDBRANCH   1  18
TORSDOF 5
ENDMDL
MODEL 10
REMARK VINA RESULT:      -7.7      4.017      7.401
REMARK  5 active torsions:
REMARK  status: ('A' for Active; 'I' for Inactive)
REMARK    1  A    between atoms: C_9  and  C_10 
REMARK       I    between atoms: C_10  and  N_11 
REMARK    2  A    between atoms: N_11  and  C_12 
REMARK    3  A    between atoms: C_12  and  C_13 
REMARK    4  A    between atoms: C_13  and  N_14 
REMARK       I    between atoms: N_14  and  C_15 
REMARK    5  A    between atoms: C_15  and  C_16 
ROOT
HETATM    1  C   UNL     1     -42.853  54.726 -54.559  1.00  0.00     0.272 C 
HETATM    2  N   UNL     1     -42.165  55.187 -55.661  1.00  0.00    -0.354 N 
HETATM    3  O   UNL     1     -44.079  54.651 -54.519  1.00  0.00    -0.266 OA
HETATM    4  H   UNL     1     -41.156  55.254 -55.555  1.00  0.00     0.162 HD
ENDROOT
BRANCH   2   5
HETATM    5  C   UNL     1     -42.823  55.675 -56.850  1.00  0.00     0.142 C 
BRANCH   5   6
HETATM    6  C   UNL     1     -43.053  57.190 -56.818  1.00  0.00     0.142 C 
BRANCH   6   7
HETATM    7  N   UNL     1     -43.362  57.680 -55.487  1.00  0.00    -0.355 N 
HETATM    8  C   UNL     1     -44.650  58.015 -55.128  1.00  0.00     0.251 C 
HETATM    9  O   UNL     1     -45.599  57.911 -55.897  1.00  0.00    -0.268 OA
HETATM   10  H   UNL     1     -42.638  57.594 -54.787  1.00  0.00     0.162 HD
BRANCH   8  11
HETATM   11  C   UNL     1     -44.869  58.495 -53.730  1.00  0.00     0.032 A 
HETATM   12  C   UNL     1     -44.584  57.711 -52.602  1.00  0.00     0.018 A 
HETATM   13  C   UNL     1     -44.801  58.223 -51.317  1.00  0.00     0.025 A 
HETATM   14  C   UNL     1     -45.291  59.517 -51.154  1.00  0.00     0.034 A 
HETATM   15 CL   UNL     1     -45.549  60.141 -49.572  1.00  0.00    -0.084 Cl
HETATM   16  C   UNL     1     -45.564  60.310 -52.266  1.00  0.00     0.025 A 
HETATM   17  C   UNL     1     -45.353  59.801 -53.550  1.00  0.00     0.018 A 
ENDBRANCH   8  11
ENDBRANCH   6   7
ENDBRANCH   5   6
ENDBRANCH   2   5
BRANCH   1  18
HETATM   18  C   UNL     1     -41.974  54.355 -53.438  1.00  0.00     0.157 A 
HETATM   19  C   UNL     1     -41.140  53.202 -53.335  1.00  0.00     0.029 A 
HETATM   20  C   UNL     1     -40.842  52.087 -54.143  1.00  0.00     0.023 A 
HETATM   21  C   UNL     1     -40.527  53.311 -52.092  1.00  0.00     0.063 A 
HETATM   22  C   UNL     1     -39.937  51.117 -53.679  1.00  0.00    -0.061 A 
HETATM   23  C   UNL     1     -39.608  49.919 -54.522  1.00  0.00     0.048 C 
HETATM   24  C   UNL     1     -39.341  51.267 -52.420  1.00  0.00     0.009 A 
HETATM   25  C   UNL     1     -39.623  52.366 -51.601  1.00  0.00     0.032 A 
HETATM   26  N   UNL     1     -41.009  54.471 -51.552  1.00  0.00    -0.277 N 
HETATM   27  H   UNL     1     -40.776  54.869 -50.649  1.00  0.00     0.189 HD
HETATM   28  N   UNL     1     -41.887  55.126 -52.330  1.00  0.00    -0.168 NA
ENDBRANCH   1  18
TORSDOF 5
ENDMDL
