MODEL 1
REMARK VINA RESULT:      -7.8      0.000      0.000
REMARK  7 active torsions:
REMARK  status: ('A' for Active; 'I' for Inactive)
REMARK    1  A    between atoms: C_2  and  O_3 
REMARK    2  A    between atoms: O_3  and  C_4 
REMARK    3  A    between atoms: C_4  and  C_5 
REMARK    4  A    between atoms: C_6  and  C_7 
REMARK    5  A    between atoms: C_18  and  C_19 
REMARK    6  A    between atoms: C_19  and  N_20 
REMARK    7  A    between atoms: N_20  and  C_21 
ROOT
HETATM    1  C   UNL     1     -42.492  55.933 -54.089  1.00  0.00     0.068 A 
HETATM    2  C   UNL     1     -43.811  56.568 -54.427  1.00  0.00     0.161 A 
HETATM    3  N   UNL     1     -44.034  56.617 -55.860  1.00  0.00    -0.330 N 
HETATM    4  C   UNL     1     -43.124  56.288 -56.806  1.00  0.00     0.321 A 
HETATM    5  O   UNL     1     -43.356  56.434 -58.000  1.00  0.00    -0.247 OA
HETATM    6  N   UNL     1     -41.946  55.774 -56.362  1.00  0.00    -0.310 N 
HETATM    7  C   UNL     1     -41.610  55.561 -55.039  1.00  0.00     0.046 A 
HETATM    8  H   UNL     1     -44.893  57.018 -56.210  1.00  0.00     0.165 HD
HETATM    9  H   UNL     1     -41.298  55.511 -57.097  1.00  0.00     0.170 HD
ENDROOT
BRANCH   7  10
HETATM   10  C   UNL     1     -40.272  54.884 -54.811  1.00  0.00     0.177 C 
BRANCH  10  11
HETATM   11  N   UNL     1     -40.438  53.457 -55.021  1.00  0.00    -0.384 N 
HETATM   12  H   UNL     1     -41.223  53.193 -55.609  1.00  0.00     0.160 HD
BRANCH  11  13
HETATM   13  C   UNL     1     -40.131  52.538 -54.022  1.00  0.00     0.029 A 
HETATM   14  C   UNL     1     -40.245  52.939 -52.684  1.00  0.00     0.053 A 
HETATM   15  C   UNL     1     -40.036  52.039 -51.629  1.00  0.00     0.042 A 
HETATM   16 CL   UNL     1     -40.209  52.634 -50.015  1.00  0.00    -0.084 Cl
HETATM   17  C   UNL     1     -39.713  50.701 -51.884  1.00  0.00    -0.040 A 
HETATM   18  C   UNL     1     -39.508  49.699 -50.784  1.00  0.00     0.050 C 
HETATM   19  C   UNL     1     -39.634  50.286 -53.217  1.00  0.00     0.011 A 
HETATM   20  C   UNL     1     -39.850  51.190 -54.266  1.00  0.00     0.030 A 
ENDBRANCH  11  13
ENDBRANCH  10  11
ENDBRANCH   7  10
BRANCH   1  21
HETATM   21  C   UNL     1     -42.189  55.756 -52.650  1.00  0.00     0.293 C 
HETATM   22  O   UNL     1     -42.724  54.940 -51.920  1.00  0.00    -0.259 OA
BRANCH  21  23
HETATM   23  O   UNL     1     -41.248  56.658 -52.270  1.00  0.00    -0.318 OA
BRANCH  23  24
HETATM   24  C   UNL     1     -41.546  57.390 -51.071  1.00  0.00     0.174 C 
HETATM   25  C   UNL     1     -41.187  58.852 -51.250  1.00  0.00     0.034 C 
ENDBRANCH  23  24
ENDBRANCH  21  23
ENDBRANCH   1  21
BRANCH   2  26
HETATM   26  C   UNL     1     -43.985  57.964 -53.842  1.00  0.00    -0.031 A 
HETATM   27  C   UNL     1     -43.306  59.071 -54.380  1.00  0.00     0.011 A 
HETATM   28  C   UNL     1     -43.475  60.345 -53.834  1.00  0.00     0.024 A 
HETATM   29  C   UNL     1     -44.321  60.524 -52.743  1.00  0.00     0.034 A 
HETATM   30 CL   UNL     1     -44.531  62.094 -52.070  1.00  0.00    -0.084 Cl
HETATM   31  C   UNL     1     -44.999  59.440 -52.191  1.00  0.00     0.024 A 
HETATM   32  C   UNL     1     -44.833  58.165 -52.739  1.00  0.00     0.011 A 
ENDBRANCH   2  26
TORSDOF 7
ENDMDL
MODEL 2
REMARK VINA RESULT:      -7.7      2.262      3.688
REMARK  7 active torsions:
REMARK  status: ('A' for Active; 'I' for Inactive)
REMARK    1  A    between atoms: C_2  and  O_3 
REMARK    2  A    between atoms: O_3  and  C_4 
REMARK    3  A    between atoms: C_4  and  C_5 
REMARK    4  A    between atoms: C_6  and  C_7 
REMARK    5  A    between atoms: C_18  and  C_19 
REMARK    6  A    between atoms: C_19  and  N_20 
REMARK    7  A    between atoms: N_20  and  C_21 
ROOT
HETATM    1  C   UNL     1     -42.161  57.049 -53.773  1.00  0.00     0.068 A 
HETATM    2  C   UNL     1     -41.793  58.379 -54.369  1.00  0.00     0.161 A 
HETATM    3  N   UNL     1     -40.916  59.136 -53.494  1.00  0.00    -0.330 N 
HETATM    4  C   UNL     1     -40.581  58.790 -52.230  1.00  0.00     0.321 A 
HETATM    5  O   UNL     1     -39.900  59.522 -51.522  1.00  0.00    -0.247 OA
HETATM    6  N   UNL     1     -41.026  57.581 -51.794  1.00  0.00    -0.310 N 
HETATM    7  C   UNL     1     -41.781  56.689 -52.530  1.00  0.00     0.046 A 
HETATM    8  H   UNL     1     -40.595  60.047 -53.791  1.00  0.00     0.165 HD
HETATM    9  H   UNL     1     -40.733  57.340 -50.854  1.00  0.00     0.170 HD
ENDROOT
BRANCH   7  10
HETATM   10  C   UNL     1     -42.067  55.365 -51.849  1.00  0.00     0.177 C 
BRANCH  10  11
HETATM   11  N   UNL     1     -40.802  54.706 -51.576  1.00  0.00    -0.384 N 
HETATM   12  H   UNL     1     -40.036  55.324 -51.326  1.00  0.00     0.160 HD
BRANCH  11  13
HETATM   13  C   UNL     1     -40.417  53.562 -52.270  1.00  0.00     0.029 A 
HETATM   14  C   UNL     1     -40.031  52.432 -51.538  1.00  0.00     0.053 A 
HETATM   15  C   UNL     1     -39.716  51.221 -52.171  1.00  0.00     0.042 A 
HETATM   16 CL   UNL     1     -39.258  49.884 -51.175  1.00  0.00    -0.084 Cl
HETATM   17  C   UNL     1     -39.787  51.104 -53.564  1.00  0.00    -0.040 A 
HETATM   18  C   UNL     1     -39.486  49.818 -54.280  1.00  0.00     0.050 C 
HETATM   19  C   UNL     1     -40.208  52.218 -54.298  1.00  0.00     0.011 A 
HETATM   20  C   UNL     1     -40.526  53.422 -53.657  1.00  0.00     0.030 A 
ENDBRANCH  11  13
ENDBRANCH  10  11
ENDBRANCH   7  10
BRANCH   1  21
HETATM   21  C   UNL     1     -42.991  56.153 -54.611  1.00  0.00     0.293 C 
HETATM   22  O   UNL     1     -44.171  55.915 -54.418  1.00  0.00    -0.259 OA
BRANCH  21  23
HETATM   23  O   UNL     1     -42.230  55.622 -55.601  1.00  0.00    -0.318 OA
BRANCH  23  24
HETATM   24  C   UNL     1     -42.940  55.260 -56.796  1.00  0.00     0.174 C 
HETATM   25  C   UNL     1     -43.044  56.456 -57.723  1.00  0.00     0.034 C 
ENDBRANCH  23  24
ENDBRANCH  21  23
ENDBRANCH   1  21
BRANCH   2  26
HETATM   26  C   UNL     1     -42.997  59.236 -54.741  1.00  0.00    -0.031 A 
HETATM   27  C   UNL     1     -43.167  59.726 -56.048  1.00  0.00     0.011 A 
HETATM   28  C   UNL     1     -44.275  60.510 -56.375  1.00  0.00     0.024 A 
HETATM   29  C   UNL     1     -45.220  60.816 -55.400  1.00  0.00     0.034 A 
HETATM   30 CL   UNL     1     -46.586  61.780 -55.803  1.00  0.00    -0.084 Cl
HETATM   31  C   UNL     1     -45.067  60.345 -54.098  1.00  0.00     0.024 A 
HETATM   32  C   UNL     1     -43.960  59.557 -53.770  1.00  0.00     0.011 A 
ENDBRANCH   2  26
TORSDOF 7
ENDMDL
MODEL 3
REMARK VINA RESULT:      -7.6      2.664      4.157
REMARK  7 active torsions:
REMARK  status: ('A' for Active; 'I' for Inactive)
REMARK    1  A    between atoms: C_2  and  O_3 
REMARK    2  A    between atoms: O_3  and  C_4 
REMARK    3  A    between atoms: C_4  and  C_5 
REMARK    4  A    between atoms: C_6  and  C_7 
REMARK    5  A    between atoms: C_18  and  C_19 
REMARK    6  A    between atoms: C_19  and  N_20 
REMARK    7  A    between atoms: N_20  and  C_21 
ROOT
HETATM    1  C   UNL     1     -42.782  57.833 -51.506  1.00  0.00     0.068 A 
HETATM    2  C   UNL     1     -42.520  59.230 -51.994  1.00  0.00     0.161 A 
HETATM    3  N   UNL     1     -41.135  59.615 -51.802  1.00  0.00    -0.330 N 
HETATM    4  C   UNL     1     -40.207  58.896 -51.128  1.00  0.00     0.321 A 
HETATM    5  O   UNL     1     -39.076  59.326 -50.936  1.00  0.00    -0.247 OA
HETATM    6  N   UNL     1     -40.592  57.668 -50.691  1.00  0.00    -0.310 N 
HETATM    7  C   UNL     1     -41.838  57.102 -50.879  1.00  0.00     0.046 A 
HETATM    8  H   UNL     1     -40.835  60.534 -52.099  1.00  0.00     0.165 HD
HETATM    9  H   UNL     1     -39.865  57.144 -50.216  1.00  0.00     0.170 HD
ENDROOT
BRANCH   7  10
HETATM   10  C   UNL     1     -41.985  55.678 -50.379  1.00  0.00     0.177 C 
BRANCH  10  11
HETATM   11  N   UNL     1     -40.690  55.026 -50.459  1.00  0.00    -0.384 N 
HETATM   12  H   UNL     1     -39.893  55.618 -50.246  1.00  0.00     0.160 HD
BRANCH  11  13
HETATM   13  C   UNL     1     -40.436  54.035 -51.403  1.00  0.00     0.029 A 
HETATM   14  C   UNL     1     -40.030  52.771 -50.955  1.00  0.00     0.053 A 
HETATM   15  C   UNL     1     -39.842  51.704 -51.845  1.00  0.00     0.042 A 
HETATM   16 CL   UNL     1     -39.346  50.184 -51.188  1.00  0.00    -0.084 Cl
HETATM   17  C   UNL     1     -40.065  51.870 -53.217  1.00  0.00    -0.040 A 
HETATM   18  C   UNL     1     -39.903  50.746 -54.200  1.00  0.00     0.050 C 
HETATM   19  C   UNL     1     -40.507  53.119 -53.666  1.00  0.00     0.011 A 
HETATM   20  C   UNL     1     -40.697  54.178 -52.769  1.00  0.00     0.030 A 
ENDBRANCH  11  13
ENDBRANCH  10  11
ENDBRANCH   7  10
BRANCH   1  21
HETATM   21  C   UNL     1     -44.147  57.298 -51.722  1.00  0.00     0.293 C 
HETATM   22  O   UNL     1     -44.933  57.016 -50.834  1.00  0.00    -0.259 OA
BRANCH  21  23
HETATM   23  O   UNL     1     -44.372  57.148 -53.052  1.00  0.00    -0.318 OA
BRANCH  23  24
HETATM   24  C   UNL     1     -43.810  55.965 -53.641  1.00  0.00     0.174 C 
HETATM   25  C   UNL     1     -43.429  56.232 -55.084  1.00  0.00     0.034 C 
ENDBRANCH  23  24
ENDBRANCH  21  23
ENDBRANCH   1  21
BRANCH   2  26
HETATM   26  C   UNL     1     -43.428  60.278 -51.364  1.00  0.00    -0.031 A 
HETATM   27  C   UNL     1     -43.196  60.755 -50.062  1.00  0.00     0.011 A 
HETATM   28  C   UNL     1     -44.037  61.717 -49.497  1.00  0.00     0.024 A 
HETATM   29  C   UNL     1     -45.117  62.208 -50.225  1.00  0.00     0.034 A 
HETATM   30 CL   UNL     1     -46.151  63.393 -49.530  1.00  0.00    -0.084 Cl
HETATM   31  C   UNL     1     -45.367  61.743 -51.514  1.00  0.00     0.024 A 
HETATM   32  C   UNL     1     -44.525  60.784 -52.083  1.00  0.00     0.011 A 
ENDBRANCH   2  26
TORSDOF 7
ENDMDL
MODEL 4
REMARK VINA RESULT:      -7.6      3.517      5.605
REMARK  7 active torsions:
REMARK  status: ('A' for Active; 'I' for Inactive)
REMARK    1  A    between atoms: C_2  and  O_3 
REMARK    2  A    between atoms: O_3  and  C_4 
REMARK    3  A    between atoms: C_4  and  C_5 
REMARK    4  A    between atoms: C_6  and  C_7 
REMARK    5  A    between atoms: C_18  and  C_19 
REMARK    6  A    between atoms: C_19  and  N_20 
REMARK    7  A    between atoms: N_20  and  C_21 
ROOT
HETATM    1  C   UNL     1     -42.876  56.937 -57.936  1.00  0.00     0.068 A 
HETATM    2  C   UNL     1     -43.077  58.394 -58.247  1.00  0.00     0.161 A 
HETATM    3  N   UNL     1     -42.876  59.226 -57.076  1.00  0.00    -0.330 N 
HETATM    4  C   UNL     1     -42.689  58.773 -55.815  1.00  0.00     0.321 A 
HETATM    5  O   UNL     1     -42.608  59.539 -54.862  1.00  0.00    -0.247 OA
HETATM    6  N   UNL     1     -42.579  57.426 -55.664  1.00  0.00    -0.310 N 
HETATM    7  C   UNL     1     -42.640  56.496 -56.683  1.00  0.00     0.046 A 
HETATM    8  H   UNL     1     -42.977  60.228 -57.163  1.00  0.00     0.165 HD
HETATM    9  H   UNL     1     -42.410  57.122 -54.711  1.00  0.00     0.170 HD
ENDROOT
BRANCH   7  10
HETATM   10  C   UNL     1     -42.391  55.060 -56.266  1.00  0.00     0.177 C 
BRANCH  10  11
HETATM   11  N   UNL     1     -41.078  54.982 -55.649  1.00  0.00    -0.384 N 
HETATM   12  H   UNL     1     -40.293  55.079 -56.285  1.00  0.00     0.160 HD
BRANCH  11  13
HETATM   13  C   UNL     1     -40.839  54.147 -54.560  1.00  0.00     0.029 A 
HETATM   14  C   UNL     1     -40.410  52.836 -54.802  1.00  0.00     0.053 A 
HETATM   15  C   UNL     1     -40.068  51.971 -53.753  1.00  0.00     0.042 A 
HETATM   16 CL   UNL     1     -39.545  50.375 -54.160  1.00  0.00    -0.084 Cl
HETATM   17  C   UNL     1     -40.137  52.400 -52.422  1.00  0.00    -0.040 A 
HETATM   18  C   UNL     1     -39.753  51.516 -51.270  1.00  0.00     0.050 C 
HETATM   19  C   UNL     1     -40.529  53.720 -52.176  1.00  0.00     0.011 A 
HETATM   20  C   UNL     1     -40.863  54.579 -53.231  1.00  0.00     0.030 A 
ENDBRANCH  11  13
ENDBRANCH  10  11
ENDBRANCH   7  10
BRANCH   1  21
HETATM   21  C   UNL     1     -42.978  55.994 -59.074  1.00  0.00     0.293 C 
HETATM   22  O   UNL     1     -42.210  55.958 -60.020  1.00  0.00    -0.259 OA
BRANCH  21  23
HETATM   23  O   UNL     1     -44.068  55.202 -58.910  1.00  0.00    -0.318 OA
BRANCH  23  24
HETATM   24  C   UNL     1     -44.641  54.686 -60.123  1.00  0.00     0.174 C 
HETATM   25  C   UNL     1     -45.682  55.650 -60.657  1.00  0.00     0.034 C 
ENDBRANCH  23  24
ENDBRANCH  21  23
ENDBRANCH   1  21
BRANCH   2  26
HETATM   26  C   UNL     1     -44.435  58.706 -58.862  1.00  0.00    -0.031 A 
HETATM   27  C   UNL     1     -45.628  58.455 -58.160  1.00  0.00     0.011 A 
HETATM   28  C   UNL     1     -46.866  58.747 -58.736  1.00  0.00     0.024 A 
HETATM   29  C   UNL     1     -46.925  59.288 -60.017  1.00  0.00     0.034 A 
HETATM   30 CL   UNL     1     -48.450  59.649 -60.726  1.00  0.00    -0.084 Cl
HETATM   31  C   UNL     1     -45.755  59.539 -60.730  1.00  0.00     0.024 A 
HETATM   32  C   UNL     1     -44.515  59.251 -60.155  1.00  0.00     0.011 A 
ENDBRANCH   2  26
TORSDOF 7
ENDMDL
MODEL 5
REMARK VINA RESULT:      -7.5      2.201      3.472
REMARK  7 active torsions:
REMARK  status: ('A' for Active; 'I' for Inactive)
REMARK    1  A    between atoms: C_2  and  O_3 
REMARK    2  A    between atoms: O_3  and  C_4 
REMARK    3  A    between atoms: C_4  and  C_5 
REMARK    4  A    between atoms: C_6  and  C_7 
REMARK    5  A    between atoms: C_18  and  C_19 
REMARK    6  A    between atoms: C_19  and  N_20 
REMARK    7  A    between atoms: N_20  and  C_21 
ROOT
HETATM    1  C   UNL     1     -42.221  57.309 -52.687  1.00  0.00     0.068 A 
HETATM    2  C   UNL     1     -42.725  58.003 -51.453  1.00  0.00     0.161 A 
HETATM    3  N   UNL     1     -43.519  57.115 -50.624  1.00  0.00    -0.330 N 
HETATM    4  C   UNL     1     -43.909  55.865 -50.964  1.00  0.00     0.321 A 
HETATM    5  O   UNL     1     -44.649  55.204 -50.245  1.00  0.00    -0.247 OA
HETATM    6  N   UNL     1     -43.424  55.376 -52.136  1.00  0.00    -0.310 N 
HETATM    7  C   UNL     1     -42.573  56.045 -52.995  1.00  0.00     0.046 A 
HETATM    8  H   UNL     1     -43.909  57.468 -49.760  1.00  0.00     0.165 HD
HETATM    9  H   UNL     1     -43.712  54.427 -52.347  1.00  0.00     0.170 HD
ENDROOT
BRANCH   7  10
HETATM   10  C   UNL     1     -42.098  55.242 -54.191  1.00  0.00     0.177 C 
BRANCH  10  11
HETATM   11  N   UNL     1     -40.736  54.804 -53.938  1.00  0.00    -0.384 N 
HETATM   12  H   UNL     1     -40.065  55.032 -54.665  1.00  0.00     0.160 HD
BRANCH  11  13
HETATM   13  C   UNL     1     -40.472  53.616 -53.262  1.00  0.00     0.029 A 
HETATM   14  C   UNL     1     -40.190  52.466 -54.011  1.00  0.00     0.053 A 
HETATM   15  C   UNL     1     -39.831  51.260 -53.394  1.00  0.00     0.042 A 
HETATM   16 CL   UNL     1     -39.496  49.902 -54.411  1.00  0.00    -0.084 Cl
HETATM   17  C   UNL     1     -39.735  51.171 -52.001  1.00  0.00    -0.040 A 
HETATM   18  C   UNL     1     -39.326  49.906 -51.301  1.00  0.00     0.050 C 
HETATM   19  C   UNL     1     -39.978  52.324 -51.249  1.00  0.00     0.011 A 
HETATM   20  C   UNL     1     -40.331  53.528 -51.874  1.00  0.00     0.030 A 
ENDBRANCH  11  13
ENDBRANCH  10  11
ENDBRANCH   7  10
BRANCH   1  21
HETATM   21  C   UNL     1     -41.331  58.094 -53.574  1.00  0.00     0.293 C 
HETATM   22  O   UNL     1     -40.167  58.365 -53.331  1.00  0.00    -0.259 OA
BRANCH  21  23
HETATM   23  O   UNL     1     -42.018  58.484 -54.677  1.00  0.00    -0.318 OA
BRANCH  23  24
HETATM   24  C   UNL     1     -42.007  59.896 -54.943  1.00  0.00     0.174 C 
HETATM   25  C   UNL     1     -42.103  60.145 -56.435  1.00  0.00     0.034 C 
ENDBRANCH  23  24
ENDBRANCH  21  23
ENDBRANCH   1  21
BRANCH   2  26
HETATM   26  C   UNL     1     -43.523  59.268 -51.745  1.00  0.00    -0.031 A 
HETATM   27  C   UNL     1     -43.066  60.530 -51.327  1.00  0.00     0.011 A 
HETATM   28  C   UNL     1     -43.808  61.682 -51.603  1.00  0.00     0.024 A 
HETATM   29  C   UNL     1     -45.012  61.582 -52.294  1.00  0.00     0.034 A 
HETATM   30 CL   UNL     1     -45.924  63.000 -52.634  1.00  0.00    -0.084 Cl
HETATM   31  C   UNL     1     -45.484  60.339 -52.711  1.00  0.00     0.024 A 
HETATM   32  C   UNL     1     -44.742  59.187 -52.440  1.00  0.00     0.011 A 
ENDBRANCH   2  26
TORSDOF 7
ENDMDL
MODEL 6
REMARK VINA RESULT:      -7.5      2.443      3.520
REMARK  7 active torsions:
REMARK  status: ('A' for Active; 'I' for Inactive)
REMARK    1  A    between atoms: C_2  and  O_3 
REMARK    2  A    between atoms: O_3  and  C_4 
REMARK    3  A    between atoms: C_4  and  C_5 
REMARK    4  A    between atoms: C_6  and  C_7 
REMARK    5  A    between atoms: C_18  and  C_19 
REMARK    6  A    between atoms: C_19  and  N_20 
REMARK    7  A    between atoms: N_20  and  C_21 
ROOT
HETATM    1  C   UNL     1     -42.067  58.465 -52.431  1.00  0.00     0.068 A 
HETATM    2  C   UNL     1     -42.999  59.318 -51.618  1.00  0.00     0.161 A 
HETATM    3  N   UNL     1     -43.992  58.519 -50.925  1.00  0.00    -0.330 N 
HETATM    4  C   UNL     1     -44.184  57.190 -51.093  1.00  0.00     0.321 A 
HETATM    5  O   UNL     1     -45.099  56.597 -50.532  1.00  0.00    -0.247 OA
HETATM    6  N   UNL     1     -43.300  56.546 -51.900  1.00  0.00    -0.310 N 
HETATM    7  C   UNL     1     -42.234  57.133 -52.554  1.00  0.00     0.046 A 
HETATM    8  H   UNL     1     -44.673  58.982 -50.339  1.00  0.00     0.165 HD
HETATM    9  H   UNL     1     -43.455  55.547 -51.981  1.00  0.00     0.170 HD
ENDROOT
BRANCH   7  10
HETATM   10  C   UNL     1     -41.338  56.178 -53.318  1.00  0.00     0.177 C 
BRANCH  10  11
HETATM   11  N   UNL     1     -40.906  55.128 -52.412  1.00  0.00    -0.384 N 
HETATM   12  H   UNL     1     -40.410  55.445 -51.585  1.00  0.00     0.160 HD
BRANCH  11  13
HETATM   13  C   UNL     1     -40.498  53.884 -52.887  1.00  0.00     0.029 A 
HETATM   14  C   UNL     1     -40.203  52.876 -51.960  1.00  0.00     0.053 A 
HETATM   15  C   UNL     1     -39.872  51.578 -52.371  1.00  0.00     0.042 A 
HETATM   16 CL   UNL     1     -39.531  50.406 -51.145  1.00  0.00    -0.084 Cl
HETATM   17  C   UNL     1     -39.834  51.246 -53.730  1.00  0.00    -0.040 A 
HETATM   18  C   UNL     1     -39.511  49.860 -54.211  1.00  0.00     0.050 C 
HETATM   19  C   UNL     1     -40.164  52.237 -54.659  1.00  0.00     0.011 A 
HETATM   20  C   UNL     1     -40.500  53.531 -54.239  1.00  0.00     0.030 A 
ENDBRANCH  11  13
ENDBRANCH  10  11
ENDBRANCH   7  10
BRANCH   1  21
HETATM   21  C   UNL     1     -40.959  59.165 -53.123  1.00  0.00     0.293 C 
HETATM   22  O   UNL     1     -41.056  59.732 -54.198  1.00  0.00    -0.259 OA
BRANCH  21  23
HETATM   23  O   UNL     1     -39.822  59.051 -52.390  1.00  0.00    -0.318 OA
BRANCH  23  24
HETATM   24  C   UNL     1     -39.938  59.435 -51.011  1.00  0.00     0.174 C 
HETATM   25  C   UNL     1     -38.562  59.572 -50.391  1.00  0.00     0.034 C 
ENDBRANCH  23  24
ENDBRANCH  21  23
ENDBRANCH   1  21
BRANCH   2  26
HETATM   26  C   UNL     1     -43.699  60.402 -52.428  1.00  0.00    -0.031 A 
HETATM   27  C   UNL     1     -44.664  60.079 -53.399  1.00  0.00     0.011 A 
HETATM   28  C   UNL     1     -45.298  61.083 -54.133  1.00  0.00     0.024 A 
HETATM   29  C   UNL     1     -44.972  62.418 -53.908  1.00  0.00     0.034 A 
HETATM   30 CL   UNL     1     -45.754  63.655 -54.812  1.00  0.00    -0.084 Cl
HETATM   31  C   UNL     1     -44.015  62.758 -52.955  1.00  0.00     0.024 A 
HETATM   32  C   UNL     1     -43.382  61.755 -52.217  1.00  0.00     0.011 A 
ENDBRANCH   2  26
TORSDOF 7
ENDMDL
MODEL 7
REMARK VINA RESULT:      -7.3      1.618      2.308
REMARK  7 active torsions:
REMARK  status: ('A' for Active; 'I' for Inactive)
REMARK    1  A    between atoms: C_2  and  O_3 
REMARK    2  A    between atoms: O_3  and  C_4 
REMARK    3  A    between atoms: C_4  and  C_5 
REMARK    4  A    between atoms: C_6  and  C_7 
REMARK    5  A    between atoms: C_18  and  C_19 
REMARK    6  A    between atoms: C_19  and  N_20 
REMARK    7  A    between atoms: N_20  and  C_21 
ROOT
HETATM    1  C   UNL     1     -42.904  56.938 -54.337  1.00  0.00     0.068 A 
HETATM    2  C   UNL     1     -44.142  57.503 -54.974  1.00  0.00     0.161 A 
HETATM    3  N   UNL     1     -44.174  57.251 -56.403  1.00  0.00    -0.330 N 
HETATM    4  C   UNL     1     -43.162  56.721 -57.128  1.00  0.00     0.321 A 
HETATM    5  O   UNL     1     -43.232  56.614 -58.347  1.00  0.00    -0.247 OA
HETATM    6  N   UNL     1     -42.073  56.300 -56.432  1.00  0.00    -0.310 N 
HETATM    7  C   UNL     1     -41.920  56.366 -55.061  1.00  0.00     0.046 A 
HETATM    8  H   UNL     1     -44.964  57.578 -56.942  1.00  0.00     0.165 HD
HETATM    9  H   UNL     1     -41.346  55.881 -57.002  1.00  0.00     0.170 HD
ENDROOT
BRANCH   7  10
HETATM   10  C   UNL     1     -40.650  55.739 -54.519  1.00  0.00     0.177 C 
BRANCH  10  11
HETATM   11  N   UNL     1     -40.647  54.330 -54.872  1.00  0.00    -0.384 N 
HETATM   12  H   UNL     1     -41.285  54.068 -55.617  1.00  0.00     0.160 HD
BRANCH  11  13
HETATM   13  C   UNL     1     -40.448  53.343 -53.910  1.00  0.00     0.029 A 
HETATM   14  C   UNL     1     -40.078  52.060 -54.332  1.00  0.00     0.053 A 
HETATM   15  C   UNL     1     -39.777  51.045 -53.413  1.00  0.00     0.042 A 
HETATM   16 CL   UNL     1     -39.324  49.498 -54.039  1.00  0.00    -0.084 Cl
HETATM   17  C   UNL     1     -39.831  51.288 -52.036  1.00  0.00    -0.040 A 
HETATM   18  C   UNL     1     -39.490  50.237 -51.018  1.00  0.00     0.050 C 
HETATM   19  C   UNL     1     -40.164  52.577 -51.608  1.00  0.00     0.011 A 
HETATM   20  C   UNL     1     -40.457  53.588 -52.533  1.00  0.00     0.030 A 
ENDBRANCH  11  13
ENDBRANCH  10  11
ENDBRANCH   7  10
BRANCH   1  21
HETATM   21  C   UNL     1     -42.797  57.065 -52.865  1.00  0.00     0.293 C 
HETATM   22  O   UNL     1     -42.125  57.900 -52.284  1.00  0.00    -0.259 OA
BRANCH  21  23
HETATM   23  O   UNL     1     -43.537  56.095 -52.270  1.00  0.00    -0.318 OA
BRANCH  23  24
HETATM   24  C   UNL     1     -43.218  55.834 -50.894  1.00  0.00     0.174 C 
HETATM   25  C   UNL     1     -43.828  54.516 -50.460  1.00  0.00     0.034 C 
ENDBRANCH  23  24
ENDBRANCH  21  23
ENDBRANCH   1  21
BRANCH   2  26
HETATM   26  C   UNL     1     -44.337  58.992 -54.720  1.00  0.00    -0.031 A 
HETATM   27  C   UNL     1     -45.330  59.457 -53.840  1.00  0.00     0.011 A 
HETATM   28  C   UNL     1     -45.497  60.826 -53.615  1.00  0.00     0.024 A 
HETATM   29  C   UNL     1     -44.678  61.741 -54.271  1.00  0.00     0.034 A 
HETATM   30 CL   UNL     1     -44.882  63.426 -53.994  1.00  0.00    -0.084 Cl
HETATM   31  C   UNL     1     -43.692  61.300 -55.151  1.00  0.00     0.024 A 
HETATM   32  C   UNL     1     -43.521  59.931 -55.373  1.00  0.00     0.011 A 
ENDBRANCH   2  26
TORSDOF 7
ENDMDL
MODEL 8
REMARK VINA RESULT:      -7.2     15.601     18.002
REMARK  7 active torsions:
REMARK  status: ('A' for Active; 'I' for Inactive)
REMARK    1  A    between atoms: C_2  and  O_3 
REMARK    2  A    between atoms: O_3  and  C_4 
REMARK    3  A    between atoms: C_4  and  C_5 
REMARK    4  A    between atoms: C_6  and  C_7 
REMARK    5  A    between atoms: C_18  and  C_19 
REMARK    6  A    between atoms: C_19  and  N_20 
REMARK    7  A    between atoms: N_20  and  C_21 
ROOT
HETATM    1  C   UNL     1     -35.677  40.384 -54.201  1.00  0.00     0.068 A 
HETATM    2  C   UNL     1     -35.979  39.509 -53.017  1.00  0.00     0.161 A 
HETATM    3  N   UNL     1     -37.277  39.810 -52.444  1.00  0.00    -0.330 N 
HETATM    4  C   UNL     1     -38.071  40.845 -52.802  1.00  0.00     0.321 A 
HETATM    5  O   UNL     1     -39.119  41.085 -52.214  1.00  0.00    -0.247 OA
HETATM    6  N   UNL     1     -37.653  41.594 -53.857  1.00  0.00    -0.310 N 
HETATM    7  C   UNL     1     -36.498  41.383 -54.584  1.00  0.00     0.046 A 
HETATM    8  H   UNL     1     -37.595  39.281 -51.643  1.00  0.00     0.165 HD
HETATM    9  H   UNL     1     -38.285  42.342 -54.118  1.00  0.00     0.170 HD
ENDROOT
BRANCH   7  10
HETATM   10  C   UNL     1     -36.307  42.299 -55.778  1.00  0.00     0.177 C 
BRANCH  10  11
HETATM   11  N   UNL     1     -37.487  42.208 -56.620  1.00  0.00    -0.384 N 
HETATM   12  H   UNL     1     -38.374  42.202 -56.126  1.00  0.00     0.160 HD
BRANCH  11  13
HETATM   13  C   UNL     1     -37.478  41.468 -57.799  1.00  0.00     0.029 A 
HETATM   14  C   UNL     1     -37.991  40.164 -57.776  1.00  0.00     0.053 A 
HETATM   15  C   UNL     1     -38.092  39.396 -58.945  1.00  0.00     0.042 A 
HETATM   16 CL   UNL     1     -38.745  37.801 -58.808  1.00  0.00    -0.084 Cl
HETATM   17  C   UNL     1     -37.690  39.917 -60.180  1.00  0.00    -0.040 A 
HETATM   18  C   UNL     1     -37.808  39.139 -61.459  1.00  0.00     0.050 C 
HETATM   19  C   UNL     1     -37.212  41.231 -60.216  1.00  0.00     0.011 A 
HETATM   20  C   UNL     1     -37.119  41.994 -59.044  1.00  0.00     0.030 A 
ENDBRANCH  11  13
ENDBRANCH  10  11
ENDBRANCH   7  10
BRANCH   1  21
HETATM   21  C   UNL     1     -34.410  40.115 -54.921  1.00  0.00     0.293 C 
HETATM   22  O   UNL     1     -33.372  40.733 -54.757  1.00  0.00    -0.259 OA
BRANCH  21  23
HETATM   23  O   UNL     1     -34.594  39.100 -55.803  1.00  0.00    -0.318 OA
BRANCH  23  24
HETATM   24  C   UNL     1     -34.388  39.439 -57.183  1.00  0.00     0.174 C 
HETATM   25  C   UNL     1     -34.702  38.246 -58.065  1.00  0.00     0.034 C 
ENDBRANCH  23  24
ENDBRANCH  21  23
ENDBRANCH   1  21
BRANCH   2  26
HETATM   26  C   UNL     1     -34.918  39.570 -51.926  1.00  0.00    -0.031 A 
HETATM   27  C   UNL     1     -34.287  38.405 -51.456  1.00  0.00     0.011 A 
HETATM   28  C   UNL     1     -33.316  38.476 -50.455  1.00  0.00     0.024 A 
HETATM   29  C   UNL     1     -32.969  39.710 -49.911  1.00  0.00     0.034 A 
HETATM   30 CL   UNL     1     -31.772  39.797 -48.679  1.00  0.00    -0.084 Cl
HETATM   31  C   UNL     1     -33.587  40.875 -50.359  1.00  0.00     0.024 A 
HETATM   32  C   UNL     1     -34.556  40.806 -51.364  1.00  0.00     0.011 A 
ENDBRANCH   2  26
TORSDOF 7
ENDMDL
MODEL 9
REMARK VINA RESULT:      -7.2      3.899      8.362
REMARK  7 active torsions:
REMARK  status: ('A' for Active; 'I' for Inactive)
REMARK    1  A    between atoms: C_2  and  O_3 
REMARK    2  A    between atoms: O_3  and  C_4 
REMARK    3  A    between atoms: C_4  and  C_5 
REMARK    4  A    between atoms: C_6  and  C_7 
REMARK    5  A    between atoms: C_18  and  C_19 
REMARK    6  A    between atoms: C_19  and  N_20 
REMARK    7  A    between atoms: N_20  and  C_21 
ROOT
HETATM    1  C   UNL     1     -42.614  57.628 -54.383  1.00  0.00     0.068 A 
HETATM    2  C   UNL     1     -42.054  56.885 -53.203  1.00  0.00     0.161 A 
HETATM    3  N   UNL     1     -41.009  57.642 -52.539  1.00  0.00    -0.330 N 
HETATM    4  C   UNL     1     -40.471  58.799 -52.990  1.00  0.00     0.321 A 
HETATM    5  O   UNL     1     -39.533  59.339 -52.416  1.00  0.00    -0.247 OA
HETATM    6  N   UNL     1     -41.038  59.338 -54.102  1.00  0.00    -0.310 N 
HETATM    7  C   UNL     1     -42.106  58.806 -54.798  1.00  0.00     0.046 A 
HETATM    8  H   UNL     1     -40.558  57.247 -51.725  1.00  0.00     0.165 HD
HETATM    9  H   UNL     1     -40.631  60.219 -54.396  1.00  0.00     0.170 HD
ENDROOT
BRANCH   7  10
HETATM   10  C   UNL     1     -42.615  59.652 -55.950  1.00  0.00     0.177 C 
BRANCH  10  11
HETATM   11  N   UNL     1     -41.972  59.199 -57.171  1.00  0.00    -0.384 N 
HETATM   12  H   UNL     1     -41.226  58.523 -57.044  1.00  0.00     0.160 HD
BRANCH  11  13
HETATM   13  C   UNL     1     -41.796  60.054 -58.256  1.00  0.00     0.029 A 
HETATM   14  C   UNL     1     -41.088  61.247 -58.061  1.00  0.00     0.053 A 
HETATM   15  C   UNL     1     -40.800  62.110 -59.128  1.00  0.00     0.042 A 
HETATM   16 CL   UNL     1     -39.914  63.554 -58.781  1.00  0.00    -0.084 Cl
HETATM   17  C   UNL     1     -41.208  61.798 -60.430  1.00  0.00    -0.040 A 
HETATM   18  C   UNL     1     -40.896  62.681 -61.605  1.00  0.00     0.050 C 
HETATM   19  C   UNL     1     -41.883  60.591 -60.637  1.00  0.00     0.011 A 
HETATM   20  C   UNL     1     -42.161  59.731 -59.566  1.00  0.00     0.030 A 
ENDBRANCH  11  13
ENDBRANCH  10  11
ENDBRANCH   7  10
BRANCH   1  21
HETATM   21  C   UNL     1     -43.744  56.988 -55.095  1.00  0.00     0.293 C 
HETATM   22  O   UNL     1     -44.741  56.537 -54.558  1.00  0.00    -0.259 OA
BRANCH  21  23
HETATM   23  O   UNL     1     -43.484  56.959 -56.427  1.00  0.00    -0.318 OA
BRANCH  23  24
HETATM   24  C   UNL     1     -43.062  55.687 -56.944  1.00  0.00     0.174 C 
HETATM   25  C   UNL     1     -43.137  55.690 -58.459  1.00  0.00     0.034 C 
ENDBRANCH  23  24
ENDBRANCH  21  23
ENDBRANCH   1  21
BRANCH   2  26
HETATM   26  C   UNL     1     -41.530  55.497 -53.547  1.00  0.00    -0.031 A 
HETATM   27  C   UNL     1     -40.547  55.312 -54.534  1.00  0.00     0.011 A 
HETATM   28  C   UNL     1     -40.076  54.033 -54.839  1.00  0.00     0.024 A 
HETATM   29  C   UNL     1     -40.586  52.927 -54.164  1.00  0.00     0.034 A 
HETATM   30 CL   UNL     1     -40.005  51.352 -54.538  1.00  0.00    -0.084 Cl
HETATM   31  C   UNL     1     -41.565  53.089 -53.187  1.00  0.00     0.024 A 
HETATM   32  C   UNL     1     -42.035  54.368 -52.878  1.00  0.00     0.011 A 
ENDBRANCH   2  26
TORSDOF 7
ENDMDL
MODEL 10
REMARK VINA RESULT:      -7.1      3.577      4.938
REMARK  7 active torsions:
REMARK  status: ('A' for Active; 'I' for Inactive)
REMARK    1  A    between atoms: C_2  and  O_3 
REMARK    2  A    between atoms: O_3  and  C_4 
REMARK    3  A    between atoms: C_4  and  C_5 
REMARK    4  A    between atoms: C_6  and  C_7 
REMARK    5  A    between atoms: C_18  and  C_19 
REMARK    6  A    between atoms: C_19  and  N_20 
REMARK    7  A    between atoms: N_20  and  C_21 
ROOT
HETATM    1  C   UNL     1     -43.485  57.359 -57.239  1.00  0.00     0.068 A 
HETATM    2  C   UNL     1     -44.338  57.607 -58.451  1.00  0.00     0.161 A 
HETATM    3  N   UNL     1     -44.667  56.372 -59.138  1.00  0.00    -0.330 N 
HETATM    4  C   UNL     1     -44.158  55.153 -58.847  1.00  0.00     0.321 A 
HETATM    5  O   UNL     1     -44.421  54.167 -59.526  1.00  0.00    -0.247 OA
HETATM    6  N   UNL     1     -43.353  55.077 -57.754  1.00  0.00    -0.310 N 
HETATM    7  C   UNL     1     -43.021  56.132 -56.926  1.00  0.00     0.046 A 
HETATM    8  H   UNL     1     -45.244  56.410 -59.967  1.00  0.00     0.165 HD
HETATM    9  H   UNL     1     -43.012  54.145 -57.546  1.00  0.00     0.170 HD
ENDROOT
BRANCH   7  10
HETATM   10  C   UNL     1     -42.185  55.767 -55.715  1.00  0.00     0.177 C 
BRANCH  10  11
HETATM   11  N   UNL     1     -42.628  54.474 -55.223  1.00  0.00    -0.384 N 
HETATM   12  H   UNL     1     -43.632  54.372 -55.115  1.00  0.00     0.160 HD
BRANCH  11  13
HETATM   13  C   UNL     1     -41.873  53.752 -54.303  1.00  0.00     0.029 A 
HETATM   14  C   UNL     1     -41.308  52.535 -54.707  1.00  0.00     0.053 A 
HETATM   15  C   UNL     1     -40.466  51.802 -53.859  1.00  0.00     0.042 A 
HETATM   16 CL   UNL     1     -39.815  50.316 -54.458  1.00  0.00    -0.084 Cl
HETATM   17  C   UNL     1     -40.156  52.271 -52.578  1.00  0.00    -0.040 A 
HETATM   18  C   UNL     1     -39.236  51.531 -51.650  1.00  0.00     0.050 C 
HETATM   19  C   UNL     1     -40.687  53.503 -52.183  1.00  0.00     0.011 A 
HETATM   20  C   UNL     1     -41.523  54.233 -53.038  1.00  0.00     0.030 A 
ENDBRANCH  11  13
ENDBRANCH  10  11
ENDBRANCH   7  10
BRANCH   1  21
HETATM   21  C   UNL     1     -43.149  58.540 -56.410  1.00  0.00     0.293 C 
HETATM   22  O   UNL     1     -42.109  59.170 -56.485  1.00  0.00    -0.259 OA
BRANCH  21  23
HETATM   23  O   UNL     1     -44.163  58.789 -55.543  1.00  0.00    -0.318 OA
BRANCH  23  24
HETATM   24  C   UNL     1     -43.807  58.747 -54.152  1.00  0.00     0.174 C 
HETATM   25  C   UNL     1     -44.553  57.624 -53.458  1.00  0.00     0.034 C 
ENDBRANCH  23  24
ENDBRANCH  21  23
ENDBRANCH   1  21
BRANCH   2  26
HETATM   26  C   UNL     1     -43.723  58.587 -59.442  1.00  0.00    -0.031 A 
HETATM   27  C   UNL     1     -42.470  58.340 -60.030  1.00  0.00     0.011 A 
HETATM   28  C   UNL     1     -41.919  59.248 -60.937  1.00  0.00     0.024 A 
HETATM   29  C   UNL     1     -42.611  60.411 -61.261  1.00  0.00     0.034 A 
HETATM   30 CL   UNL     1     -41.933  61.528 -62.380  1.00  0.00    -0.084 Cl
HETATM   31  C   UNL     1     -43.851  60.677 -60.685  1.00  0.00     0.024 A 
HETATM   32  C   UNL     1     -44.406  59.768 -59.780  1.00  0.00     0.011 A 
ENDBRANCH   2  26
TORSDOF 7
ENDMDL
