MODEL 1
REMARK VINA RESULT:      -9.3      0.000      0.000
REMARK  6 active torsions:
REMARK  status: ('A' for Active; 'I' for Inactive)
REMARK    1  A    between atoms: C_4  and  C_5 
REMARK    2  A    between atoms: C_5  and  N_6 
REMARK    3  A    between atoms: C_5  and  C_20 
REMARK       I    between atoms: N_6  and  C_7 
REMARK    4  A    between atoms: C_7  and  C_8 
REMARK    5  A    between atoms: C_8  and  N_9 
REMARK    6  A    between atoms: C_21  and  O_22 
ROOT
HETATM    1  C   UNL     1     -42.252  55.969 -53.148  1.00  0.00     0.154 C 
ENDROOT
BRANCH   1   2
HETATM    2  C   UNL     1     -41.507  57.097 -52.427  1.00  0.00    -0.031 A 
HETATM    3  C   UNL     1     -40.686  57.944 -53.202  1.00  0.00     0.009 A 
HETATM    4  C   UNL     1     -39.974  58.996 -52.622  1.00  0.00     0.001 A 
HETATM    5  C   UNL     1     -40.069  59.227 -51.253  1.00  0.00     0.000 A 
HETATM    6  C   UNL     1     -40.871  58.403 -50.468  1.00  0.00     0.001 A 
HETATM    7  C   UNL     1     -41.580  57.345 -51.048  1.00  0.00     0.009 A 
ENDBRANCH   1   2
BRANCH   1   8
HETATM    8  N   UNL     1     -43.049  56.362 -54.295  1.00  0.00    -0.347 N 
HETATM    9  C   UNL     1     -44.201  57.106 -54.144  1.00  0.00     0.236 C 
HETATM   10  O   UNL     1     -44.614  57.491 -53.049  1.00  0.00    -0.272 OA
HETATM   11  H   UNL     1     -42.608  56.390 -55.212  1.00  0.00     0.163 HD
BRANCH   9  12
HETATM   12  C   UNL     1     -44.953  57.366 -55.453  1.00  0.00     0.236 C 
BRANCH  12  13
HETATM   13  N   UNL     1     -44.149  58.074 -56.418  1.00  0.00    -0.289 N 
HETATM   14  C   UNL     1     -43.560  59.333 -56.187  1.00  0.00     0.328 A 
HETATM   15  O   UNL     1     -43.757  60.064 -55.230  1.00  0.00    -0.247 OA
HETATM   16  N   UNL     1     -42.688  59.578 -57.251  1.00  0.00    -0.306 N 
HETATM   17  C   UNL     1     -42.669  58.462 -58.081  1.00  0.00     0.063 A 
HETATM   18  H   UNL     1     -42.119  60.405 -57.337  1.00  0.00     0.171 HD
HETATM   19  C   UNL     1     -43.563  57.519 -57.567  1.00  0.00     0.066 A 
HETATM   20  C   UNL     1     -41.897  58.228 -59.195  1.00  0.00     0.032 A 
HETATM   21  C   UNL     1     -43.715  56.284 -58.160  1.00  0.00     0.032 A 
HETATM   22  C   UNL     1     -42.935  56.018 -59.293  1.00  0.00     0.002 A 
HETATM   23  C   UNL     1     -42.038  56.979 -59.806  1.00  0.00     0.002 A 
ENDBRANCH  12  13
ENDBRANCH   9  12
ENDBRANCH   1   8
BRANCH   1  24
HETATM   24  C   UNL     1     -41.358  54.769 -53.491  1.00  0.00     0.013 C 
HETATM   25  C   UNL     1     -40.944  54.602 -54.826  1.00  0.00     0.075 C 
HETATM   26  C   UNL     1     -40.292  53.456 -55.259  1.00  0.00     0.038 C 
HETATM   27  C   UNL     1     -39.971  52.465 -54.340  1.00  0.00     0.015 C 
HETATM   28  C   UNL     1     -40.261  52.629 -52.981  1.00  0.00    -0.025 A 
HETATM   29  C   UNL     1     -40.948  53.790 -52.529  1.00  0.00    -0.015 A 
HETATM   30  C   UNL     1     -39.856  51.640 -52.067  1.00  0.00     0.012 A 
HETATM   31  C   UNL     1     -41.155  53.900 -51.134  1.00  0.00     0.013 A 
HETATM   32  C   UNL     1     -40.734  52.916 -50.234  1.00  0.00     0.001 A 
HETATM   33  C   UNL     1     -40.091  51.782 -50.702  1.00  0.00     0.001 A 
BRANCH  25  34
HETATM   34  O   UNL     1     -41.111  55.588 -55.760  1.00  0.00    -0.360 OA
HETATM   35  H   UNL     1     -40.874  56.431 -55.308  1.00  0.00     0.217 HD
ENDBRANCH  25  34
ENDBRANCH   1  24
TORSDOF 6
ENDMDL
MODEL 2
REMARK VINA RESULT:      -9.1      2.129      6.880
REMARK  6 active torsions:
REMARK  status: ('A' for Active; 'I' for Inactive)
REMARK    1  A    between atoms: C_4  and  C_5 
REMARK    2  A    between atoms: C_5  and  N_6 
REMARK    3  A    between atoms: C_5  and  C_20 
REMARK       I    between atoms: N_6  and  C_7 
REMARK    4  A    between atoms: C_7  and  C_8 
REMARK    5  A    between atoms: C_8  and  N_9 
REMARK    6  A    between atoms: C_21  and  O_22 
ROOT
HETATM    1  C   UNL     1     -42.526  56.757 -55.471  1.00  0.00     0.154 C 
ENDROOT
BRANCH   1   2
HETATM    2  C   UNL     1     -42.326  57.880 -56.494  1.00  0.00    -0.031 A 
HETATM    3  C   UNL     1     -42.164  57.517 -57.848  1.00  0.00     0.009 A 
HETATM    4  C   UNL     1     -41.978  58.479 -58.843  1.00  0.00     0.001 A 
HETATM    5  C   UNL     1     -41.952  59.828 -58.506  1.00  0.00     0.000 A 
HETATM    6  C   UNL     1     -42.108  60.212 -57.177  1.00  0.00     0.001 A 
HETATM    7  C   UNL     1     -42.288  59.247 -56.179  1.00  0.00     0.009 A 
ENDBRANCH   1   2
BRANCH   1   8
HETATM    8  N   UNL     1     -41.441  55.801 -55.354  1.00  0.00    -0.347 N 
HETATM    9  C   UNL     1     -41.688  54.465 -55.110  1.00  0.00     0.236 C 
HETATM   10  O   UNL     1     -42.823  54.003 -54.993  1.00  0.00    -0.272 OA
HETATM   11  H   UNL     1     -40.541  56.027 -55.773  1.00  0.00     0.163 HD
BRANCH   9  12
HETATM   12  C   UNL     1     -40.424  53.617 -54.943  1.00  0.00     0.236 C 
BRANCH  12  13
HETATM   13  N   UNL     1     -40.378  52.940 -53.671  1.00  0.00    -0.289 N 
HETATM   14  C   UNL     1     -39.842  51.652 -53.478  1.00  0.00     0.328 A 
HETATM   15  O   UNL     1     -39.489  50.873 -54.349  1.00  0.00    -0.247 OA
HETATM   16  N   UNL     1     -39.771  51.441 -52.099  1.00  0.00    -0.306 N 
HETATM   17  C   UNL     1     -40.172  52.602 -51.447  1.00  0.00     0.063 A 
HETATM   18  H   UNL     1     -39.411  50.602 -51.673  1.00  0.00     0.171 HD
HETATM   19  C   UNL     1     -40.539  53.542 -52.413  1.00  0.00     0.066 A 
HETATM   20  C   UNL     1     -40.182  52.875 -50.098  1.00  0.00     0.032 A 
HETATM   21  C   UNL     1     -40.934  54.813 -52.055  1.00  0.00     0.032 A 
HETATM   22  C   UNL     1     -40.946  55.120 -50.689  1.00  0.00     0.002 A 
HETATM   23  C   UNL     1     -40.576  54.161 -49.721  1.00  0.00     0.002 A 
ENDBRANCH  12  13
ENDBRANCH   9  12
ENDBRANCH   1   8
BRANCH   1  24
HETATM   24  C   UNL     1     -42.960  57.262 -54.088  1.00  0.00     0.013 C 
HETATM   25  C   UNL     1     -44.295  57.060 -53.689  1.00  0.00     0.075 C 
HETATM   26  C   UNL     1     -44.819  57.640 -52.543  1.00  0.00     0.038 C 
HETATM   27  C   UNL     1     -43.991  58.389 -51.718  1.00  0.00     0.015 C 
HETATM   28  C   UNL     1     -42.629  58.531 -52.009  1.00  0.00    -0.025 A 
HETATM   29  C   UNL     1     -42.086  57.958 -53.193  1.00  0.00    -0.015 A 
HETATM   30  C   UNL     1     -41.805  59.234 -51.114  1.00  0.00     0.012 A 
HETATM   31  C   UNL     1     -40.691  58.105 -53.383  1.00  0.00     0.013 A 
HETATM   32  C   UNL     1     -39.879  58.794 -52.478  1.00  0.00     0.001 A 
HETATM   33  C   UNL     1     -40.438  59.365 -51.345  1.00  0.00     0.001 A 
BRANCH  25  34
HETATM   34  O   UNL     1     -45.135  56.231 -54.383  1.00  0.00    -0.360 OA
HETATM   35  H   UNL     1     -44.738  55.331 -54.321  1.00  0.00     0.217 HD
ENDBRANCH  25  34
ENDBRANCH   1  24
TORSDOF 6
ENDMDL
MODEL 3
REMARK VINA RESULT:      -9.0      1.046      2.036
REMARK  6 active torsions:
REMARK  status: ('A' for Active; 'I' for Inactive)
REMARK    1  A    between atoms: C_4  and  C_5 
REMARK    2  A    between atoms: C_5  and  N_6 
REMARK    3  A    between atoms: C_5  and  C_20 
REMARK       I    between atoms: N_6  and  C_7 
REMARK    4  A    between atoms: C_7  and  C_8 
REMARK    5  A    between atoms: C_8  and  N_9 
REMARK    6  A    between atoms: C_21  and  O_22 
ROOT
HETATM    1  C   UNL     1     -42.050  56.053 -53.106  1.00  0.00     0.154 C 
ENDROOT
BRANCH   1   2
HETATM    2  C   UNL     1     -41.286  57.206 -52.448  1.00  0.00    -0.031 A 
HETATM    3  C   UNL     1     -41.503  57.441 -51.073  1.00  0.00     0.009 A 
HETATM    4  C   UNL     1     -40.845  58.470 -50.398  1.00  0.00     0.001 A 
HETATM    5  C   UNL     1     -39.951  59.288 -51.081  1.00  0.00     0.000 A 
HETATM    6  C   UNL     1     -39.721  59.077 -52.438  1.00  0.00     0.001 A 
HETATM    7  C   UNL     1     -40.385  58.050 -53.117  1.00  0.00     0.009 A 
ENDBRANCH   1   2
BRANCH   1   8
HETATM    8  N   UNL     1     -42.767  56.378 -54.325  1.00  0.00    -0.347 N 
HETATM    9  C   UNL     1     -43.958  57.076 -54.290  1.00  0.00     0.236 C 
HETATM   10  O   UNL     1     -44.472  57.475 -53.243  1.00  0.00    -0.272 OA
HETATM   11  H   UNL     1     -42.256  56.398 -55.205  1.00  0.00     0.163 HD
BRANCH   9  12
HETATM   12  C   UNL     1     -44.612  57.265 -55.661  1.00  0.00     0.236 C 
BRANCH  12  13
HETATM   13  N   UNL     1     -43.644  57.485 -56.707  1.00  0.00    -0.289 N 
HETATM   14  C   UNL     1     -43.064  56.459 -57.479  1.00  0.00     0.328 A 
HETATM   15  O   UNL     1     -43.166  55.258 -57.287  1.00  0.00    -0.247 OA
HETATM   16  N   UNL     1     -42.365  57.076 -58.520  1.00  0.00    -0.306 N 
HETATM   17  C   UNL     1     -42.576  58.449 -58.449  1.00  0.00     0.063 A 
HETATM   18  H   UNL     1     -41.862  56.577 -59.236  1.00  0.00     0.171 HD
HETATM   19  C   UNL     1     -43.377  58.712 -57.335  1.00  0.00     0.066 A 
HETATM   20  C   UNL     1     -42.152  59.432 -59.313  1.00  0.00     0.032 A 
HETATM   21  C   UNL     1     -43.792  59.994 -57.044  1.00  0.00     0.032 A 
HETATM   22  C   UNL     1     -43.380  61.013 -57.911  1.00  0.00     0.002 A 
HETATM   23  C   UNL     1     -42.568  60.737 -59.032  1.00  0.00     0.002 A 
ENDBRANCH  12  13
ENDBRANCH   9  12
ENDBRANCH   1   8
BRANCH   1  24
HETATM   24  C   UNL     1     -41.203  54.787 -53.293  1.00  0.00     0.013 C 
HETATM   25  C   UNL     1     -40.706  54.497 -54.579  1.00  0.00     0.075 C 
HETATM   26  C   UNL     1     -40.091  53.290 -54.877  1.00  0.00     0.038 C 
HETATM   27  C   UNL     1     -39.890  52.358 -53.867  1.00  0.00     0.015 C 
HETATM   28  C   UNL     1     -40.264  52.641 -52.549  1.00  0.00    -0.025 A 
HETATM   29  C   UNL     1     -40.916  53.866 -52.235  1.00  0.00    -0.015 A 
HETATM   30  C   UNL     1     -39.979  51.706 -51.538  1.00  0.00     0.012 A 
HETATM   31  C   UNL     1     -41.212  54.093 -50.870  1.00  0.00     0.013 A 
HETATM   32  C   UNL     1     -40.910  53.163 -49.872  1.00  0.00     0.001 A 
HETATM   33  C   UNL     1     -40.299  51.965 -50.207  1.00  0.00     0.001 A 
BRANCH  25  34
HETATM   34  O   UNL     1     -40.754  55.416 -55.593  1.00  0.00    -0.360 OA
HETATM   35  H   UNL     1     -39.932  55.279 -56.119  1.00  0.00     0.217 HD
ENDBRANCH  25  34
ENDBRANCH   1  24
TORSDOF 6
ENDMDL
MODEL 4
REMARK VINA RESULT:      -8.9      1.745      3.024
REMARK  6 active torsions:
REMARK  status: ('A' for Active; 'I' for Inactive)
REMARK    1  A    between atoms: C_4  and  C_5 
REMARK    2  A    between atoms: C_5  and  N_6 
REMARK    3  A    between atoms: C_5  and  C_20 
REMARK       I    between atoms: N_6  and  C_7 
REMARK    4  A    between atoms: C_7  and  C_8 
REMARK    5  A    between atoms: C_8  and  N_9 
REMARK    6  A    between atoms: C_21  and  O_22 
ROOT
HETATM    1  C   UNL     1     -42.242  57.710 -53.179  1.00  0.00     0.154 C 
ENDROOT
BRANCH   1   2
HETATM    2  C   UNL     1     -41.161  58.373 -52.319  1.00  0.00    -0.031 A 
HETATM    3  C   UNL     1     -41.512  58.768 -51.010  1.00  0.00     0.009 A 
HETATM    4  C   UNL     1     -40.585  59.378 -50.162  1.00  0.00     0.001 A 
HETATM    5  C   UNL     1     -39.285  59.604 -50.602  1.00  0.00     0.000 A 
HETATM    6  C   UNL     1     -38.916  59.224 -51.890  1.00  0.00     0.001 A 
HETATM    7  C   UNL     1     -39.846  58.619 -52.743  1.00  0.00     0.009 A 
ENDBRANCH   1   2
BRANCH   1   8
HETATM    8  N   UNL     1     -42.151  57.942 -54.608  1.00  0.00    -0.347 N 
HETATM    9  C   UNL     1     -43.277  57.939 -55.407  1.00  0.00     0.236 C 
HETATM   10  O   UNL     1     -44.413  57.757 -54.965  1.00  0.00    -0.272 OA
HETATM   11  H   UNL     1     -41.337  58.431 -54.975  1.00  0.00     0.163 HD
BRANCH   9  12
HETATM   12  C   UNL     1     -42.985  58.127 -56.898  1.00  0.00     0.236 C 
BRANCH  12  13
HETATM   13  N   UNL     1     -44.144  57.883 -57.721  1.00  0.00    -0.289 N 
HETATM   14  C   UNL     1     -45.083  58.870 -58.079  1.00  0.00     0.328 A 
HETATM   15  O   UNL     1     -45.148  60.007 -57.638  1.00  0.00    -0.247 OA
HETATM   16  N   UNL     1     -45.915  58.309 -59.051  1.00  0.00    -0.306 N 
HETATM   17  C   UNL     1     -45.453  57.033 -59.355  1.00  0.00     0.063 A 
HETATM   18  H   UNL     1     -46.672  58.800 -59.499  1.00  0.00     0.171 HD
HETATM   19  C   UNL     1     -44.348  56.764 -58.543  1.00  0.00     0.066 A 
HETATM   20  C   UNL     1     -45.912  56.153 -60.307  1.00  0.00     0.032 A 
HETATM   21  C   UNL     1     -43.648  55.582 -58.662  1.00  0.00     0.032 A 
HETATM   22  C   UNL     1     -44.091  54.671 -59.630  1.00  0.00     0.002 A 
HETATM   23  C   UNL     1     -45.211  54.952 -60.442  1.00  0.00     0.002 A 
ENDBRANCH  12  13
ENDBRANCH   9  12
ENDBRANCH   1   8
BRANCH   1  24
HETATM   24  C   UNL     1     -42.428  56.216 -52.881  1.00  0.00     0.013 C 
HETATM   25  C   UNL     1     -43.413  55.836 -51.949  1.00  0.00     0.075 C 
HETATM   26  C   UNL     1     -43.527  54.534 -51.483  1.00  0.00     0.038 C 
HETATM   27  C   UNL     1     -42.692  53.550 -51.998  1.00  0.00     0.015 C 
HETATM   28  C   UNL     1     -41.769  53.851 -53.006  1.00  0.00    -0.025 A 
HETATM   29  C   UNL     1     -41.629  55.187 -53.475  1.00  0.00    -0.015 A 
HETATM   30  C   UNL     1     -40.991  52.817 -53.556  1.00  0.00     0.012 A 
HETATM   31  C   UNL     1     -40.711  55.393 -54.532  1.00  0.00     0.013 A 
HETATM   32  C   UNL     1     -39.954  54.354 -55.080  1.00  0.00     0.001 A 
HETATM   33  C   UNL     1     -40.089  53.066 -54.588  1.00  0.00     0.001 A 
BRANCH  25  34
HETATM   34  O   UNL     1     -44.352  56.722 -51.494  1.00  0.00    -0.360 OA
HETATM   35  H   UNL     1     -44.488  57.369 -52.224  1.00  0.00     0.217 HD
ENDBRANCH  25  34
ENDBRANCH   1  24
TORSDOF 6
ENDMDL
MODEL 5
REMARK VINA RESULT:      -8.8      2.275      4.972
REMARK  6 active torsions:
REMARK  status: ('A' for Active; 'I' for Inactive)
REMARK    1  A    between atoms: C_4  and  C_5 
REMARK    2  A    between atoms: C_5  and  N_6 
REMARK    3  A    between atoms: C_5  and  C_20 
REMARK       I    between atoms: N_6  and  C_7 
REMARK    4  A    between atoms: C_7  and  C_8 
REMARK    5  A    between atoms: C_8  and  N_9 
REMARK    6  A    between atoms: C_21  and  O_22 
ROOT
HETATM    1  C   UNL     1     -41.738  55.657 -54.737  1.00  0.00     0.154 C 
ENDROOT
BRANCH   1   2
HETATM    2  C   UNL     1     -41.140  54.424 -54.052  1.00  0.00    -0.031 A 
HETATM    3  C   UNL     1     -40.605  53.408 -54.873  1.00  0.00     0.009 A 
HETATM    4  C   UNL     1     -40.041  52.253 -54.328  1.00  0.00     0.001 A 
HETATM    5  C   UNL     1     -39.997  52.088 -52.948  1.00  0.00     0.000 A 
HETATM    6  C   UNL     1     -40.520  53.075 -52.117  1.00  0.00     0.001 A 
HETATM    7  C   UNL     1     -41.091  54.230 -52.663  1.00  0.00     0.009 A 
ENDBRANCH   1   2
BRANCH   1   8
HETATM    8  N   UNL     1     -42.442  55.416 -55.982  1.00  0.00    -0.347 N 
HETATM    9  C   UNL     1     -42.640  56.428 -56.899  1.00  0.00     0.236 C 
HETATM   10  O   UNL     1     -42.227  57.577 -56.732  1.00  0.00    -0.272 OA
HETATM   11  H   UNL     1     -42.496  54.464 -56.339  1.00  0.00     0.163 HD
BRANCH   9  12
HETATM   12  C   UNL     1     -43.466  56.012 -58.120  1.00  0.00     0.236 C 
BRANCH  12  13
HETATM   13  N   UNL     1     -43.850  57.137 -58.935  1.00  0.00    -0.289 N 
HETATM   14  C   UNL     1     -43.242  57.471 -60.161  1.00  0.00     0.328 A 
HETATM   15  O   UNL     1     -42.231  56.974 -60.632  1.00  0.00    -0.247 OA
HETATM   16  N   UNL     1     -44.027  58.467 -60.749  1.00  0.00    -0.306 N 
HETATM   17  C   UNL     1     -45.144  58.687 -59.950  1.00  0.00     0.063 A 
HETATM   18  H   UNL     1     -43.833  58.885 -61.644  1.00  0.00     0.171 HD
HETATM   19  C   UNL     1     -45.050  57.859 -58.828  1.00  0.00     0.066 A 
HETATM   20  C   UNL     1     -46.220  59.513 -60.179  1.00  0.00     0.032 A 
HETATM   21  C   UNL     1     -46.050  57.827 -57.881  1.00  0.00     0.032 A 
HETATM   22  C   UNL     1     -47.161  58.654 -58.094  1.00  0.00     0.002 A 
HETATM   23  C   UNL     1     -47.244  59.488 -59.229  1.00  0.00     0.002 A 
ENDBRANCH  12  13
ENDBRANCH   9  12
ENDBRANCH   1   8
BRANCH   1  24
HETATM   24  C   UNL     1     -42.578  56.530 -53.795  1.00  0.00     0.013 C 
HETATM   25  C   UNL     1     -43.963  56.285 -53.712  1.00  0.00     0.075 C 
HETATM   26  C   UNL     1     -44.823  57.136 -53.033  1.00  0.00     0.038 C 
HETATM   27  C   UNL     1     -44.305  58.229 -52.351  1.00  0.00     0.015 C 
HETATM   28  C   UNL     1     -42.925  58.457 -52.309  1.00  0.00    -0.025 A 
HETATM   29  C   UNL     1     -42.035  57.604 -53.020  1.00  0.00    -0.015 A 
HETATM   30  C   UNL     1     -42.428  59.530 -51.549  1.00  0.00     0.012 A 
HETATM   31  C   UNL     1     -40.653  57.876 -52.881  1.00  0.00     0.013 A 
HETATM   32  C   UNL     1     -40.171  58.937 -52.110  1.00  0.00     0.001 A 
HETATM   33  C   UNL     1     -41.060  59.770 -51.449  1.00  0.00     0.001 A 
BRANCH  25  34
HETATM   34  O   UNL     1     -44.528  55.160 -54.250  1.00  0.00    -0.360 OA
HETATM   35  H   UNL     1     -45.238  55.478 -54.854  1.00  0.00     0.217 HD
ENDBRANCH  25  34
ENDBRANCH   1  24
TORSDOF 6
ENDMDL
MODEL 6
REMARK VINA RESULT:      -8.8      2.046      4.997
REMARK  6 active torsions:
REMARK  status: ('A' for Active; 'I' for Inactive)
REMARK    1  A    between atoms: C_4  and  C_5 
REMARK    2  A    between atoms: C_5  and  N_6 
REMARK    3  A    between atoms: C_5  and  C_20 
REMARK       I    between atoms: N_6  and  C_7 
REMARK    4  A    between atoms: C_7  and  C_8 
REMARK    5  A    between atoms: C_8  and  N_9 
REMARK    6  A    between atoms: C_21  and  O_22 
ROOT
HETATM    1  C   UNL     1     -41.713  56.466 -54.429  1.00  0.00     0.154 C 
ENDROOT
BRANCH   1   2
HETATM    2  C   UNL     1     -41.205  55.076 -54.031  1.00  0.00    -0.031 A 
HETATM    3  C   UNL     1     -40.648  54.263 -55.041  1.00  0.00     0.009 A 
HETATM    4  C   UNL     1     -40.162  52.985 -54.761  1.00  0.00     0.001 A 
HETATM    5  C   UNL     1     -40.220  52.490 -53.462  1.00  0.00     0.000 A 
HETATM    6  C   UNL     1     -40.767  53.272 -52.449  1.00  0.00     0.001 A 
HETATM    7  C   UNL     1     -41.260  54.551 -52.730  1.00  0.00     0.009 A 
ENDBRANCH   1   2
BRANCH   1   8
HETATM    8  N   UNL     1     -42.410  56.549 -55.699  1.00  0.00    -0.347 N 
HETATM    9  C   UNL     1     -42.462  57.731 -56.409  1.00  0.00     0.236 C 
HETATM   10  O   UNL     1     -41.917  58.768 -56.028  1.00  0.00    -0.272 OA
HETATM   11  H   UNL     1     -42.571  55.695 -56.228  1.00  0.00     0.163 HD
BRANCH   9  12
HETATM   12  C   UNL     1     -43.302  57.655 -57.687  1.00  0.00     0.236 C 
BRANCH  12  13
HETATM   13  N   UNL     1     -42.598  58.161 -58.840  1.00  0.00    -0.289 N 
HETATM   14  C   UNL     1     -42.138  57.357 -59.902  1.00  0.00     0.328 A 
HETATM   15  O   UNL     1     -42.123  56.137 -59.938  1.00  0.00    -0.247 OA
HETATM   16  N   UNL     1     -41.719  58.222 -60.917  1.00  0.00    -0.306 N 
HETATM   17  C   UNL     1     -41.993  59.530 -60.532  1.00  0.00     0.063 A 
HETATM   18  H   UNL     1     -41.354  57.917 -61.804  1.00  0.00     0.171 HD
HETATM   19  C   UNL     1     -42.549  59.502 -59.250  1.00  0.00     0.066 A 
HETATM   20  C   UNL     1     -41.826  60.693 -61.248  1.00  0.00     0.032 A 
HETATM   21  C   UNL     1     -42.968  60.660 -58.631  1.00  0.00     0.032 A 
HETATM   22  C   UNL     1     -42.817  61.857 -59.341  1.00  0.00     0.002 A 
HETATM   23  C   UNL     1     -42.251  61.874 -60.634  1.00  0.00     0.002 A 
ENDBRANCH  12  13
ENDBRANCH   9  12
ENDBRANCH   1   8
BRANCH   1  24
HETATM   24  C   UNL     1     -42.512  57.164 -53.320  1.00  0.00     0.013 C 
HETATM   25  C   UNL     1     -43.896  56.918 -53.235  1.00  0.00     0.075 C 
HETATM   26  C   UNL     1     -44.724  57.641 -52.388  1.00  0.00     0.038 C 
HETATM   27  C   UNL     1     -44.170  58.592 -51.542  1.00  0.00     0.015 C 
HETATM   28  C   UNL     1     -42.787  58.800 -51.506  1.00  0.00    -0.025 A 
HETATM   29  C   UNL     1     -41.931  58.080 -52.386  1.00  0.00    -0.015 A 
HETATM   30  C   UNL     1     -42.253  59.718 -50.585  1.00  0.00     0.012 A 
HETATM   31  C   UNL     1     -40.542  58.313 -52.247  1.00  0.00     0.013 A 
HETATM   32  C   UNL     1     -40.022  59.217 -51.317  1.00  0.00     0.001 A 
HETATM   33  C   UNL     1     -40.879  59.926 -50.490  1.00  0.00     0.001 A 
BRANCH  25  34
HETATM   34  O   UNL     1     -44.492  55.910 -53.945  1.00  0.00    -0.360 OA
HETATM   35  H   UNL     1     -44.630  56.265 -54.853  1.00  0.00     0.217 HD
ENDBRANCH  25  34
ENDBRANCH   1  24
TORSDOF 6
ENDMDL
MODEL 7
REMARK VINA RESULT:      -8.5      1.890      4.879
REMARK  6 active torsions:
REMARK  status: ('A' for Active; 'I' for Inactive)
REMARK    1  A    between atoms: C_4  and  C_5 
REMARK    2  A    between atoms: C_5  and  N_6 
REMARK    3  A    between atoms: C_5  and  C_20 
REMARK       I    between atoms: N_6  and  C_7 
REMARK    4  A    between atoms: C_7  and  C_8 
REMARK    5  A    between atoms: C_8  and  N_9 
REMARK    6  A    between atoms: C_21  and  O_22 
ROOT
HETATM    1  C   UNL     1     -41.689  56.969 -54.598  1.00  0.00     0.154 C 
ENDROOT
BRANCH   1   2
HETATM    2  C   UNL     1     -41.305  55.529 -54.241  1.00  0.00    -0.031 A 
HETATM    3  C   UNL     1     -41.636  55.060 -52.952  1.00  0.00     0.009 A 
HETATM    4  C   UNL     1     -41.323  53.760 -52.548  1.00  0.00     0.001 A 
HETATM    5  C   UNL     1     -40.673  52.899 -53.426  1.00  0.00     0.000 A 
HETATM    6  C   UNL     1     -40.335  53.339 -54.702  1.00  0.00     0.001 A 
HETATM    7  C   UNL     1     -40.643  54.643 -55.106  1.00  0.00     0.009 A 
ENDBRANCH   1   2
BRANCH   1   8
HETATM    8  N   UNL     1     -42.111  57.195 -55.967  1.00  0.00    -0.347 N 
HETATM    9  C   UNL     1     -42.065  58.454 -56.532  1.00  0.00     0.236 C 
HETATM   10  O   UNL     1     -41.656  59.446 -55.927  1.00  0.00    -0.272 OA
HETATM   11  H   UNL     1     -42.123  56.408 -56.614  1.00  0.00     0.163 HD
BRANCH   9  12
HETATM   12  C   UNL     1     -42.619  58.519 -57.958  1.00  0.00     0.236 C 
BRANCH  12  13
HETATM   13  N   UNL     1     -44.004  58.125 -58.030  1.00  0.00    -0.289 N 
HETATM   14  C   UNL     1     -45.054  58.801 -57.379  1.00  0.00     0.328 A 
HETATM   15  O   UNL     1     -44.945  59.697 -56.558  1.00  0.00    -0.247 OA
HETATM   16  N   UNL     1     -46.249  58.266 -57.868  1.00  0.00    -0.306 N 
HETATM   17  C   UNL     1     -45.952  57.339 -58.862  1.00  0.00     0.063 A 
HETATM   18  H   UNL     1     -47.165  58.575 -57.583  1.00  0.00     0.171 HD
HETATM   19  C   UNL     1     -44.562  57.253 -58.978  1.00  0.00     0.066 A 
HETATM   20  C   UNL     1     -46.814  56.633 -59.668  1.00  0.00     0.032 A 
HETATM   21  C   UNL     1     -43.976  56.443 -59.927  1.00  0.00     0.032 A 
HETATM   22  C   UNL     1     -44.832  55.719 -60.767  1.00  0.00     0.002 A 
HETATM   23  C   UNL     1     -46.234  55.811 -60.638  1.00  0.00     0.002 A 
ENDBRANCH  12  13
ENDBRANCH   9  12
ENDBRANCH   1   8
BRANCH   1  24
HETATM   24  C   UNL     1     -42.680  57.599 -53.610  1.00  0.00     0.013 C 
HETATM   25  C   UNL     1     -44.056  57.368 -53.802  1.00  0.00     0.075 C 
HETATM   26  C   UNL     1     -45.026  58.041 -53.074  1.00  0.00     0.038 C 
HETATM   27  C   UNL     1     -44.639  58.922 -52.073  1.00  0.00     0.015 C 
HETATM   28  C   UNL     1     -43.287  59.106 -51.765  1.00  0.00    -0.025 A 
HETATM   29  C   UNL     1     -42.282  58.437 -52.520  1.00  0.00    -0.015 A 
HETATM   30  C   UNL     1     -42.933  59.948 -50.697  1.00  0.00     0.012 A 
HETATM   31  C   UNL     1     -40.944  58.639 -52.108  1.00  0.00     0.013 A 
HETATM   32  C   UNL     1     -40.606  59.468 -51.035  1.00  0.00     0.001 A 
HETATM   33  C   UNL     1     -41.601  60.129 -50.333  1.00  0.00     0.001 A 
BRANCH  25  34
HETATM   34  O   UNL     1     -44.510  56.421 -54.682  1.00  0.00    -0.360 OA
HETATM   35  H   UNL     1     -44.049  56.602 -55.533  1.00  0.00     0.217 HD
ENDBRANCH  25  34
ENDBRANCH   1  24
TORSDOF 6
ENDMDL
MODEL 8
REMARK VINA RESULT:      -8.5     15.847     19.161
REMARK  6 active torsions:
REMARK  status: ('A' for Active; 'I' for Inactive)
REMARK    1  A    between atoms: C_4  and  C_5 
REMARK    2  A    between atoms: C_5  and  N_6 
REMARK    3  A    between atoms: C_5  and  C_20 
REMARK       I    between atoms: N_6  and  C_7 
REMARK    4  A    between atoms: C_7  and  C_8 
REMARK    5  A    between atoms: C_8  and  N_9 
REMARK    6  A    between atoms: C_21  and  O_22 
ROOT
HETATM    1  C   UNL     1     -35.118  39.356 -56.643  1.00  0.00     0.154 C 
ENDROOT
BRANCH   1   2
HETATM    2  C   UNL     1     -33.607  39.186 -56.831  1.00  0.00    -0.031 A 
HETATM    3  C   UNL     1     -33.153  38.037 -57.513  1.00  0.00     0.009 A 
HETATM    4  C   UNL     1     -31.792  37.808 -57.727  1.00  0.00     0.001 A 
HETATM    5  C   UNL     1     -30.854  38.725 -57.265  1.00  0.00     0.000 A 
HETATM    6  C   UNL     1     -31.277  39.865 -56.587  1.00  0.00     0.001 A 
HETATM    7  C   UNL     1     -32.640  40.092 -56.367  1.00  0.00     0.009 A 
ENDBRANCH   1   2
BRANCH   1   8
HETATM    8  N   UNL     1     -35.547  39.860 -55.352  1.00  0.00    -0.347 N 
HETATM    9  C   UNL     1     -36.105  39.023 -54.407  1.00  0.00     0.236 C 
HETATM   10  O   UNL     1     -36.259  37.814 -54.588  1.00  0.00    -0.272 OA
HETATM   11  H   UNL     1     -35.147  40.730 -55.007  1.00  0.00     0.163 HD
BRANCH   9  12
HETATM   12  C   UNL     1     -36.567  39.739 -53.135  1.00  0.00     0.236 C 
BRANCH  12  13
HETATM   13  N   UNL     1     -35.495  40.448 -52.481  1.00  0.00    -0.289 N 
HETATM   14  C   UNL     1     -35.399  41.852 -52.415  1.00  0.00     0.328 A 
HETATM   15  O   UNL     1     -36.096  42.658 -53.011  1.00  0.00    -0.247 OA
HETATM   16  N   UNL     1     -34.367  42.149 -51.522  1.00  0.00    -0.306 N 
HETATM   17  C   UNL     1     -33.889  40.962 -50.978  1.00  0.00     0.063 A 
HETATM   18  H   UNL     1     -34.088  43.084 -51.272  1.00  0.00     0.171 HD
HETATM   19  C   UNL     1     -34.590  39.901 -51.558  1.00  0.00     0.066 A 
HETATM   20  C   UNL     1     -32.938  40.782 -50.001  1.00  0.00     0.032 A 
HETATM   21  C   UNL     1     -34.360  38.599 -51.170  1.00  0.00     0.032 A 
HETATM   22  C   UNL     1     -33.401  38.388 -50.171  1.00  0.00     0.002 A 
HETATM   23  C   UNL     1     -32.697  39.467 -49.594  1.00  0.00     0.002 A 
ENDBRANCH  12  13
ENDBRANCH   9  12
ENDBRANCH   1   8
BRANCH   1  24
HETATM   24  C   UNL     1     -35.790  40.133 -57.783  1.00  0.00     0.013 C 
HETATM   25  C   UNL     1     -35.928  41.529 -57.653  1.00  0.00     0.075 C 
HETATM   26  C   UNL     1     -36.681  42.283 -58.542  1.00  0.00     0.038 C 
HETATM   27  C   UNL     1     -37.264  41.662 -59.639  1.00  0.00     0.015 C 
HETATM   28  C   UNL     1     -37.067  40.297 -59.878  1.00  0.00    -0.025 A 
HETATM   29  C   UNL     1     -36.315  39.510 -58.961  1.00  0.00    -0.015 A 
HETATM   30  C   UNL     1     -37.609  39.717 -61.037  1.00  0.00     0.012 A 
HETATM   31  C   UNL     1     -36.121  38.152 -59.305  1.00  0.00     0.013 A 
HETATM   32  C   UNL     1     -36.654  37.590 -60.469  1.00  0.00     0.001 A 
HETATM   33  C   UNL     1     -37.405  38.371 -61.332  1.00  0.00     0.001 A 
BRANCH  25  34
HETATM   34  O   UNL     1     -35.279  42.227 -56.671  1.00  0.00    -0.360 OA
HETATM   35  H   UNL     1     -35.484  43.177 -56.834  1.00  0.00     0.217 HD
ENDBRANCH  25  34
ENDBRANCH   1  24
TORSDOF 6
ENDMDL
MODEL 9
REMARK VINA RESULT:      -8.5     16.324     19.188
REMARK  6 active torsions:
REMARK  status: ('A' for Active; 'I' for Inactive)
REMARK    1  A    between atoms: C_4  and  C_5 
REMARK    2  A    between atoms: C_5  and  N_6 
REMARK    3  A    between atoms: C_5  and  C_20 
REMARK       I    between atoms: N_6  and  C_7 
REMARK    4  A    between atoms: C_7  and  C_8 
REMARK    5  A    between atoms: C_8  and  N_9 
REMARK    6  A    between atoms: C_21  and  O_22 
ROOT
HETATM    1  C   UNL     1     -35.056  39.531 -56.009  1.00  0.00     0.154 C 
ENDROOT
BRANCH   1   2
HETATM    2  C   UNL     1     -33.615  39.220 -56.425  1.00  0.00    -0.031 A 
HETATM    3  C   UNL     1     -32.574  39.875 -55.733  1.00  0.00     0.009 A 
HETATM    4  C   UNL     1     -31.233  39.647 -56.050  1.00  0.00     0.001 A 
HETATM    5  C   UNL     1     -30.903  38.756 -57.066  1.00  0.00     0.000 A 
HETATM    6  C   UNL     1     -31.912  38.099 -57.764  1.00  0.00     0.001 A 
HETATM    7  C   UNL     1     -33.256  38.332 -57.451  1.00  0.00     0.009 A 
ENDBRANCH   1   2
BRANCH   1   8
HETATM    8  N   UNL     1     -35.214  40.364 -54.832  1.00  0.00    -0.347 N 
HETATM    9  C   UNL     1     -36.075  40.008 -53.813  1.00  0.00     0.236 C 
HETATM   10  O   UNL     1     -36.741  38.972 -53.829  1.00  0.00    -0.272 OA
HETATM   11  H   UNL     1     -34.472  41.018 -54.590  1.00  0.00     0.163 HD
BRANCH   9  12
HETATM   12  C   UNL     1     -36.170  41.040 -52.686  1.00  0.00     0.236 C 
BRANCH  12  13
HETATM   13  N   UNL     1     -35.592  40.565 -51.454  1.00  0.00    -0.289 N 
HETATM   14  C   UNL     1     -36.308  39.869 -50.460  1.00  0.00     0.328 A 
HETATM   15  O   UNL     1     -37.516  39.703 -50.415  1.00  0.00    -0.247 OA
HETATM   16  N   UNL     1     -35.370  39.386 -49.543  1.00  0.00    -0.306 N 
HETATM   17  C   UNL     1     -34.095  39.698 -50.000  1.00  0.00     0.063 A 
HETATM   18  H   UNL     1     -35.604  38.837 -48.732  1.00  0.00     0.171 HD
HETATM   19  C   UNL     1     -34.220  40.420 -51.191  1.00  0.00     0.066 A 
HETATM   20  C   UNL     1     -32.877  39.350 -49.464  1.00  0.00     0.032 A 
HETATM   21  C   UNL     1     -33.110  40.821 -51.900  1.00  0.00     0.032 A 
HETATM   22  C   UNL     1     -31.857  40.473 -51.380  1.00  0.00     0.002 A 
HETATM   23  C   UNL     1     -31.741  39.747 -50.175  1.00  0.00     0.002 A 
ENDBRANCH  12  13
ENDBRANCH   9  12
ENDBRANCH   1   8
BRANCH   1  24
HETATM   24  C   UNL     1     -35.927  40.047 -57.163  1.00  0.00     0.013 C 
HETATM   25  C   UNL     1     -35.781  41.390 -57.564  1.00  0.00     0.075 C 
HETATM   26  C   UNL     1     -36.647  41.989 -58.467  1.00  0.00     0.038 C 
HETATM   27  C   UNL     1     -37.652  41.230 -59.055  1.00  0.00     0.015 C 
HETATM   28  C   UNL     1     -37.773  39.865 -58.776  1.00  0.00    -0.025 A 
HETATM   29  C   UNL     1     -36.904  39.245 -57.835  1.00  0.00    -0.015 A 
HETATM   30  C   UNL     1     -38.754  39.111 -59.443  1.00  0.00     0.012 A 
HETATM   31  C   UNL     1     -37.062  37.851 -57.652  1.00  0.00     0.013 A 
HETATM   32  C   UNL     1     -38.032  37.110 -58.333  1.00  0.00     0.001 A 
HETATM   33  C   UNL     1     -38.883  37.742 -59.224  1.00  0.00     0.001 A 
BRANCH  25  34
HETATM   34  O   UNL     1     -34.739  42.162 -57.126  1.00  0.00    -0.360 OA
HETATM   35  H   UNL     1     -35.081  42.659 -56.347  1.00  0.00     0.217 HD
ENDBRANCH  25  34
ENDBRANCH   1  24
TORSDOF 6
ENDMDL
MODEL 10
REMARK VINA RESULT:      -8.4      3.063      7.471
REMARK  6 active torsions:
REMARK  status: ('A' for Active; 'I' for Inactive)
REMARK    1  A    between atoms: C_4  and  C_5 
REMARK    2  A    between atoms: C_5  and  N_6 
REMARK    3  A    between atoms: C_5  and  C_20 
REMARK       I    between atoms: N_6  and  C_7 
REMARK    4  A    between atoms: C_7  and  C_8 
REMARK    5  A    between atoms: C_8  and  N_9 
REMARK    6  A    between atoms: C_21  and  O_22 
ROOT
HETATM    1  C   UNL     1     -43.650  57.062 -52.981  1.00  0.00     0.154 C 
ENDROOT
BRANCH   1   2
HETATM    2  C   UNL     1     -43.626  57.164 -54.509  1.00  0.00    -0.031 A 
HETATM    3  C   UNL     1     -42.463  56.729 -55.181  1.00  0.00     0.009 A 
HETATM    4  C   UNL     1     -42.362  56.788 -56.572  1.00  0.00     0.001 A 
HETATM    5  C   UNL     1     -43.422  57.280 -57.325  1.00  0.00     0.000 A 
HETATM    6  C   UNL     1     -44.579  57.717 -56.686  1.00  0.00     0.001 A 
HETATM    7  C   UNL     1     -44.680  57.664 -55.291  1.00  0.00     0.009 A 
ENDBRANCH   1   2
BRANCH   1   8
HETATM    8  N   UNL     1     -42.403  56.675 -52.349  1.00  0.00    -0.347 N 
HETATM    9  C   UNL     1     -42.356  55.644 -51.431  1.00  0.00     0.236 C 
HETATM   10  O   UNL     1     -43.347  54.988 -51.107  1.00  0.00    -0.272 OA
HETATM   11  H   UNL     1     -41.526  56.915 -52.805  1.00  0.00     0.163 HD
BRANCH   9  12
HETATM   12  C   UNL     1     -40.974  55.423 -50.812  1.00  0.00     0.236 C 
BRANCH  12  13
HETATM   13  N   UNL     1     -40.472  54.091 -51.045  1.00  0.00    -0.289 N 
HETATM   14  C   UNL     1     -40.364  53.100 -50.050  1.00  0.00     0.328 A 
HETATM   15  O   UNL     1     -40.523  53.253 -48.850  1.00  0.00    -0.247 OA
HETATM   16  N   UNL     1     -40.059  51.900 -50.700  1.00  0.00    -0.306 N 
HETATM   17  C   UNL     1     -40.064  52.121 -52.073  1.00  0.00     0.063 A 
HETATM   18  H   UNL     1     -39.938  51.018 -50.229  1.00  0.00     0.171 HD
HETATM   19  C   UNL     1     -40.330  53.474 -52.298  1.00  0.00     0.066 A 
HETATM   20  C   UNL     1     -39.898  51.213 -53.093  1.00  0.00     0.032 A 
HETATM   21  C   UNL     1     -40.446  53.973 -53.578  1.00  0.00     0.032 A 
HETATM   22  C   UNL     1     -40.289  53.068 -54.635  1.00  0.00     0.002 A 
HETATM   23  C   UNL     1     -40.017  51.703 -54.396  1.00  0.00     0.002 A 
ENDBRANCH  12  13
ENDBRANCH   9  12
ENDBRANCH   1   8
BRANCH   1  24
HETATM   24  C   UNL     1     -44.247  58.299 -52.297  1.00  0.00     0.013 C 
HETATM   25  C   UNL     1     -45.194  58.107 -51.271  1.00  0.00     0.075 C 
HETATM   26  C   UNL     1     -45.917  59.159 -50.727  1.00  0.00     0.038 C 
HETATM   27  C   UNL     1     -45.657  60.456 -51.150  1.00  0.00     0.015 C 
HETATM   28  C   UNL     1     -44.651  60.715 -52.087  1.00  0.00    -0.025 A 
HETATM   29  C   UNL     1     -43.918  59.643 -52.667  1.00  0.00    -0.015 A 
HETATM   30  C   UNL     1     -44.364  62.046 -52.438  1.00  0.00     0.012 A 
HETATM   31  C   UNL     1     -42.883  59.997 -53.565  1.00  0.00     0.013 A 
HETATM   32  C   UNL     1     -42.599  61.325 -53.895  1.00  0.00     0.001 A 
HETATM   33  C   UNL     1     -43.344  62.350 -53.336  1.00  0.00     0.001 A 
BRANCH  25  34
HETATM   34  O   UNL     1     -45.411  56.875 -50.715  1.00  0.00    -0.360 OA
HETATM   35  H   UNL     1     -44.631  56.326 -50.963  1.00  0.00     0.217 HD
ENDBRANCH  25  34
ENDBRANCH   1  24
TORSDOF 6
ENDMDL
