MODEL 1
REMARK VINA RESULT:      -8.8      0.000      0.000
REMARK  6 active torsions:
REMARK  status: ('A' for Active; 'I' for Inactive)
REMARK    1  A    between atoms: C_4  and  C_5 
REMARK    2  A    between atoms: C_9  and  C_10 
REMARK       I    between atoms: C_10  and  N_11 
REMARK    3  A    between atoms: N_11  and  C_12 
REMARK    4  A    between atoms: C_12  and  C_13 
REMARK    5  A    between atoms: C_13  and  N_14 
REMARK    6  A    between atoms: C_13  and  C_18 
ROOT
HETATM    1  C   UNL     1     -41.813  54.201 -53.412  1.00  0.00     0.092 A 
HETATM    2  N   UNL     1     -42.448  54.706 -52.335  1.00  0.00    -0.246 NA
HETATM    3  C   UNL     1     -43.216  55.794 -52.476  1.00  0.00     0.069 A 
HETATM    4  C   UNL     1     -43.415  56.454 -53.710  1.00  0.00     0.008 A 
HETATM    5  C   UNL     1     -42.783  55.862 -54.836  1.00  0.00     0.046 A 
HETATM    6  C   UNL     1     -41.967  54.737 -54.673  1.00  0.00     0.052 A 
HETATM    7  C   UNL     1     -43.824  56.290 -51.330  1.00  0.00     0.032 A 
HETATM    8  C   UNL     1     -44.611  57.440 -51.349  1.00  0.00     0.002 A 
HETATM    9  C   UNL     1     -44.784  58.128 -52.538  1.00  0.00     0.001 A 
HETATM   10  C   UNL     1     -44.186  57.648 -53.703  1.00  0.00     0.015 A 
ENDROOT
BRANCH   5  11
HETATM   11  C   UNL     1     -42.877  56.339 -56.247  1.00  0.00     0.252 C 
HETATM   12  N   UNL     1     -43.673  55.645 -57.135  1.00  0.00    -0.355 N 
HETATM   13  H   UNL     1     -43.967  54.724 -56.817  1.00  0.00     0.162 HD
HETATM   14  O   UNL     1     -42.198  57.295 -56.606  1.00  0.00    -0.268 OA
BRANCH  12  15
HETATM   15  C   UNL     1     -43.515  55.775 -58.583  1.00  0.00     0.161 C 
BRANCH  15  16
HETATM   16  C   UNL     1     -44.398  56.766 -59.431  1.00  0.00     0.237 C 
BRANCH  16  17
HETATM   17  N   UNL     1     -45.355  56.146 -60.445  1.00  0.00    -0.069 N 
HETATM   18  H   UNL     1     -45.240  56.736 -61.277  1.00  0.00     0.279 HD
HETATM   19  C   UNL     1     -44.988  54.776 -60.944  1.00  0.00     0.270 C 
HETATM   20  C   UNL     1     -46.808  56.292 -60.097  1.00  0.00     0.270 C 
ENDBRANCH  16  17
BRANCH  16  21
HETATM   21  C   UNL     1     -43.712  57.998 -60.003  1.00  0.00    -0.026 A 
HETATM   22  C   UNL     1     -44.493  59.113 -60.364  1.00  0.00     0.009 A 
HETATM   23  C   UNL     1     -43.914  60.236 -60.958  1.00  0.00     0.001 A 
HETATM   24  C   UNL     1     -42.545  60.263 -61.206  1.00  0.00     0.000 A 
HETATM   25  C   UNL     1     -41.757  59.169 -60.861  1.00  0.00     0.001 A 
HETATM   26  C   UNL     1     -42.336  58.044 -60.269  1.00  0.00     0.009 A 
ENDBRANCH  16  21
ENDBRANCH  15  16
ENDBRANCH  12  15
ENDBRANCH   5  11
BRANCH   1  27
HETATM   27  C   UNL     1     -40.934  53.072 -53.141  1.00  0.00     0.104 A 
HETATM   28  O   UNL     1     -40.881  52.092 -54.095  1.00  0.00    -0.313 OA
HETATM   29  C   UNL     1     -39.991  51.155 -53.666  1.00  0.00     0.050 A 
HETATM   30  C   UNL     1     -39.764  49.999 -54.559  1.00  0.00     0.076 C 
HETATM   31  C   UNL     1     -39.471  51.518 -52.444  1.00  0.00     0.035 A 
HETATM   32  C   UNL     1     -40.080  52.751 -52.104  1.00  0.00     0.042 A 
ENDBRANCH   1  27
TORSDOF 6
ENDMDL
MODEL 2
REMARK VINA RESULT:      -8.4      1.809      2.945
REMARK  6 active torsions:
REMARK  status: ('A' for Active; 'I' for Inactive)
REMARK    1  A    between atoms: C_4  and  C_5 
REMARK    2  A    between atoms: C_9  and  C_10 
REMARK       I    between atoms: C_10  and  N_11 
REMARK    3  A    between atoms: N_11  and  C_12 
REMARK    4  A    between atoms: C_12  and  C_13 
REMARK    5  A    between atoms: C_13  and  N_14 
REMARK    6  A    between atoms: C_13  and  C_18 
ROOT
HETATM    1  C   UNL     1     -41.005  53.942 -52.260  1.00  0.00     0.092 A 
HETATM    2  N   UNL     1     -40.718  54.781 -51.244  1.00  0.00    -0.246 NA
HETATM    3  C   UNL     1     -41.161  56.044 -51.290  1.00  0.00     0.069 A 
HETATM    4  C   UNL     1     -41.936  56.560 -52.353  1.00  0.00     0.008 A 
HETATM    5  C   UNL     1     -42.275  55.636 -53.376  1.00  0.00     0.046 A 
HETATM    6  C   UNL     1     -41.789  54.325 -53.328  1.00  0.00     0.052 A 
HETATM    7  C   UNL     1     -40.813  56.873 -50.232  1.00  0.00     0.032 A 
HETATM    8  C   UNL     1     -41.181  58.217 -50.192  1.00  0.00     0.002 A 
HETATM    9  C   UNL     1     -41.904  58.756 -51.243  1.00  0.00     0.001 A 
HETATM   10  C   UNL     1     -42.269  57.942 -52.315  1.00  0.00     0.015 A 
ENDROOT
BRANCH   5  11
HETATM   11  C   UNL     1     -43.117  55.923 -54.575  1.00  0.00     0.252 C 
HETATM   12  N   UNL     1     -42.505  56.368 -55.729  1.00  0.00    -0.355 N 
HETATM   13  H   UNL     1     -41.544  56.680 -55.611  1.00  0.00     0.162 HD
HETATM   14  O   UNL     1     -44.336  55.822 -54.493  1.00  0.00    -0.268 OA
BRANCH  12  15
HETATM   15  C   UNL     1     -43.250  57.050 -56.787  1.00  0.00     0.161 C 
BRANCH  15  16
HETATM   16  C   UNL     1     -42.888  56.868 -58.309  1.00  0.00     0.237 C 
BRANCH  16  17
HETATM   17  N   UNL     1     -41.923  57.881 -58.917  1.00  0.00    -0.069 N 
HETATM   18  H   UNL     1     -40.998  57.503 -58.686  1.00  0.00     0.279 HD
HETATM   19  C   UNL     1     -41.897  57.947 -60.420  1.00  0.00     0.270 C 
HETATM   20  C   UNL     1     -41.938  59.229 -58.255  1.00  0.00     0.270 C 
ENDBRANCH  16  17
BRANCH  16  21
HETATM   21  C   UNL     1     -44.029  56.553 -59.265  1.00  0.00    -0.026 A 
HETATM   22  C   UNL     1     -45.168  57.383 -59.271  1.00  0.00     0.009 A 
HETATM   23  C   UNL     1     -46.267  57.091 -60.080  1.00  0.00     0.001 A 
HETATM   24  C   UNL     1     -46.251  55.964 -60.894  1.00  0.00     0.000 A 
HETATM   25  C   UNL     1     -45.138  55.128 -60.900  1.00  0.00     0.001 A 
HETATM   26  C   UNL     1     -44.038  55.418 -60.089  1.00  0.00     0.009 A 
ENDBRANCH  16  21
ENDBRANCH  15  16
ENDBRANCH  12  15
ENDBRANCH   5  11
BRANCH   1  27
HETATM   27  C   UNL     1     -40.406  52.618 -52.160  1.00  0.00     0.104 A 
HETATM   28  O   UNL     1     -40.254  51.923 -53.330  1.00  0.00    -0.313 OA
HETATM   29  C   UNL     1     -39.656  50.739 -53.024  1.00  0.00     0.050 A 
HETATM   30  C   UNL     1     -39.380  49.825 -54.152  1.00  0.00     0.076 C 
HETATM   31  C   UNL     1     -39.425  50.660 -51.669  1.00  0.00     0.035 A 
HETATM   32  C   UNL     1     -39.910  51.869 -51.113  1.00  0.00     0.042 A 
ENDBRANCH   1  27
TORSDOF 6
ENDMDL
MODEL 3
REMARK VINA RESULT:      -8.3      2.398      5.177
REMARK  6 active torsions:
REMARK  status: ('A' for Active; 'I' for Inactive)
REMARK    1  A    between atoms: C_4  and  C_5 
REMARK    2  A    between atoms: C_9  and  C_10 
REMARK       I    between atoms: C_10  and  N_11 
REMARK    3  A    between atoms: N_11  and  C_12 
REMARK    4  A    between atoms: C_12  and  C_13 
REMARK    5  A    between atoms: C_13  and  N_14 
REMARK    6  A    between atoms: C_13  and  C_18 
ROOT
HETATM    1  C   UNL     1     -41.456  56.114 -52.610  1.00  0.00     0.092 A 
HETATM    2  N   UNL     1     -40.728  55.140 -52.026  1.00  0.00    -0.246 NA
HETATM    3  C   UNL     1     -40.615  53.952 -52.634  1.00  0.00     0.069 A 
HETATM    4  C   UNL     1     -41.214  53.651 -53.878  1.00  0.00     0.008 A 
HETATM    5  C   UNL     1     -41.921  54.717 -54.497  1.00  0.00     0.046 A 
HETATM    6  C   UNL     1     -42.050  55.947 -53.843  1.00  0.00     0.052 A 
HETATM    7  C   UNL     1     -39.878  52.975 -51.977  1.00  0.00     0.032 A 
HETATM    8  C   UNL     1     -39.728  51.689 -52.492  1.00  0.00     0.002 A 
HETATM    9  C   UNL     1     -40.341  51.359 -53.689  1.00  0.00     0.001 A 
HETATM   10  C   UNL     1     -41.083  52.324 -54.369  1.00  0.00     0.015 A 
ENDROOT
BRANCH   5  11
HETATM   11  C   UNL     1     -42.598  54.666 -55.826  1.00  0.00     0.252 C 
HETATM   12  N   UNL     1     -42.176  55.522 -56.823  1.00  0.00    -0.355 N 
HETATM   13  H   UNL     1     -41.577  56.283 -56.509  1.00  0.00     0.162 HD
HETATM   14  O   UNL     1     -43.554  53.915 -55.987  1.00  0.00    -0.268 OA
BRANCH  12  15
HETATM   15  C   UNL     1     -43.011  55.833 -57.982  1.00  0.00     0.161 C 
BRANCH  15  16
HETATM   16  C   UNL     1     -44.035  57.030 -57.973  1.00  0.00     0.237 C 
BRANCH  16  17
HETATM   17  N   UNL     1     -44.187  57.821 -59.269  1.00  0.00    -0.069 N 
HETATM   18  H   UNL     1     -43.943  58.780 -58.997  1.00  0.00     0.279 HD
HETATM   19  C   UNL     1     -43.191  57.510 -60.352  1.00  0.00     0.270 C 
HETATM   20  C   UNL     1     -45.600  57.934 -59.765  1.00  0.00     0.270 C 
ENDBRANCH  16  17
BRANCH  16  21
HETATM   21  C   UNL     1     -44.017  57.954 -56.764  1.00  0.00    -0.026 A 
HETATM   22  C   UNL     1     -43.029  58.955 -56.680  1.00  0.00     0.009 A 
HETATM   23  C   UNL     1     -42.933  59.779 -55.557  1.00  0.00     0.001 A 
HETATM   24  C   UNL     1     -43.817  59.615 -54.497  1.00  0.00     0.000 A 
HETATM   25  C   UNL     1     -44.798  58.629 -54.558  1.00  0.00     0.001 A 
HETATM   26  C   UNL     1     -44.894  57.803 -55.680  1.00  0.00     0.009 A 
ENDBRANCH  16  21
ENDBRANCH  15  16
ENDBRANCH  12  15
ENDBRANCH   5  11
BRANCH   1  27
HETATM   27  C   UNL     1     -41.593  57.337 -51.832  1.00  0.00     0.104 A 
HETATM   28  O   UNL     1     -40.433  57.939 -51.425  1.00  0.00    -0.313 OA
HETATM   29  C   UNL     1     -40.777  59.069 -50.746  1.00  0.00     0.050 A 
HETATM   30  C   UNL     1     -39.667  59.891 -50.222  1.00  0.00     0.076 C 
HETATM   31  C   UNL     1     -42.148  59.200 -50.709  1.00  0.00     0.035 A 
HETATM   32  C   UNL     1     -42.672  58.085 -51.405  1.00  0.00     0.042 A 
ENDBRANCH   1  27
TORSDOF 6
ENDMDL
MODEL 4
REMARK VINA RESULT:      -8.3      2.035      3.324
REMARK  6 active torsions:
REMARK  status: ('A' for Active; 'I' for Inactive)
REMARK    1  A    between atoms: C_4  and  C_5 
REMARK    2  A    between atoms: C_9  and  C_10 
REMARK       I    between atoms: C_10  and  N_11 
REMARK    3  A    between atoms: N_11  and  C_12 
REMARK    4  A    between atoms: C_12  and  C_13 
REMARK    5  A    between atoms: C_13  and  N_14 
REMARK    6  A    between atoms: C_13  and  C_18 
ROOT
HETATM    1  C   UNL     1     -40.883  53.260 -53.596  1.00  0.00     0.092 A 
HETATM    2  N   UNL     1     -40.794  54.072 -52.522  1.00  0.00    -0.246 NA
HETATM    3  C   UNL     1     -41.199  55.344 -52.626  1.00  0.00     0.069 A 
HETATM    4  C   UNL     1     -41.734  55.898 -53.811  1.00  0.00     0.008 A 
HETATM    5  C   UNL     1     -41.874  55.002 -54.904  1.00  0.00     0.046 A 
HETATM    6  C   UNL     1     -41.428  53.680 -54.790  1.00  0.00     0.052 A 
HETATM    7  C   UNL     1     -41.058  56.145 -51.500  1.00  0.00     0.032 A 
HETATM    8  C   UNL     1     -41.406  57.494 -51.504  1.00  0.00     0.002 A 
HETATM    9  C   UNL     1     -41.892  58.070 -52.665  1.00  0.00     0.001 A 
HETATM   10  C   UNL     1     -42.046  57.285 -53.808  1.00  0.00     0.015 A 
ENDROOT
BRANCH   5  11
HETATM   11  C   UNL     1     -42.452  55.331 -56.240  1.00  0.00     0.252 C 
HETATM   12  N   UNL     1     -42.041  56.483 -56.879  1.00  0.00    -0.355 N 
HETATM   13  H   UNL     1     -41.537  57.143 -56.291  1.00  0.00     0.162 HD
HETATM   14  O   UNL     1     -43.323  54.610 -56.714  1.00  0.00    -0.268 OA
BRANCH  12  15
HETATM   15  C   UNL     1     -42.821  57.091 -57.957  1.00  0.00     0.161 C 
BRANCH  15  16
HETATM   16  C   UNL     1     -44.223  57.760 -57.696  1.00  0.00     0.237 C 
BRANCH  16  17
HETATM   17  N   UNL     1     -44.940  58.359 -58.902  1.00  0.00    -0.069 N 
HETATM   18  H   UNL     1     -45.039  59.350 -58.656  1.00  0.00     0.279 HD
HETATM   19  C   UNL     1     -44.152  58.404 -60.182  1.00  0.00     0.270 C 
HETATM   20  C   UNL     1     -46.354  57.888 -59.081  1.00  0.00     0.270 C 
ENDBRANCH  16  17
BRANCH  16  21
HETATM   21  C   UNL     1     -44.350  58.661 -56.477  1.00  0.00    -0.026 A 
HETATM   22  C   UNL     1     -43.526  59.801 -56.377  1.00  0.00     0.009 A 
HETATM   23  C   UNL     1     -43.559  60.616 -55.245  1.00  0.00     0.001 A 
HETATM   24  C   UNL     1     -44.411  60.306 -54.190  1.00  0.00     0.000 A 
HETATM   25  C   UNL     1     -45.229  59.183 -54.266  1.00  0.00     0.001 A 
HETATM   26  C   UNL     1     -45.195  58.365 -55.398  1.00  0.00     0.009 A 
ENDBRANCH  16  21
ENDBRANCH  15  16
ENDBRANCH  12  15
ENDBRANCH   5  11
BRANCH   1  27
HETATM   27  C   UNL     1     -40.338  51.923 -53.410  1.00  0.00     0.104 A 
HETATM   28  O   UNL     1     -40.081  51.537 -52.121  1.00  0.00    -0.313 OA
HETATM   29  C   UNL     1     -39.610  50.260 -52.165  1.00  0.00     0.050 A 
HETATM   30  C   UNL     1     -39.278  49.632 -50.870  1.00  0.00     0.076 C 
HETATM   31  C   UNL     1     -39.556  49.819 -53.469  1.00  0.00     0.035 A 
HETATM   32  C   UNL     1     -40.022  50.890 -54.270  1.00  0.00     0.042 A 
ENDBRANCH   1  27
TORSDOF 6
ENDMDL
MODEL 5
REMARK VINA RESULT:      -8.1      3.419      7.091
REMARK  6 active torsions:
REMARK  status: ('A' for Active; 'I' for Inactive)
REMARK    1  A    between atoms: C_4  and  C_5 
REMARK    2  A    between atoms: C_9  and  C_10 
REMARK       I    between atoms: C_10  and  N_11 
REMARK    3  A    between atoms: N_11  and  C_12 
REMARK    4  A    between atoms: C_12  and  C_13 
REMARK    5  A    between atoms: C_13  and  N_14 
REMARK    6  A    between atoms: C_13  and  C_18 
ROOT
HETATM    1  C   UNL     1     -41.080  54.781 -54.069  1.00  0.00     0.092 A 
HETATM    2  N   UNL     1     -41.654  54.657 -55.284  1.00  0.00    -0.246 NA
HETATM    3  C   UNL     1     -42.197  55.734 -55.866  1.00  0.00     0.069 A 
HETATM    4  C   UNL     1     -42.198  57.021 -55.281  1.00  0.00     0.008 A 
HETATM    5  C   UNL     1     -41.531  57.131 -54.031  1.00  0.00     0.046 A 
HETATM    6  C   UNL     1     -40.986  55.995 -53.423  1.00  0.00     0.052 A 
HETATM    7  C   UNL     1     -42.801  55.545 -57.103  1.00  0.00     0.032 A 
HETATM    8  C   UNL     1     -43.435  56.583 -57.783  1.00  0.00     0.002 A 
HETATM    9  C   UNL     1     -43.486  57.843 -57.209  1.00  0.00     0.001 A 
HETATM   10  C   UNL     1     -42.884  58.058 -55.970  1.00  0.00     0.015 A 
ENDROOT
BRANCH   5  11
HETATM   11  C   UNL     1     -41.356  58.383 -53.239  1.00  0.00     0.252 C 
HETATM   12  N   UNL     1     -42.225  58.641 -52.198  1.00  0.00    -0.355 N 
HETATM   13  H   UNL     1     -43.062  58.064 -52.186  1.00  0.00     0.162 HD
HETATM   14  O   UNL     1     -40.489  59.187 -53.565  1.00  0.00    -0.268 OA
BRANCH  12  15
HETATM   15  C   UNL     1     -42.394  59.985 -51.645  1.00  0.00     0.161 C 
BRANCH  15  16
HETATM   16  C   UNL     1     -43.632  60.366 -50.750  1.00  0.00     0.237 C 
BRANCH  16  17
HETATM   17  N   UNL     1     -45.016  60.058 -51.314  1.00  0.00    -0.069 N 
HETATM   18  H   UNL     1     -45.620  60.756 -50.866  1.00  0.00     0.279 HD
HETATM   19  C   UNL     1     -45.206  60.334 -52.780  1.00  0.00     0.270 C 
HETATM   20  C   UNL     1     -45.590  58.744 -50.869  1.00  0.00     0.270 C 
ENDBRANCH  16  17
BRANCH  16  21
HETATM   21  C   UNL     1     -43.607  61.726 -50.067  1.00  0.00    -0.026 A 
HETATM   22  C   UNL     1     -44.479  61.968 -48.986  1.00  0.00     0.009 A 
HETATM   23  C   UNL     1     -44.539  63.222 -48.377  1.00  0.00     0.001 A 
HETATM   24  C   UNL     1     -43.733  64.258 -48.838  1.00  0.00     0.000 A 
HETATM   25  C   UNL     1     -42.869  64.042 -49.907  1.00  0.00     0.001 A 
HETATM   26  C   UNL     1     -42.809  62.787 -50.519  1.00  0.00     0.009 A 
ENDBRANCH  16  21
ENDBRANCH  15  16
ENDBRANCH  12  15
ENDBRANCH   5  11
BRANCH   1  27
HETATM   27  C   UNL     1     -40.597  53.539 -53.482  1.00  0.00     0.104 A 
HETATM   28  O   UNL     1     -40.400  52.490 -54.338  1.00  0.00    -0.313 OA
HETATM   29  C   UNL     1     -39.925  51.447 -53.602  1.00  0.00     0.050 A 
HETATM   30  C   UNL     1     -39.627  50.200 -54.335  1.00  0.00     0.076 C 
HETATM   31  C   UNL     1     -39.817  51.813 -52.278  1.00  0.00     0.035 A 
HETATM   32  C   UNL     1     -40.251  53.158 -52.201  1.00  0.00     0.042 A 
ENDBRANCH   1  27
TORSDOF 6
ENDMDL
MODEL 6
REMARK VINA RESULT:      -8.1      2.271      2.871
REMARK  6 active torsions:
REMARK  status: ('A' for Active; 'I' for Inactive)
REMARK    1  A    between atoms: C_4  and  C_5 
REMARK    2  A    between atoms: C_9  and  C_10 
REMARK       I    between atoms: C_10  and  N_11 
REMARK    3  A    between atoms: N_11  and  C_12 
REMARK    4  A    between atoms: C_12  and  C_13 
REMARK    5  A    between atoms: C_13  and  N_14 
REMARK    6  A    between atoms: C_13  and  C_18 
ROOT
HETATM    1  C   UNL     1     -40.961  53.775 -53.155  1.00  0.00     0.092 A 
HETATM    2  N   UNL     1     -40.784  54.457 -52.005  1.00  0.00    -0.246 NA
HETATM    3  C   UNL     1     -41.190  55.731 -51.928  1.00  0.00     0.069 A 
HETATM    4  C   UNL     1     -41.814  56.417 -52.995  1.00  0.00     0.008 A 
HETATM    5  C   UNL     1     -42.043  55.654 -54.171  1.00  0.00     0.046 A 
HETATM    6  C   UNL     1     -41.596  54.330 -54.247  1.00  0.00     0.052 A 
HETATM    7  C   UNL     1     -40.958  56.396 -50.731  1.00  0.00     0.032 A 
HETATM    8  C   UNL     1     -41.298  57.735 -50.550  1.00  0.00     0.002 A 
HETATM    9  C   UNL     1     -41.871  58.440 -51.595  1.00  0.00     0.001 A 
HETATM   10  C   UNL     1     -42.117  57.793 -52.806  1.00  0.00     0.015 A 
ENDROOT
BRANCH   5  11
HETATM   11  C   UNL     1     -42.722  56.134 -55.410  1.00  0.00     0.252 C 
HETATM   12  N   UNL     1     -41.952  56.640 -56.438  1.00  0.00    -0.355 N 
HETATM   13  H   UNL     1     -40.990  56.856 -56.187  1.00  0.00     0.162 HD
HETATM   14  O   UNL     1     -43.946  56.130 -55.467  1.00  0.00    -0.268 OA
BRANCH  12  15
HETATM   15  C   UNL     1     -42.521  57.489 -57.485  1.00  0.00     0.161 C 
BRANCH  15  16
HETATM   16  C   UNL     1     -42.875  59.002 -57.230  1.00  0.00     0.237 C 
BRANCH  16  17
HETATM   17  N   UNL     1     -44.333  59.331 -56.927  1.00  0.00    -0.069 N 
HETATM   18  H   UNL     1     -44.467  60.253 -57.355  1.00  0.00     0.279 HD
HETATM   19  C   UNL     1     -45.359  58.480 -57.625  1.00  0.00     0.270 C 
HETATM   20  C   UNL     1     -44.629  59.560 -55.473  1.00  0.00     0.270 C 
ENDBRANCH  16  17
BRANCH  16  21
HETATM   21  C   UNL     1     -42.264  60.030 -58.171  1.00  0.00    -0.026 A 
HETATM   22  C   UNL     1     -42.411  59.859 -59.563  1.00  0.00     0.009 A 
HETATM   23  C   UNL     1     -41.807  60.738 -60.463  1.00  0.00     0.001 A 
HETATM   24  C   UNL     1     -41.043  61.800 -59.992  1.00  0.00     0.000 A 
HETATM   25  C   UNL     1     -40.881  61.984 -58.622  1.00  0.00     0.001 A 
HETATM   26  C   UNL     1     -41.483  61.103 -57.719  1.00  0.00     0.009 A 
ENDBRANCH  16  21
ENDBRANCH  15  16
ENDBRANCH  12  15
ENDBRANCH   5  11
BRANCH   1  27
HETATM   27  C   UNL     1     -40.409  52.428 -53.169  1.00  0.00     0.104 A 
HETATM   28  O   UNL     1     -40.157  51.855 -51.952  1.00  0.00    -0.313 OA
HETATM   29  C   UNL     1     -39.679  50.601 -52.185  1.00  0.00     0.050 A 
HETATM   30  C   UNL     1     -39.348  49.787 -50.997  1.00  0.00     0.076 C 
HETATM   31  C   UNL     1     -39.616  50.361 -53.539  1.00  0.00     0.035 A 
HETATM   32  C   UNL     1     -40.084  51.538 -54.173  1.00  0.00     0.042 A 
ENDBRANCH   1  27
TORSDOF 6
ENDMDL
MODEL 7
REMARK VINA RESULT:      -8.0      2.010      8.992
REMARK  6 active torsions:
REMARK  status: ('A' for Active; 'I' for Inactive)
REMARK    1  A    between atoms: C_4  and  C_5 
REMARK    2  A    between atoms: C_9  and  C_10 
REMARK       I    between atoms: C_10  and  N_11 
REMARK    3  A    between atoms: N_11  and  C_12 
REMARK    4  A    between atoms: C_12  and  C_13 
REMARK    5  A    between atoms: C_13  and  N_14 
REMARK    6  A    between atoms: C_13  and  C_18 
ROOT
HETATM    1  C   UNL     1     -42.525  58.759 -58.658  1.00  0.00     0.092 A 
HETATM    2  N   UNL     1     -43.311  58.267 -59.637  1.00  0.00    -0.246 NA
HETATM    3  C   UNL     1     -43.729  56.997 -59.567  1.00  0.00     0.069 A 
HETATM    4  C   UNL     1     -43.401  56.124 -58.505  1.00  0.00     0.008 A 
HETATM    5  C   UNL     1     -42.625  56.690 -57.458  1.00  0.00     0.046 A 
HETATM    6  C   UNL     1     -42.176  58.012 -57.552  1.00  0.00     0.052 A 
HETATM    7  C   UNL     1     -44.512  56.532 -60.616  1.00  0.00     0.032 A 
HETATM    8  C   UNL     1     -44.969  55.217 -60.672  1.00  0.00     0.002 A 
HETATM    9  C   UNL     1     -44.624  54.332 -59.664  1.00  0.00     0.001 A 
HETATM   10  C   UNL     1     -43.842  54.776 -58.599  1.00  0.00     0.015 A 
ENDROOT
BRANCH   5  11
HETATM   11  C   UNL     1     -42.190  55.993 -56.213  1.00  0.00     0.252 C 
HETATM   12  N   UNL     1     -41.835  56.749 -55.114  1.00  0.00    -0.355 N 
HETATM   13  H   UNL     1     -41.683  57.737 -55.305  1.00  0.00     0.162 HD
HETATM   14  O   UNL     1     -42.094  54.770 -56.209  1.00  0.00    -0.268 OA
BRANCH  12  15
HETATM   15  C   UNL     1     -41.028  56.201 -54.024  1.00  0.00     0.161 C 
BRANCH  15  16
HETATM   16  C   UNL     1     -41.645  55.258 -52.924  1.00  0.00     0.237 C 
BRANCH  16  17
HETATM   17  N   UNL     1     -42.147  55.922 -51.646  1.00  0.00    -0.069 N 
HETATM   18  H   UNL     1     -41.902  55.249 -50.911  1.00  0.00     0.279 HD
HETATM   19  C   UNL     1     -41.421  57.169 -51.221  1.00  0.00     0.270 C 
HETATM   20  C   UNL     1     -43.641  56.034 -51.549  1.00  0.00     0.270 C 
ENDBRANCH  16  17
BRANCH  16  21
HETATM   21  C   UNL     1     -40.904  53.965 -52.618  1.00  0.00    -0.026 A 
HETATM   22  C   UNL     1     -40.491  53.141 -53.684  1.00  0.00     0.009 A 
HETATM   23  C   UNL     1     -39.872  51.913 -53.446  1.00  0.00     0.001 A 
HETATM   24  C   UNL     1     -39.657  51.484 -52.141  1.00  0.00     0.000 A 
HETATM   25  C   UNL     1     -40.062  52.280 -51.074  1.00  0.00     0.001 A 
HETATM   26  C   UNL     1     -40.684  53.508 -51.310  1.00  0.00     0.009 A 
ENDBRANCH  16  21
ENDBRANCH  15  16
ENDBRANCH  12  15
ENDBRANCH   5  11
BRANCH   1  27
HETATM   27  C   UNL     1     -42.051  60.120 -58.867  1.00  0.00     0.104 A 
HETATM   28  O   UNL     1     -41.692  60.456 -60.144  1.00  0.00    -0.313 OA
HETATM   29  C   UNL     1     -41.310  61.763 -60.129  1.00  0.00     0.050 A 
HETATM   30  C   UNL     1     -40.890  62.346 -61.420  1.00  0.00     0.076 C 
HETATM   31  C   UNL     1     -41.416  62.273 -58.854  1.00  0.00     0.035 A 
HETATM   32  C   UNL     1     -41.890  61.215 -58.041  1.00  0.00     0.042 A 
ENDBRANCH   1  27
TORSDOF 6
ENDMDL
MODEL 8
REMARK VINA RESULT:      -8.0      2.902      5.688
REMARK  6 active torsions:
REMARK  status: ('A' for Active; 'I' for Inactive)
REMARK    1  A    between atoms: C_4  and  C_5 
REMARK    2  A    between atoms: C_9  and  C_10 
REMARK       I    between atoms: C_10  and  N_11 
REMARK    3  A    between atoms: N_11  and  C_12 
REMARK    4  A    between atoms: C_12  and  C_13 
REMARK    5  A    between atoms: C_13  and  N_14 
REMARK    6  A    between atoms: C_13  and  C_18 
ROOT
HETATM    1  C   UNL     1     -41.028  54.684 -54.043  1.00  0.00     0.092 A 
HETATM    2  N   UNL     1     -41.609  54.550 -55.253  1.00  0.00    -0.246 NA
HETATM    3  C   UNL     1     -42.159  55.622 -55.839  1.00  0.00     0.069 A 
HETATM    4  C   UNL     1     -42.159  56.912 -55.263  1.00  0.00     0.008 A 
HETATM    5  C   UNL     1     -41.485  57.034 -54.019  1.00  0.00     0.046 A 
HETATM    6  C   UNL     1     -40.933  55.904 -53.406  1.00  0.00     0.052 A 
HETATM    7  C   UNL     1     -42.769  55.423 -57.071  1.00  0.00     0.032 A 
HETATM    8  C   UNL     1     -43.410  56.454 -57.755  1.00  0.00     0.002 A 
HETATM    9  C   UNL     1     -43.461  57.717 -57.190  1.00  0.00     0.001 A 
HETATM   10  C   UNL     1     -42.853  57.943 -55.956  1.00  0.00     0.015 A 
ENDROOT
BRANCH   5  11
HETATM   11  C   UNL     1     -41.308  58.292 -53.237  1.00  0.00     0.252 C 
HETATM   12  N   UNL     1     -42.151  58.540 -52.173  1.00  0.00    -0.355 N 
HETATM   13  H   UNL     1     -42.979  57.950 -52.135  1.00  0.00     0.162 HD
HETATM   14  O   UNL     1     -40.464  59.108 -53.591  1.00  0.00    -0.268 OA
BRANCH  12  15
HETATM   15  C   UNL     1     -42.327  59.883 -51.620  1.00  0.00     0.161 C 
BRANCH  15  16
HETATM   16  C   UNL     1     -43.550  60.793 -52.017  1.00  0.00     0.237 C 
BRANCH  16  17
HETATM   17  N   UNL     1     -44.796  60.699 -51.142  1.00  0.00    -0.069 N 
HETATM   18  H   UNL     1     -45.562  60.918 -51.789  1.00  0.00     0.279 HD
HETATM   19  C   UNL     1     -45.151  59.324 -50.647  1.00  0.00     0.270 C 
HETATM   20  C   UNL     1     -44.897  61.764 -50.088  1.00  0.00     0.270 C 
ENDBRANCH  16  17
BRANCH  16  21
HETATM   21  C   UNL     1     -43.918  60.863 -53.492  1.00  0.00    -0.026 A 
HETATM   22  C   UNL     1     -43.020  61.467 -54.395  1.00  0.00     0.009 A 
HETATM   23  C   UNL     1     -43.347  61.615 -55.744  1.00  0.00     0.001 A 
HETATM   24  C   UNL     1     -44.578  61.169 -56.214  1.00  0.00     0.000 A 
HETATM   25  C   UNL     1     -45.481  60.574 -55.338  1.00  0.00     0.001 A 
HETATM   26  C   UNL     1     -45.155  60.427 -53.987  1.00  0.00     0.009 A 
ENDBRANCH  16  21
ENDBRANCH  15  16
ENDBRANCH  12  15
ENDBRANCH   5  11
BRANCH   1  27
HETATM   27  C   UNL     1     -40.538  53.449 -53.450  1.00  0.00     0.104 A 
HETATM   28  O   UNL     1     -40.335  52.396 -54.301  1.00  0.00    -0.313 OA
HETATM   29  C   UNL     1     -39.854  51.360 -53.560  1.00  0.00     0.050 A 
HETATM   30  C   UNL     1     -39.547  50.111 -54.287  1.00  0.00     0.076 C 
HETATM   31  C   UNL     1     -39.748  51.732 -52.238  1.00  0.00     0.035 A 
HETATM   32  C   UNL     1     -40.191  53.075 -52.166  1.00  0.00     0.042 A 
ENDBRANCH   1  27
TORSDOF 6
ENDMDL
MODEL 9
REMARK VINA RESULT:      -8.0      1.719      4.729
REMARK  6 active torsions:
REMARK  status: ('A' for Active; 'I' for Inactive)
REMARK    1  A    between atoms: C_4  and  C_5 
REMARK    2  A    between atoms: C_9  and  C_10 
REMARK       I    between atoms: C_10  and  N_11 
REMARK    3  A    between atoms: N_11  and  C_12 
REMARK    4  A    between atoms: C_12  and  C_13 
REMARK    5  A    between atoms: C_13  and  N_14 
REMARK    6  A    between atoms: C_13  and  C_18 
ROOT
HETATM    1  C   UNL     1     -42.910  56.343 -52.510  1.00  0.00     0.092 A 
HETATM    2  N   UNL     1     -42.046  55.655 -51.737  1.00  0.00    -0.246 NA
HETATM    3  C   UNL     1     -41.440  54.569 -52.235  1.00  0.00     0.069 A 
HETATM    4  C   UNL     1     -41.645  54.096 -53.551  1.00  0.00     0.008 A 
HETATM    5  C   UNL     1     -42.512  54.878 -54.361  1.00  0.00     0.046 A 
HETATM    6  C   UNL     1     -43.155  55.998 -53.823  1.00  0.00     0.052 A 
HETATM    7  C   UNL     1     -40.583  53.881 -51.387  1.00  0.00     0.032 A 
HETATM    8  C   UNL     1     -39.930  52.715 -51.782  1.00  0.00     0.002 A 
HETATM    9  C   UNL     1     -40.149  52.208 -53.052  1.00  0.00     0.001 A 
HETATM   10  C   UNL     1     -41.003  52.883 -53.923  1.00  0.00     0.015 A 
ENDROOT
BRANCH   5  11
HETATM   11  C   UNL     1     -42.851  54.615 -55.790  1.00  0.00     0.252 C 
HETATM   12  N   UNL     1     -42.433  55.515 -56.750  1.00  0.00    -0.355 N 
HETATM   13  H   UNL     1     -42.113  56.410 -56.388  1.00  0.00     0.162 HD
HETATM   14  O   UNL     1     -43.546  53.647 -56.076  1.00  0.00    -0.268 OA
BRANCH  12  15
HETATM   15  C   UNL     1     -43.045  55.570 -58.078  1.00  0.00     0.161 C 
BRANCH  15  16
HETATM   16  C   UNL     1     -43.994  56.750 -58.509  1.00  0.00     0.237 C 
BRANCH  16  17
HETATM   17  N   UNL     1     -45.296  56.372 -59.209  1.00  0.00    -0.069 N 
HETATM   18  H   UNL     1     -45.646  55.582 -58.657  1.00  0.00     0.279 HD
HETATM   19  C   UNL     1     -46.412  57.376 -59.114  1.00  0.00     0.270 C 
HETATM   20  C   UNL     1     -45.117  55.799 -60.585  1.00  0.00     0.270 C 
ENDBRANCH  16  17
BRANCH  16  21
HETATM   21  C   UNL     1     -43.348  57.961 -59.165  1.00  0.00    -0.026 A 
HETATM   22  C   UNL     1     -43.752  59.253 -58.772  1.00  0.00     0.009 A 
HETATM   23  C   UNL     1     -43.237  60.389 -59.397  1.00  0.00     0.001 A 
HETATM   24  C   UNL     1     -42.313  60.257 -60.428  1.00  0.00     0.000 A 
HETATM   25  C   UNL     1     -41.904  58.991 -60.835  1.00  0.00     0.001 A 
HETATM   26  C   UNL     1     -42.421  57.852 -60.212  1.00  0.00     0.009 A 
ENDBRANCH  16  21
ENDBRANCH  15  16
ENDBRANCH  12  15
ENDBRANCH   5  11
BRANCH   1  27
HETATM   27  C   UNL     1     -43.583  57.454 -51.852  1.00  0.00     0.104 A 
HETATM   28  O   UNL     1     -42.854  58.599 -51.680  1.00  0.00    -0.313 OA
HETATM   29  C   UNL     1     -43.667  59.513 -51.080  1.00  0.00     0.050 A 
HETATM   30  C   UNL     1     -43.083  60.842 -50.808  1.00  0.00     0.076 C 
HETATM   31  C   UNL     1     -44.912  58.967 -50.860  1.00  0.00     0.035 A 
HETATM   32  C   UNL     1     -44.858  57.641 -51.355  1.00  0.00     0.042 A 
ENDBRANCH   1  27
TORSDOF 6
ENDMDL
MODEL 10
REMARK VINA RESULT:      -7.9     15.960     18.866
REMARK  6 active torsions:
REMARK  status: ('A' for Active; 'I' for Inactive)
REMARK    1  A    between atoms: C_4  and  C_5 
REMARK    2  A    between atoms: C_9  and  C_10 
REMARK       I    between atoms: C_10  and  N_11 
REMARK    3  A    between atoms: N_11  and  C_12 
REMARK    4  A    between atoms: C_12  and  C_13 
REMARK    5  A    between atoms: C_13  and  N_14 
REMARK    6  A    between atoms: C_13  and  C_18 
ROOT
HETATM    1  C   UNL     1     -33.933  40.104 -55.596  1.00  0.00     0.092 A 
HETATM    2  N   UNL     1     -32.585  40.114 -55.550  1.00  0.00    -0.246 NA
HETATM    3  C   UNL     1     -31.894  39.319 -56.377  1.00  0.00     0.069 A 
HETATM    4  C   UNL     1     -32.500  38.459 -57.321  1.00  0.00     0.008 A 
HETATM    5  C   UNL     1     -33.917  38.517 -57.389  1.00  0.00     0.046 A 
HETATM    6  C   UNL     1     -34.630  39.336 -56.506  1.00  0.00     0.052 A 
HETATM    7  C   UNL     1     -30.510  39.348 -56.269  1.00  0.00     0.032 A 
HETATM    8  C   UNL     1     -29.689  38.533 -57.047  1.00  0.00     0.002 A 
HETATM    9  C   UNL     1     -30.262  37.652 -57.948  1.00  0.00     0.001 A 
HETATM   10  C   UNL     1     -31.650  37.607 -58.077  1.00  0.00     0.015 A 
ENDROOT
BRANCH   5  11
HETATM   11  C   UNL     1     -34.783  37.746 -58.328  1.00  0.00     0.252 C 
HETATM   12  N   UNL     1     -34.896  38.175 -59.635  1.00  0.00    -0.355 N 
HETATM   13  H   UNL     1     -34.554  39.118 -59.808  1.00  0.00     0.162 HD
HETATM   14  O   UNL     1     -35.426  36.790 -57.909  1.00  0.00    -0.268 OA
BRANCH  12  15
HETATM   15  C   UNL     1     -36.001  37.753 -60.496  1.00  0.00     0.161 C 
BRANCH  15  16
HETATM   16  C   UNL     1     -37.411  38.454 -60.445  1.00  0.00     0.237 C 
BRANCH  16  17
HETATM   17  N   UNL     1     -38.098  38.726 -61.779  1.00  0.00    -0.069 N 
HETATM   18  H   UNL     1     -38.312  39.729 -61.740  1.00  0.00     0.279 HD
HETATM   19  C   UNL     1     -37.230  38.612 -63.003  1.00  0.00     0.270 C 
HETATM   20  C   UNL     1     -39.442  38.075 -61.931  1.00  0.00     0.270 C 
ENDBRANCH  16  17
BRANCH  16  21
HETATM   21  C   UNL     1     -37.571  39.630 -59.493  1.00  0.00    -0.026 A 
HETATM   22  C   UNL     1     -37.118  40.903 -59.894  1.00  0.00     0.009 A 
HETATM   23  C   UNL     1     -37.181  41.995 -59.026  1.00  0.00     0.001 A 
HETATM   24  C   UNL     1     -37.693  41.835 -57.743  1.00  0.00     0.000 A 
HETATM   25  C   UNL     1     -38.141  40.585 -57.326  1.00  0.00     0.001 A 
HETATM   26  C   UNL     1     -38.076  39.491 -58.193  1.00  0.00     0.009 A 
ENDBRANCH  16  21
ENDBRANCH  15  16
ENDBRANCH  12  15
ENDBRANCH   5  11
BRANCH   1  27
HETATM   27  C   UNL     1     -34.595  40.935 -54.601  1.00  0.00     0.104 A 
HETATM   28  O   UNL     1     -34.208  40.760 -53.299  1.00  0.00    -0.313 OA
HETATM   29  C   UNL     1     -34.918  41.643 -52.542  1.00  0.00     0.050 A 
HETATM   30  C   UNL     1     -34.648  41.637 -51.090  1.00  0.00     0.076 C 
HETATM   31  C   UNL     1     -35.761  42.382 -53.342  1.00  0.00     0.035 A 
HETATM   32  C   UNL     1     -35.555  41.925 -54.666  1.00  0.00     0.042 A 
ENDBRANCH   1  27
TORSDOF 6
ENDMDL
