MODEL 1
REMARK VINA RESULT:      -8.4      0.000      0.000
REMARK  3 active torsions:
REMARK  status: ('A' for Active; 'I' for Inactive)
REMARK    1  A    between atoms: C_6  and  N_7 
REMARK       I    between atoms: N_7  and  C_8 
REMARK    2  A    between atoms: C_8  and  C_9 
REMARK    3  A    between atoms: C_9  and  C_10 
ROOT
HETATM    1  C   UNL     1     -43.503  55.896 -53.279  1.00  0.00     0.286 C 
HETATM    2  N   UNL     1     -42.659  57.160 -53.360  1.00  0.00    -0.056 N 
HETATM    3  H   UNL     1     -41.669  56.834 -53.387  1.00  0.00     0.278 HD
HETATM    4  H   UNL     1     -42.821  57.649 -54.247  1.00  0.00     0.278 HD
HETATM    5  C   UNL     1     -42.882  58.071 -52.179  1.00  0.00     0.209 C 
HETATM    6  C   UNL     1     -42.551  57.305 -50.872  1.00  0.00     0.115 C 
HETATM    7  N   UNL     1     -43.195  55.991 -50.817  1.00  0.00    -0.353 N 
HETATM    8  C   UNL     1     -43.397  55.186 -51.913  1.00  0.00     0.249 C 
HETATM    9  O   UNL     1     -43.601  53.986 -51.766  1.00  0.00    -0.271 OA
HETATM   10  C   UNL     1     -42.052  59.342 -52.359  1.00  0.00     0.035 C 
HETATM   11  C   UNL     1     -40.559  59.129 -52.124  1.00  0.00     0.002 C 
HETATM   12  C   UNL     1     -40.299  58.469 -50.776  1.00  0.00     0.002 C 
HETATM   13  C   UNL     1     -41.039  57.144 -50.653  1.00  0.00     0.027 C 
HETATM   14  H   UNL     1     -43.153  55.475 -49.939  1.00  0.00     0.163 HD
ENDROOT
BRANCH   1  15
HETATM   15  C   UNL     1     -43.228  54.940 -54.447  1.00  0.00     0.146 C 
BRANCH  15  16
HETATM   16  C   UNL     1     -41.929  55.252 -55.139  1.00  0.00     0.224 C 
HETATM   17  N   UNL     1     -40.793  54.540 -54.921  1.00  0.00    -0.327 N 
HETATM   18  H   UNL     1     -40.031  54.877 -55.505  1.00  0.00     0.169 HD
HETATM   19  O   UNL     1     -41.919  56.133 -56.012  1.00  0.00    -0.273 OA
BRANCH  17  20
HETATM   20  C   UNL     1     -40.455  53.439 -54.106  1.00  0.00     0.035 A 
HETATM   21  C   UNL     1     -40.210  52.135 -54.537  1.00  0.00     0.037 A 
HETATM   22  C   UNL     1     -39.880  51.106 -53.630  1.00  0.00    -0.054 A 
HETATM   23  C   UNL     1     -39.753  51.398 -52.260  1.00  0.00    -0.056 A 
HETATM   24  C   UNL     1     -39.646  49.713 -54.153  1.00  0.00     0.049 C 
HETATM   25  C   UNL     1     -39.394  50.341 -51.252  1.00  0.00     0.049 C 
HETATM   26  C   UNL     1     -40.012  52.701 -51.824  1.00  0.00     0.009 A 
HETATM   27  C   UNL     1     -40.362  53.703 -52.733  1.00  0.00     0.030 A 
ENDBRANCH  17  20
ENDBRANCH  15  16
ENDBRANCH   1  15
TORSDOF 3
ENDMDL
MODEL 2
REMARK VINA RESULT:      -8.3      2.253      3.286
REMARK  3 active torsions:
REMARK  status: ('A' for Active; 'I' for Inactive)
REMARK    1  A    between atoms: C_6  and  N_7 
REMARK       I    between atoms: N_7  and  C_8 
REMARK    2  A    between atoms: C_8  and  C_9 
REMARK    3  A    between atoms: C_9  and  C_10 
ROOT
HETATM    1  C   UNL     1     -42.609  55.838 -51.039  1.00  0.00     0.286 C 
HETATM    2  N   UNL     1     -41.366  56.712 -50.962  1.00  0.00    -0.056 N 
HETATM    3  H   UNL     1     -41.332  57.066 -49.982  1.00  0.00     0.278 HD
HETATM    4  H   UNL     1     -40.517  56.149 -51.090  1.00  0.00     0.278 HD
HETATM    5  C   UNL     1     -41.415  57.862 -51.937  1.00  0.00     0.209 C 
HETATM    6  C   UNL     1     -42.676  58.720 -51.651  1.00  0.00     0.115 C 
HETATM    7  N   UNL     1     -43.888  57.908 -51.532  1.00  0.00    -0.353 N 
HETATM    8  C   UNL     1     -43.921  56.649 -50.983  1.00  0.00     0.249 C 
HETATM    9  O   UNL     1     -44.981  56.177 -50.588  1.00  0.00    -0.271 OA
HETATM   10  C   UNL     1     -40.113  58.656 -51.847  1.00  0.00     0.035 C 
HETATM   11  C   UNL     1     -40.010  59.511 -50.587  1.00  0.00     0.002 C 
HETATM   12  C   UNL     1     -41.232  60.407 -50.423  1.00  0.00     0.002 C 
HETATM   13  C   UNL     1     -42.519  59.593 -50.397  1.00  0.00     0.027 C 
HETATM   14  H   UNL     1     -44.784  58.392 -51.487  1.00  0.00     0.163 HD
ENDROOT
BRANCH   1  15
HETATM   15  C   UNL     1     -42.587  54.706 -50.004  1.00  0.00     0.146 C 
BRANCH  15  16
HETATM   16  C   UNL     1     -41.234  54.552 -49.364  1.00  0.00     0.224 C 
HETATM   17  N   UNL     1     -40.250  53.786 -49.903  1.00  0.00    -0.327 N 
HETATM   18  H   UNL     1     -39.400  53.837 -49.347  1.00  0.00     0.169 HD
HETATM   19  O   UNL     1     -40.976  55.227 -48.355  1.00  0.00    -0.273 OA
BRANCH  17  20
HETATM   20  C   UNL     1     -40.142  52.982 -51.057  1.00  0.00     0.035 A 
HETATM   21  C   UNL     1     -40.284  53.408 -52.378  1.00  0.00     0.037 A 
HETATM   22  C   UNL     1     -40.156  52.513 -53.462  1.00  0.00    -0.054 A 
HETATM   23  C   UNL     1     -39.839  51.164 -53.218  1.00  0.00    -0.056 A 
HETATM   24  C   UNL     1     -40.340  53.028 -54.865  1.00  0.00     0.049 C 
HETATM   25  C   UNL     1     -39.681  50.171 -54.336  1.00  0.00     0.049 C 
HETATM   26  C   UNL     1     -39.710  50.732 -51.894  1.00  0.00     0.009 A 
HETATM   27  C   UNL     1     -39.864  51.627 -50.833  1.00  0.00     0.030 A 
ENDBRANCH  17  20
ENDBRANCH  15  16
ENDBRANCH   1  15
TORSDOF 3
ENDMDL
MODEL 3
REMARK VINA RESULT:      -8.1     14.225     16.716
REMARK  3 active torsions:
REMARK  status: ('A' for Active; 'I' for Inactive)
REMARK    1  A    between atoms: C_6  and  N_7 
REMARK       I    between atoms: N_7  and  C_8 
REMARK    2  A    between atoms: C_8  and  C_9 
REMARK    3  A    between atoms: C_9  and  C_10 
ROOT
HETATM    1  C   UNL     1     -34.147  40.556 -54.293  1.00  0.00     0.286 C 
HETATM    2  N   UNL     1     -34.504  40.462 -52.816  1.00  0.00    -0.056 N 
HETATM    3  H   UNL     1     -34.065  41.295 -52.368  1.00  0.00     0.278 HD
HETATM    4  H   UNL     1     -35.516  40.566 -52.679  1.00  0.00     0.278 HD
HETATM    5  C   UNL     1     -33.991  39.191 -52.185  1.00  0.00     0.209 C 
HETATM    6  C   UNL     1     -32.450  39.123 -52.356  1.00  0.00     0.115 C 
HETATM    7  N   UNL     1     -32.029  39.388 -53.733  1.00  0.00    -0.353 N 
HETATM    8  C   UNL     1     -32.655  40.279 -54.572  1.00  0.00     0.249 C 
HETATM    9  O   UNL     1     -32.067  40.718 -55.553  1.00  0.00    -0.271 OA
HETATM   10  C   UNL     1     -34.438  39.137 -50.725  1.00  0.00     0.035 C 
HETATM   11  C   UNL     1     -33.668  40.094 -49.819  1.00  0.00     0.002 C 
HETATM   12  C   UNL     1     -32.164  39.900 -49.958  1.00  0.00     0.002 C 
HETATM   13  C   UNL     1     -31.711  40.073 -51.402  1.00  0.00     0.027 C 
HETATM   14  H   UNL     1     -31.053  39.225 -53.973  1.00  0.00     0.163 HD
ENDROOT
BRANCH   1  15
HETATM   15  C   UNL     1     -34.615  41.877 -54.918  1.00  0.00     0.146 C 
BRANCH  15  16
HETATM   16  C   UNL     1     -35.995  42.262 -54.460  1.00  0.00     0.224 C 
HETATM   17  N   UNL     1     -37.104  42.052 -55.216  1.00  0.00    -0.327 N 
HETATM   18  H   UNL     1     -37.944  42.344 -54.724  1.00  0.00     0.169 HD
HETATM   19  O   UNL     1     -36.136  42.701 -53.309  1.00  0.00    -0.273 OA
BRANCH  17  20
HETATM   20  C   UNL     1     -37.342  41.499 -56.492  1.00  0.00     0.035 A 
HETATM   21  C   UNL     1     -37.213  42.157 -57.716  1.00  0.00     0.037 A 
HETATM   22  C   UNL     1     -37.479  41.504 -58.938  1.00  0.00    -0.054 A 
HETATM   23  C   UNL     1     -37.844  40.146 -58.938  1.00  0.00    -0.056 A 
HETATM   24  C   UNL     1     -37.343  42.273 -60.226  1.00  0.00     0.049 C 
HETATM   25  C   UNL     1     -38.129  39.399 -60.212  1.00  0.00     0.049 C 
HETATM   26  C   UNL     1     -37.987  39.488 -57.712  1.00  0.00     0.009 A 
HETATM   27  C   UNL     1     -37.744  40.157 -56.510  1.00  0.00     0.030 A 
ENDBRANCH  17  20
ENDBRANCH  15  16
ENDBRANCH   1  15
TORSDOF 3
ENDMDL
MODEL 4
REMARK VINA RESULT:      -7.5      2.877      4.404
REMARK  3 active torsions:
REMARK  status: ('A' for Active; 'I' for Inactive)
REMARK    1  A    between atoms: C_6  and  N_7 
REMARK       I    between atoms: N_7  and  C_8 
REMARK    2  A    between atoms: C_8  and  C_9 
REMARK    3  A    between atoms: C_9  and  C_10 
ROOT
HETATM    1  C   UNL     1     -43.548  55.366 -56.151  1.00  0.00     0.286 C 
HETATM    2  N   UNL     1     -42.770  55.611 -57.436  1.00  0.00    -0.056 N 
HETATM    3  H   UNL     1     -41.923  56.148 -57.153  1.00  0.00     0.278 HD
HETATM    4  H   UNL     1     -42.428  54.727 -57.828  1.00  0.00     0.278 HD
HETATM    5  C   UNL     1     -43.574  56.388 -58.449  1.00  0.00     0.209 C 
HETATM    6  C   UNL     1     -44.001  57.745 -57.830  1.00  0.00     0.115 C 
HETATM    7  N   UNL     1     -44.596  57.589 -56.501  1.00  0.00    -0.353 N 
HETATM    8  C   UNL     1     -44.196  56.647 -55.584  1.00  0.00     0.249 C 
HETATM    9  O   UNL     1     -44.466  56.789 -54.397  1.00  0.00    -0.271 OA
HETATM   10  C   UNL     1     -42.756  56.542 -59.731  1.00  0.00     0.035 C 
HETATM   11  C   UNL     1     -41.621  57.555 -59.608  1.00  0.00     0.002 C 
HETATM   12  C   UNL     1     -42.127  58.897 -59.095  1.00  0.00     0.002 C 
HETATM   13  C   UNL     1     -42.840  58.748 -57.757  1.00  0.00     0.027 C 
HETATM   14  H   UNL     1     -45.036  58.404 -56.077  1.00  0.00     0.163 HD
ENDROOT
BRANCH   1  15
HETATM   15  C   UNL     1     -42.708  54.631 -55.097  1.00  0.00     0.146 C 
BRANCH  15  16
HETATM   16  C   UNL     1     -41.435  55.366 -54.776  1.00  0.00     0.224 C 
HETATM   17  N   UNL     1     -40.414  54.796 -54.083  1.00  0.00    -0.327 N 
HETATM   18  H   UNL     1     -39.628  55.435 -53.998  1.00  0.00     0.169 HD
HETATM   19  O   UNL     1     -41.273  56.503 -55.244  1.00  0.00    -0.273 OA
BRANCH  17  20
HETATM   20  C   UNL     1     -40.200  53.530 -53.500  1.00  0.00     0.035 A 
HETATM   21  C   UNL     1     -39.976  52.332 -54.181  1.00  0.00     0.037 A 
HETATM   22  C   UNL     1     -39.773  51.117 -53.493  1.00  0.00    -0.054 A 
HETATM   23  C   UNL     1     -39.754  51.107 -52.087  1.00  0.00    -0.056 A 
HETATM   24  C   UNL     1     -39.557  49.854 -54.284  1.00  0.00     0.049 C 
HETATM   25  C   UNL     1     -39.532  49.841 -51.305  1.00  0.00     0.049 C 
HETATM   26  C   UNL     1     -39.991  52.303 -51.403  1.00  0.00     0.009 A 
HETATM   27  C   UNL     1     -40.215  53.492 -52.100  1.00  0.00     0.030 A 
ENDBRANCH  17  20
ENDBRANCH  15  16
ENDBRANCH   1  15
TORSDOF 3
ENDMDL
MODEL 5
REMARK VINA RESULT:      -7.3      2.176      3.499
REMARK  3 active torsions:
REMARK  status: ('A' for Active; 'I' for Inactive)
REMARK    1  A    between atoms: C_6  and  N_7 
REMARK       I    between atoms: N_7  and  C_8 
REMARK    2  A    between atoms: C_8  and  C_9 
REMARK    3  A    between atoms: C_9  and  C_10 
ROOT
HETATM    1  C   UNL     1     -42.061  57.836 -52.988  1.00  0.00     0.286 C 
HETATM    2  N   UNL     1     -43.535  58.062 -52.683  1.00  0.00    -0.056 N 
HETATM    3  H   UNL     1     -43.879  58.706 -53.427  1.00  0.00     0.278 HD
HETATM    4  H   UNL     1     -44.066  57.191 -52.793  1.00  0.00     0.278 HD
HETATM    5  C   UNL     1     -43.748  58.669 -51.319  1.00  0.00     0.209 C 
HETATM    6  C   UNL     1     -42.983  60.017 -51.234  1.00  0.00     0.115 C 
HETATM    7  N   UNL     1     -41.597  59.901 -51.691  1.00  0.00    -0.353 N 
HETATM    8  C   UNL     1     -41.190  59.080 -52.715  1.00  0.00     0.249 C 
HETATM    9  O   UNL     1     -40.122  59.284 -53.281  1.00  0.00    -0.271 OA
HETATM   10  C   UNL     1     -45.247  58.810 -51.057  1.00  0.00     0.035 C 
HETATM   11  C   UNL     1     -45.896  59.943 -51.846  1.00  0.00     0.002 C 
HETATM   12  C   UNL     1     -45.159  61.260 -51.634  1.00  0.00     0.002 C 
HETATM   13  C   UNL     1     -43.687  61.140 -52.009  1.00  0.00     0.027 C 
HETATM   14  H   UNL     1     -40.977  60.695 -51.540  1.00  0.00     0.163 HD
ENDROOT
BRANCH   1  15
HETATM   15  C   UNL     1     -41.841  57.277 -54.401  1.00  0.00     0.146 C 
BRANCH  15  16
HETATM   16  C   UNL     1     -42.933  56.326 -54.808  1.00  0.00     0.224 C 
HETATM   17  N   UNL     1     -42.914  55.006 -54.487  1.00  0.00    -0.327 N 
HETATM   18  H   UNL     1     -43.752  54.536 -54.818  1.00  0.00     0.169 HD
HETATM   19  O   UNL     1     -43.935  56.784 -55.378  1.00  0.00    -0.273 OA
BRANCH  17  20
HETATM   20  C   UNL     1     -42.021  54.172 -53.782  1.00  0.00     0.035 A 
HETATM   21  C   UNL     1     -41.824  54.152 -52.401  1.00  0.00     0.037 A 
HETATM   22  C   UNL     1     -40.899  53.273 -51.798  1.00  0.00    -0.054 A 
HETATM   23  C   UNL     1     -40.182  52.363 -52.594  1.00  0.00    -0.056 A 
HETATM   24  C   UNL     1     -40.716  53.312 -50.303  1.00  0.00     0.049 C 
HETATM   25  C   UNL     1     -39.192  51.397 -52.003  1.00  0.00     0.049 C 
HETATM   26  C   UNL     1     -40.367  52.390 -53.980  1.00  0.00     0.009 A 
HETATM   27  C   UNL     1     -41.269  53.285 -54.562  1.00  0.00     0.030 A 
ENDBRANCH  17  20
ENDBRANCH  15  16
ENDBRANCH   1  15
TORSDOF 3
ENDMDL
MODEL 6
REMARK VINA RESULT:      -7.3     14.388     16.872
REMARK  3 active torsions:
REMARK  status: ('A' for Active; 'I' for Inactive)
REMARK    1  A    between atoms: C_6  and  N_7 
REMARK       I    between atoms: N_7  and  C_8 
REMARK    2  A    between atoms: C_8  and  C_9 
REMARK    3  A    between atoms: C_9  and  C_10 
ROOT
HETATM    1  C   UNL     1     -35.018  40.595 -53.896  1.00  0.00     0.286 C 
HETATM    2  N   UNL     1     -34.322  40.002 -55.113  1.00  0.00    -0.056 N 
HETATM    3  H   UNL     1     -34.286  38.974 -54.941  1.00  0.00     0.278 HD
HETATM    4  H   UNL     1     -34.893  40.129 -55.956  1.00  0.00     0.278 HD
HETATM    5  C   UNL     1     -32.931  40.554 -55.300  1.00  0.00     0.209 C 
HETATM    6  C   UNL     1     -32.092  40.269 -54.027  1.00  0.00     0.115 C 
HETATM    7  N   UNL     1     -32.792  40.655 -52.800  1.00  0.00    -0.353 N 
HETATM    8  C   UNL     1     -34.150  40.548 -52.621  1.00  0.00     0.249 C 
HETATM    9  O   UNL     1     -34.624  40.541 -51.491  1.00  0.00    -0.271 OA
HETATM   10  C   UNL     1     -32.320  39.962 -56.569  1.00  0.00     0.035 C 
HETATM   11  C   UNL     1     -31.899  38.503 -56.416  1.00  0.00     0.002 C 
HETATM   12  C   UNL     1     -30.991  38.311 -55.207  1.00  0.00     0.002 C 
HETATM   13  C   UNL     1     -31.658  38.799 -53.928  1.00  0.00     0.027 C 
HETATM   14  H   UNL     1     -32.267  40.639 -51.926  1.00  0.00     0.163 HD
ENDROOT
BRANCH   1  15
HETATM   15  C   UNL     1     -36.408  39.986 -53.670  1.00  0.00     0.146 C 
BRANCH  15  16
HETATM   16  C   UNL     1     -37.489  41.033 -53.659  1.00  0.00     0.224 C 
HETATM   17  N   UNL     1     -38.068  41.502 -54.795  1.00  0.00    -0.327 N 
HETATM   18  H   UNL     1     -38.799  42.175 -54.583  1.00  0.00     0.169 HD
HETATM   19  O   UNL     1     -37.934  41.413 -52.565  1.00  0.00    -0.273 OA
BRANCH  17  20
HETATM   20  C   UNL     1     -37.902  41.239 -56.171  1.00  0.00     0.035 A 
HETATM   21  C   UNL     1     -38.301  40.084 -56.846  1.00  0.00     0.037 A 
HETATM   22  C   UNL     1     -38.084  39.925 -58.231  1.00  0.00    -0.054 A 
HETATM   23  C   UNL     1     -37.488  40.965 -58.967  1.00  0.00    -0.056 A 
HETATM   24  C   UNL     1     -38.517  38.647 -58.900  1.00  0.00     0.049 C 
HETATM   25  C   UNL     1     -37.243  40.852 -60.447  1.00  0.00     0.049 C 
HETATM   26  C   UNL     1     -37.076  42.117 -58.291  1.00  0.00     0.009 A 
HETATM   27  C   UNL     1     -37.276  42.248 -56.914  1.00  0.00     0.030 A 
ENDBRANCH  17  20
ENDBRANCH  15  16
ENDBRANCH   1  15
TORSDOF 3
ENDMDL
MODEL 7
REMARK VINA RESULT:      -7.2      1.972      3.726
REMARK  3 active torsions:
REMARK  status: ('A' for Active; 'I' for Inactive)
REMARK    1  A    between atoms: C_6  and  N_7 
REMARK       I    between atoms: N_7  and  C_8 
REMARK    2  A    between atoms: C_8  and  C_9 
REMARK    3  A    between atoms: C_9  and  C_10 
ROOT
HETATM    1  C   UNL     1     -41.318  57.940 -51.111  1.00  0.00     0.286 C 
HETATM    2  N   UNL     1     -42.279  58.969 -50.531  1.00  0.00    -0.056 N 
HETATM    3  H   UNL     1     -43.233  58.639 -50.793  1.00  0.00     0.278 HD
HETATM    4  H   UNL     1     -42.246  58.959 -49.506  1.00  0.00     0.278 HD
HETATM    5  C   UNL     1     -42.030  60.353 -51.077  1.00  0.00     0.209 C 
HETATM    6  C   UNL     1     -42.166  60.324 -52.623  1.00  0.00     0.115 C 
HETATM    7  N   UNL     1     -41.401  59.232 -53.229  1.00  0.00    -0.353 N 
HETATM    8  C   UNL     1     -41.228  57.998 -52.650  1.00  0.00     0.249 C 
HETATM    9  O   UNL     1     -40.901  57.036 -53.336  1.00  0.00    -0.271 OA
HETATM   10  C   UNL     1     -42.987  61.338 -50.408  1.00  0.00     0.035 C 
HETATM   11  C   UNL     1     -44.426  61.220 -50.905  1.00  0.00     0.002 C 
HETATM   12  C   UNL     1     -44.497  61.305 -52.424  1.00  0.00     0.002 C 
HETATM   13  C   UNL     1     -43.628  60.241 -53.083  1.00  0.00     0.027 C 
HETATM   14  H   UNL     1     -41.312  59.218 -54.244  1.00  0.00     0.163 HD
ENDROOT
BRANCH   1  15
HETATM   15  C   UNL     1     -41.611  56.523 -50.603  1.00  0.00     0.146 C 
BRANCH  15  16
HETATM   16  C   UNL     1     -42.942  56.013 -51.088  1.00  0.00     0.224 C 
HETATM   17  N   UNL     1     -43.065  54.898 -51.854  1.00  0.00    -0.327 N 
HETATM   18  H   UNL     1     -44.042  54.694 -52.050  1.00  0.00     0.169 HD
HETATM   19  O   UNL     1     -43.972  56.579 -50.693  1.00  0.00    -0.273 OA
BRANCH  17  20
HETATM   20  C   UNL     1     -42.157  53.964 -52.395  1.00  0.00     0.035 A 
HETATM   21  C   UNL     1     -41.213  53.220 -51.686  1.00  0.00     0.037 A 
HETATM   22  C   UNL     1     -40.350  52.310 -52.332  1.00  0.00    -0.054 A 
HETATM   23  C   UNL     1     -40.461  52.110 -53.720  1.00  0.00    -0.056 A 
HETATM   24  C   UNL     1     -39.338  51.552 -51.515  1.00  0.00     0.049 C 
HETATM   25  C   UNL     1     -39.573  51.145 -54.457  1.00  0.00     0.049 C 
HETATM   26  C   UNL     1     -41.397  52.864 -54.435  1.00  0.00     0.009 A 
HETATM   27  C   UNL     1     -42.226  53.779 -53.782  1.00  0.00     0.030 A 
ENDBRANCH  17  20
ENDBRANCH  15  16
ENDBRANCH   1  15
TORSDOF 3
ENDMDL
MODEL 8
REMARK VINA RESULT:      -7.2      3.864      5.734
REMARK  3 active torsions:
REMARK  status: ('A' for Active; 'I' for Inactive)
REMARK    1  A    between atoms: C_6  and  N_7 
REMARK       I    between atoms: N_7  and  C_8 
REMARK    2  A    between atoms: C_8  and  C_9 
REMARK    3  A    between atoms: C_9  and  C_10 
ROOT
HETATM    1  C   UNL     1     -42.331  57.244 -56.958  1.00  0.00     0.286 C 
HETATM    2  N   UNL     1     -42.479  58.609 -57.615  1.00  0.00    -0.056 N 
HETATM    3  H   UNL     1     -43.504  58.804 -57.627  1.00  0.00     0.278 HD
HETATM    4  H   UNL     1     -42.059  59.341 -57.031  1.00  0.00     0.278 HD
HETATM    5  C   UNL     1     -41.921  58.632 -59.016  1.00  0.00     0.209 C 
HETATM    6  C   UNL     1     -42.644  57.559 -59.871  1.00  0.00     0.115 C 
HETATM    7  N   UNL     1     -42.694  56.255 -59.206  1.00  0.00    -0.353 N 
HETATM    8  C   UNL     1     -42.831  56.088 -57.849  1.00  0.00     0.249 C 
HETATM    9  O   UNL     1     -43.220  55.017 -57.397  1.00  0.00    -0.271 OA
HETATM   10  C   UNL     1     -42.049  60.044 -59.587  1.00  0.00     0.035 C 
HETATM   11  C   UNL     1     -43.479  60.414 -59.972  1.00  0.00     0.002 C 
HETATM   12  C   UNL     1     -44.092  59.372 -60.898  1.00  0.00     0.002 C 
HETATM   13  C   UNL     1     -44.065  57.985 -60.269  1.00  0.00     0.027 C 
HETATM   14  H   UNL     1     -43.020  55.456 -59.746  1.00  0.00     0.163 HD
ENDROOT
BRANCH   1  15
HETATM   15  C   UNL     1     -42.955  57.205 -55.557  1.00  0.00     0.146 C 
BRANCH  15  16
HETATM   16  C   UNL     1     -42.046  57.799 -54.516  1.00  0.00     0.224 C 
HETATM   17  N   UNL     1     -41.193  57.048 -53.772  1.00  0.00    -0.327 N 
HETATM   18  H   UNL     1     -40.638  57.631 -53.150  1.00  0.00     0.169 HD
HETATM   19  O   UNL     1     -42.007  59.033 -54.399  1.00  0.00    -0.273 OA
BRANCH  17  20
HETATM   20  C   UNL     1     -40.892  55.672 -53.699  1.00  0.00     0.035 A 
HETATM   21  C   UNL     1     -40.948  54.872 -52.557  1.00  0.00     0.037 A 
HETATM   22  C   UNL     1     -40.623  53.500 -52.598  1.00  0.00    -0.054 A 
HETATM   23  C   UNL     1     -40.271  52.903 -53.822  1.00  0.00    -0.056 A 
HETATM   24  C   UNL     1     -40.681  52.693 -51.328  1.00  0.00     0.049 C 
HETATM   25  C   UNL     1     -39.925  51.443 -53.924  1.00  0.00     0.049 C 
HETATM   26  C   UNL     1     -40.202  53.705 -54.965  1.00  0.00     0.009 A 
HETATM   27  C   UNL     1     -40.503  55.068 -54.902  1.00  0.00     0.030 A 
ENDBRANCH  17  20
ENDBRANCH  15  16
ENDBRANCH   1  15
TORSDOF 3
ENDMDL
MODEL 9
REMARK VINA RESULT:      -7.2     14.251     16.302
REMARK  3 active torsions:
REMARK  status: ('A' for Active; 'I' for Inactive)
REMARK    1  A    between atoms: C_6  and  N_7 
REMARK       I    between atoms: N_7  and  C_8 
REMARK    2  A    between atoms: C_8  and  C_9 
REMARK    3  A    between atoms: C_9  and  C_10 
ROOT
HETATM    1  C   UNL     1     -35.611  42.338 -55.357  1.00  0.00     0.286 C 
HETATM    2  N   UNL     1     -34.856  41.964 -54.090  1.00  0.00    -0.056 N 
HETATM    3  H   UNL     1     -34.684  40.938 -54.160  1.00  0.00     0.278 HD
HETATM    4  H   UNL     1     -33.930  42.406 -54.075  1.00  0.00     0.278 HD
HETATM    5  C   UNL     1     -35.641  42.284 -52.843  1.00  0.00     0.209 C 
HETATM    6  C   UNL     1     -36.997  41.531 -52.885  1.00  0.00     0.115 C 
HETATM    7  N   UNL     1     -37.693  41.707 -54.161  1.00  0.00    -0.353 N 
HETATM    8  C   UNL     1     -37.060  41.806 -55.377  1.00  0.00     0.249 C 
HETATM    9  O   UNL     1     -37.679  41.592 -56.413  1.00  0.00    -0.271 OA
HETATM   10  C   UNL     1     -34.799  41.940 -51.614  1.00  0.00     0.035 C 
HETATM   11  C   UNL     1     -34.686  40.440 -51.358  1.00  0.00     0.002 C 
HETATM   12  C   UNL     1     -36.058  39.780 -51.306  1.00  0.00     0.002 C 
HETATM   13  C   UNL     1     -36.845  40.033 -52.586  1.00  0.00     0.027 C 
HETATM   14  H   UNL     1     -38.652  41.370 -54.232  1.00  0.00     0.163 HD
ENDROOT
BRANCH   1  15
HETATM   15  C   UNL     1     -34.839  41.954 -56.627  1.00  0.00     0.146 C 
BRANCH  15  16
HETATM   16  C   UNL     1     -34.109  40.648 -56.471  1.00  0.00     0.224 C 
HETATM   17  N   UNL     1     -34.579  39.480 -56.981  1.00  0.00    -0.327 N 
HETATM   18  H   UNL     1     -33.932  38.716 -56.806  1.00  0.00     0.169 HD
HETATM   19  O   UNL     1     -32.990  40.655 -55.937  1.00  0.00    -0.273 OA
BRANCH  17  20
HETATM   20  C   UNL     1     -35.726  39.111 -57.715  1.00  0.00     0.035 A 
HETATM   21  C   UNL     1     -36.039  39.507 -59.016  1.00  0.00     0.037 A 
HETATM   22  C   UNL     1     -37.220  39.076 -59.657  1.00  0.00    -0.054 A 
HETATM   23  C   UNL     1     -38.091  38.195 -58.993  1.00  0.00    -0.056 A 
HETATM   24  C   UNL     1     -37.513  39.555 -61.055  1.00  0.00     0.049 C 
HETATM   25  C   UNL     1     -39.358  37.697 -59.633  1.00  0.00     0.049 C 
HETATM   26  C   UNL     1     -37.787  37.807 -57.684  1.00  0.00     0.009 A 
HETATM   27  C   UNL     1     -36.626  38.263 -57.056  1.00  0.00     0.030 A 
ENDBRANCH  17  20
ENDBRANCH  15  16
ENDBRANCH   1  15
TORSDOF 3
ENDMDL
MODEL 10
REMARK VINA RESULT:      -7.1      2.228      3.231
REMARK  3 active torsions:
REMARK  status: ('A' for Active; 'I' for Inactive)
REMARK    1  A    between atoms: C_6  and  N_7 
REMARK       I    between atoms: N_7  and  C_8 
REMARK    2  A    between atoms: C_8  and  C_9 
REMARK    3  A    between atoms: C_9  and  C_10 
ROOT
HETATM    1  C   UNL     1     -42.903  58.241 -55.072  1.00  0.00     0.286 C 
HETATM    2  N   UNL     1     -41.804  57.981 -54.051  1.00  0.00    -0.056 N 
HETATM    3  H   UNL     1     -42.274  57.509 -53.249  1.00  0.00     0.278 HD
HETATM    4  H   UNL     1     -41.121  57.307 -54.416  1.00  0.00     0.278 HD
HETATM    5  C   UNL     1     -41.134  59.253 -53.597  1.00  0.00     0.209 C 
HETATM    6  C   UNL     1     -42.200  60.202 -52.986  1.00  0.00     0.115 C 
HETATM    7  N   UNL     1     -43.374  60.350 -53.849  1.00  0.00    -0.353 N 
HETATM    8  C   UNL     1     -43.889  59.343 -54.629  1.00  0.00     0.249 C 
HETATM    9  O   UNL     1     -45.043  59.408 -55.036  1.00  0.00    -0.271 OA
HETATM   10  C   UNL     1     -40.007  58.911 -52.624  1.00  0.00     0.035 C 
HETATM   11  C   UNL     1     -40.504  58.483 -51.246  1.00  0.00     0.002 C 
HETATM   12  C   UNL     1     -41.464  59.511 -50.659  1.00  0.00     0.002 C 
HETATM   13  C   UNL     1     -42.647  59.759 -51.586  1.00  0.00     0.027 C 
HETATM   14  H   UNL     1     -44.061  61.061 -53.602  1.00  0.00     0.163 HD
ENDROOT
BRANCH   1  15
HETATM   15  C   UNL     1     -43.626  56.953 -55.486  1.00  0.00     0.146 C 
BRANCH  15  16
HETATM   16  C   UNL     1     -42.884  56.210 -56.564  1.00  0.00     0.224 C 
HETATM   17  N   UNL     1     -42.052  55.170 -56.298  1.00  0.00    -0.327 N 
HETATM   18  H   UNL     1     -41.672  54.775 -57.154  1.00  0.00     0.169 HD
HETATM   19  O   UNL     1     -43.115  56.498 -57.748  1.00  0.00    -0.273 OA
BRANCH  17  20
HETATM   20  C   UNL     1     -41.635  54.512 -55.121  1.00  0.00     0.035 A 
HETATM   21  C   UNL     1     -42.303  54.504 -53.896  1.00  0.00     0.037 A 
HETATM   22  C   UNL     1     -41.793  53.810 -52.779  1.00  0.00    -0.054 A 
HETATM   23  C   UNL     1     -40.603  53.071 -52.902  1.00  0.00    -0.056 A 
HETATM   24  C   UNL     1     -42.549  53.856 -51.478  1.00  0.00     0.049 C 
HETATM   25  C   UNL     1     -40.020  52.304 -51.746  1.00  0.00     0.049 C 
HETATM   26  C   UNL     1     -39.924  53.087 -54.125  1.00  0.00     0.009 A 
HETATM   27  C   UNL     1     -40.431  53.801 -55.213  1.00  0.00     0.030 A 
ENDBRANCH  17  20
ENDBRANCH  15  16
ENDBRANCH   1  15
TORSDOF 3
ENDMDL
