MODEL 1
REMARK VINA RESULT:      -8.0      0.000      0.000
REMARK  4 active torsions:
REMARK  status: ('A' for Active; 'I' for Inactive)
REMARK    1  A    between atoms: C_2  and  O_3 
REMARK    2  A    between atoms: O_3  and  C_4 
REMARK    3  A    between atoms: C_9  and  C_10 
REMARK       I    between atoms: C_10  and  N_11 
REMARK    4  A    between atoms: N_11  and  C_12 
ROOT
HETATM    1  C   UNL     1     -43.959  56.601 -51.084  1.00  0.00     0.276 C 
HETATM    2  N   UNL     1     -43.497  57.849 -51.485  1.00  0.00    -0.350 N 
HETATM    3  O   UNL     1     -45.024  56.456 -50.495  1.00  0.00    -0.265 OA
HETATM    4  H   UNL     1     -42.681  57.749 -52.089  1.00  0.00     0.163 HD
ENDROOT
BRANCH   1   5
HETATM    5  C   UNL     1     -43.064  55.511 -51.416  1.00  0.00     0.150 A 
HETATM    6  O   UNL     1     -42.342  54.934 -50.403  1.00  0.00    -0.304 OA
HETATM    7  C   UNL     1     -41.525  54.006 -50.966  1.00  0.00     0.087 A 
HETATM    8  C   UNL     1     -41.727  53.952 -52.338  1.00  0.00     0.009 A 
HETATM    9  C   UNL     1     -40.604  53.222 -50.280  1.00  0.00     0.041 A 
HETATM   10  C   UNL     1     -40.952  53.048 -53.096  1.00  0.00     0.051 A 
HETATM   11  C   UNL     1     -42.742  54.916 -52.629  1.00  0.00    -0.009 A 
HETATM   12  C   UNL     1     -40.000  52.253 -52.444  1.00  0.00     0.069 A 
HETATM   13  C   UNL     1     -39.841  52.342 -51.055  1.00  0.00     0.039 A 
HETATM   14  C   UNL     1     -43.315  55.242 -53.961  1.00  0.00     0.052 C 
BRANCH  12  15
HETATM   15  O   UNL     1     -39.166  51.353 -53.049  1.00  0.00    -0.351 OA
BRANCH  15  16
HETATM   16  C   UNL     1     -39.655  50.023 -53.225  1.00  0.00     0.171 C 
HETATM   17  C   UNL     1     -39.939  49.818 -54.702  1.00  0.00     0.034 C 
ENDBRANCH  15  16
ENDBRANCH  12  15
ENDBRANCH   1   5
BRANCH   2  18
HETATM   18  C   UNL     1     -44.351  59.001 -51.742  1.00  0.00     0.089 C 
HETATM   19  C   UNL     1     -44.211  59.471 -53.197  1.00  0.00     0.063 C 
HETATM   20  C   UNL     1     -42.959  60.315 -53.495  1.00  0.00     0.121 C 
HETATM   21  C   UNL     1     -41.672  59.492 -53.609  1.00  0.00     0.046 C 
HETATM   22  C   UNL     1     -43.157  61.052 -54.837  1.00  0.00     0.046 C 
HETATM   23  N   UNL     1     -42.797  61.398 -52.450  1.00  0.00    -0.059 N 
HETATM   24  H   UNL     1     -43.466  62.147 -52.680  1.00  0.00     0.279 HD
HETATM   25  H   UNL     1     -41.874  61.841 -52.569  1.00  0.00     0.279 HD
HETATM   26  C   UNL     1     -42.987  61.076 -50.979  1.00  0.00     0.121 C 
HETATM   27  C   UNL     1     -43.211  62.431 -50.274  1.00  0.00     0.046 C 
HETATM   28  C   UNL     1     -41.704  60.469 -50.405  1.00  0.00     0.046 C 
HETATM   29  C   UNL     1     -44.244  60.217 -50.812  1.00  0.00     0.063 C 
ENDBRANCH   2  18
TORSDOF 4
ENDMDL
MODEL 2
REMARK VINA RESULT:      -8.0      0.949      1.760
REMARK  4 active torsions:
REMARK  status: ('A' for Active; 'I' for Inactive)
REMARK    1  A    between atoms: C_2  and  O_3 
REMARK    2  A    between atoms: O_3  and  C_4 
REMARK    3  A    between atoms: C_9  and  C_10 
REMARK       I    between atoms: C_10  and  N_11 
REMARK    4  A    between atoms: N_11  and  C_12 
ROOT
HETATM    1  C   UNL     1     -43.753  56.567 -51.248  1.00  0.00     0.276 C 
HETATM    2  N   UNL     1     -43.422  57.849 -51.668  1.00  0.00    -0.350 N 
HETATM    3  O   UNL     1     -44.746  56.337 -50.566  1.00  0.00    -0.265 OA
HETATM    4  H   UNL     1     -42.660  57.816 -52.345  1.00  0.00     0.163 HD
ENDROOT
BRANCH   1   5
HETATM    5  C   UNL     1     -42.816  55.549 -51.677  1.00  0.00     0.150 A 
HETATM    6  O   UNL     1     -42.881  55.116 -52.977  1.00  0.00    -0.304 OA
HETATM    7  C   UNL     1     -41.972  54.116 -53.116  1.00  0.00     0.087 A 
HETATM    8  C   UNL     1     -41.292  53.911 -51.924  1.00  0.00     0.009 A 
HETATM    9  C   UNL     1     -41.750  53.385 -54.278  1.00  0.00     0.041 A 
HETATM   10  C   UNL     1     -40.311  52.897 -51.875  1.00  0.00     0.051 A 
HETATM   11  C   UNL     1     -41.826  54.857 -50.994  1.00  0.00    -0.009 A 
HETATM   12  C   UNL     1     -40.071  52.126 -53.021  1.00  0.00     0.069 A 
HETATM   13  C   UNL     1     -40.781  52.379 -54.201  1.00  0.00     0.039 A 
HETATM   14  C   UNL     1     -41.428  55.041 -49.574  1.00  0.00     0.052 C 
BRANCH  12  15
HETATM   15  O   UNL     1     -39.170  51.100 -53.115  1.00  0.00    -0.351 OA
BRANCH  15  16
HETATM   16  C   UNL     1     -39.676  49.771 -52.985  1.00  0.00     0.171 C 
HETATM   17  C   UNL     1     -39.666  49.405 -51.512  1.00  0.00     0.034 C 
ENDBRANCH  15  16
ENDBRANCH  12  15
ENDBRANCH   1   5
BRANCH   2  18
HETATM   18  C   UNL     1     -44.378  58.937 -51.828  1.00  0.00     0.089 C 
HETATM   19  C   UNL     1     -44.294  59.535 -53.239  1.00  0.00     0.063 C 
HETATM   20  C   UNL     1     -43.125  60.511 -53.468  1.00  0.00     0.121 C 
HETATM   21  C   UNL     1     -41.770  59.818 -53.651  1.00  0.00     0.046 C 
HETATM   22  C   UNL     1     -43.399  61.335 -54.744  1.00  0.00     0.046 C 
HETATM   23  N   UNL     1     -43.051  61.514 -52.337  1.00  0.00    -0.059 N 
HETATM   24  H   UNL     1     -43.786  62.217 -52.503  1.00  0.00     0.279 HD
HETATM   25  H   UNL     1     -42.172  62.046 -52.420  1.00  0.00     0.279 HD
HETATM   26  C   UNL     1     -43.198  61.056 -50.898  1.00  0.00     0.121 C 
HETATM   27  C   UNL     1     -43.536  62.323 -50.082  1.00  0.00     0.046 C 
HETATM   28  C   UNL     1     -41.861  60.522 -50.378  1.00  0.00     0.046 C 
HETATM   29  C   UNL     1     -44.371  60.077 -50.800  1.00  0.00     0.063 C 
ENDBRANCH   2  18
TORSDOF 4
ENDMDL
MODEL 3
REMARK VINA RESULT:      -7.8      4.518      6.019
REMARK  4 active torsions:
REMARK  status: ('A' for Active; 'I' for Inactive)
REMARK    1  A    between atoms: C_2  and  O_3 
REMARK    2  A    between atoms: O_3  and  C_4 
REMARK    3  A    between atoms: C_9  and  C_10 
REMARK       I    between atoms: C_10  and  N_11 
REMARK    4  A    between atoms: N_11  and  C_12 
ROOT
HETATM    1  C   UNL     1     -42.432  57.781 -55.948  1.00  0.00     0.276 C 
HETATM    2  N   UNL     1     -43.180  57.333 -57.029  1.00  0.00    -0.350 N 
HETATM    3  O   UNL     1     -42.231  58.972 -55.739  1.00  0.00    -0.265 OA
HETATM    4  H   UNL     1     -43.363  56.333 -56.945  1.00  0.00     0.163 HD
ENDROOT
BRANCH   1   5
HETATM    5  C   UNL     1     -41.911  56.716 -55.114  1.00  0.00     0.150 A 
HETATM    6  O   UNL     1     -41.335  55.634 -55.729  1.00  0.00    -0.304 OA
HETATM    7  C   UNL     1     -41.004  54.745 -54.757  1.00  0.00     0.087 A 
HETATM    8  C   UNL     1     -41.334  55.250 -53.507  1.00  0.00     0.009 A 
HETATM    9  C   UNL     1     -40.427  53.498 -54.970  1.00  0.00     0.041 A 
HETATM   10  C   UNL     1     -41.073  54.453 -52.371  1.00  0.00     0.051 A 
HETATM   11  C   UNL     1     -41.905  56.540 -53.737  1.00  0.00    -0.009 A 
HETATM   12  C   UNL     1     -40.507  53.183 -52.545  1.00  0.00     0.069 A 
HETATM   13  C   UNL     1     -40.187  52.724 -53.829  1.00  0.00     0.039 A 
HETATM   14  C   UNL     1     -42.420  57.488 -52.715  1.00  0.00     0.052 C 
BRANCH  12  15
HETATM   15  O   UNL     1     -40.220  52.296 -51.543  1.00  0.00    -0.351 OA
BRANCH  15  16
HETATM   16  C   UNL     1     -39.446  51.147 -51.887  1.00  0.00     0.171 C 
HETATM   17  C   UNL     1     -39.704  50.076 -50.844  1.00  0.00     0.034 C 
ENDBRANCH  15  16
ENDBRANCH  12  15
ENDBRANCH   1   5
BRANCH   2  18
HETATM   18  C   UNL     1     -44.202  58.119 -57.708  1.00  0.00     0.089 C 
HETATM   19  C   UNL     1     -45.278  57.208 -58.316  1.00  0.00     0.063 C 
HETATM   20  C   UNL     1     -44.890  56.538 -59.647  1.00  0.00     0.121 C 
HETATM   21  C   UNL     1     -43.937  55.349 -59.485  1.00  0.00     0.046 C 
HETATM   22  C   UNL     1     -46.168  56.015 -60.338  1.00  0.00     0.046 C 
HETATM   23  N   UNL     1     -44.298  57.559 -60.595  1.00  0.00    -0.059 N 
HETATM   24  H   UNL     1     -45.081  58.098 -60.992  1.00  0.00     0.279 HD
HETATM   25  H   UNL     1     -43.895  57.067 -61.406  1.00  0.00     0.279 HD
HETATM   26  C   UNL     1     -43.280  58.566 -60.094  1.00  0.00     0.121 C 
HETATM   27  C   UNL     1     -43.250  59.696 -61.146  1.00  0.00     0.046 C 
HETATM   28  C   UNL     1     -41.886  57.934 -60.064  1.00  0.00     0.046 C 
HETATM   29  C   UNL     1     -43.760  59.145 -58.760  1.00  0.00     0.063 C 
ENDBRANCH   2  18
TORSDOF 4
ENDMDL
MODEL 4
REMARK VINA RESULT:      -7.5      5.592      8.382
REMARK  4 active torsions:
REMARK  status: ('A' for Active; 'I' for Inactive)
REMARK    1  A    between atoms: C_2  and  O_3 
REMARK    2  A    between atoms: O_3  and  C_4 
REMARK    3  A    between atoms: C_9  and  C_10 
REMARK       I    between atoms: C_10  and  N_11 
REMARK    4  A    between atoms: N_11  and  C_12 
ROOT
HETATM    1  C   UNL     1     -42.539  57.383 -56.193  1.00  0.00     0.276 C 
HETATM    2  N   UNL     1     -42.214  56.325 -55.354  1.00  0.00    -0.350 N 
HETATM    3  O   UNL     1     -42.102  58.515 -56.018  1.00  0.00    -0.265 OA
HETATM    4  H   UNL     1     -42.544  55.444 -55.748  1.00  0.00     0.163 HD
ENDROOT
BRANCH   1   5
HETATM    5  C   UNL     1     -43.440  57.022 -57.269  1.00  0.00     0.150 A 
HETATM    6  O   UNL     1     -43.107  55.952 -58.060  1.00  0.00    -0.304 OA
HETATM    7  C   UNL     1     -44.048  55.862 -59.035  1.00  0.00     0.087 A 
HETATM    8  C   UNL     1     -45.010  56.850 -58.872  1.00  0.00     0.009 A 
HETATM    9  C   UNL     1     -44.055  54.927 -60.065  1.00  0.00     0.041 A 
HETATM   10  C   UNL     1     -46.066  56.921 -59.807  1.00  0.00     0.051 A 
HETATM   11  C   UNL     1     -44.625  57.591 -57.712  1.00  0.00    -0.009 A 
HETATM   12  C   UNL     1     -46.098  56.007 -60.868  1.00  0.00     0.069 A 
HETATM   13  C   UNL     1     -45.106  55.025 -60.983  1.00  0.00     0.039 A 
HETATM   14  C   UNL     1     -45.331  58.756 -57.117  1.00  0.00     0.052 C 
BRANCH  12  15
HETATM   15  O   UNL     1     -47.044  55.969 -61.857  1.00  0.00    -0.351 OA
BRANCH  15  16
HETATM   16  C   UNL     1     -48.205  56.780 -61.684  1.00  0.00     0.171 C 
HETATM   17  C   UNL     1     -48.643  57.275 -63.050  1.00  0.00     0.034 C 
ENDBRANCH  15  16
ENDBRANCH  12  15
ENDBRANCH   1   5
BRANCH   2  18
HETATM   18  C   UNL     1     -41.004  56.254 -54.544  1.00  0.00     0.089 C 
HETATM   19  C   UNL     1     -40.301  54.903 -54.730  1.00  0.00     0.063 C 
HETATM   20  C   UNL     1     -40.913  53.733 -53.939  1.00  0.00     0.121 C 
HETATM   21  C   UNL     1     -42.201  53.178 -54.556  1.00  0.00     0.046 C 
HETATM   22  C   UNL     1     -39.893  52.576 -53.880  1.00  0.00     0.046 C 
HETATM   23  N   UNL     1     -41.155  54.142 -52.502  1.00  0.00    -0.059 N 
HETATM   24  H   UNL     1     -40.247  54.110 -52.017  1.00  0.00     0.279 HD
HETATM   25  H   UNL     1     -41.714  53.411 -52.036  1.00  0.00     0.279 HD
HETATM   26  C   UNL     1     -41.775  55.490 -52.185  1.00  0.00     0.121 C 
HETATM   27  C   UNL     1     -41.453  55.766 -50.700  1.00  0.00     0.046 C 
HETATM   28  C   UNL     1     -43.298  55.411 -52.314  1.00  0.00     0.046 C 
HETATM   29  C   UNL     1     -41.105  56.566 -53.045  1.00  0.00     0.063 C 
ENDBRANCH   2  18
TORSDOF 4
ENDMDL
MODEL 5
REMARK VINA RESULT:      -7.4      2.355      3.569
REMARK  4 active torsions:
REMARK  status: ('A' for Active; 'I' for Inactive)
REMARK    1  A    between atoms: C_2  and  O_3 
REMARK    2  A    between atoms: O_3  and  C_4 
REMARK    3  A    between atoms: C_9  and  C_10 
REMARK       I    between atoms: C_10  and  N_11 
REMARK    4  A    between atoms: N_11  and  C_12 
ROOT
HETATM    1  C   UNL     1     -41.589  59.017 -53.206  1.00  0.00     0.276 C 
HETATM    2  N   UNL     1     -42.640  59.370 -52.369  1.00  0.00    -0.350 N 
HETATM    3  O   UNL     1     -40.999  59.839 -53.898  1.00  0.00    -0.265 OA
HETATM    4  H   UNL     1     -42.895  58.586 -51.768  1.00  0.00     0.163 HD
ENDROOT
BRANCH   1   5
HETATM    5  C   UNL     1     -41.277  57.602 -53.188  1.00  0.00     0.150 A 
HETATM    6  O   UNL     1     -40.983  56.989 -54.380  1.00  0.00    -0.304 OA
HETATM    7  C   UNL     1     -40.809  55.666 -54.121  1.00  0.00     0.087 A 
HETATM    8  C   UNL     1     -40.960  55.414 -52.765  1.00  0.00     0.009 A 
HETATM    9  C   UNL     1     -40.532  54.690 -55.072  1.00  0.00     0.041 A 
HETATM   10  C   UNL     1     -40.826  54.084 -52.310  1.00  0.00     0.051 A 
HETATM   11  C   UNL     1     -41.243  56.676 -52.155  1.00  0.00    -0.009 A 
HETATM   12  C   UNL     1     -40.563  53.069 -53.240  1.00  0.00     0.069 A 
HETATM   13  C   UNL     1     -40.414  53.379 -54.597  1.00  0.00     0.039 A 
HETATM   14  C   UNL     1     -41.486  56.941 -50.713  1.00  0.00     0.052 C 
BRANCH  12  15
HETATM   15  O   UNL     1     -40.430  51.738 -52.948  1.00  0.00    -0.351 OA
BRANCH  15  16
HETATM   16  C   UNL     1     -39.380  51.027 -53.602  1.00  0.00     0.171 C 
HETATM   17  C   UNL     1     -40.000  49.882 -54.381  1.00  0.00     0.034 C 
ENDBRANCH  15  16
ENDBRANCH  12  15
ENDBRANCH   1   5
BRANCH   2  18
HETATM   18  C   UNL     1     -42.838  60.701 -51.809  1.00  0.00     0.089 C 
HETATM   19  C   UNL     1     -43.477  60.618 -50.416  1.00  0.00     0.063 C 
HETATM   20  C   UNL     1     -44.997  60.374 -50.406  1.00  0.00     0.121 C 
HETATM   21  C   UNL     1     -45.390  58.923 -50.702  1.00  0.00     0.046 C 
HETATM   22  C   UNL     1     -45.555  60.729 -49.012  1.00  0.00     0.046 C 
HETATM   23  N   UNL     1     -45.684  61.311 -51.376  1.00  0.00    -0.059 N 
HETATM   24  H   UNL     1     -45.740  62.234 -50.922  1.00  0.00     0.279 HD
HETATM   25  H   UNL     1     -46.668  61.022 -51.479  1.00  0.00     0.279 HD
HETATM   26  C   UNL     1     -45.106  61.537 -52.761  1.00  0.00     0.121 C 
HETATM   27  C   UNL     1     -45.749  62.841 -53.281  1.00  0.00     0.046 C 
HETATM   28  C   UNL     1     -45.537  60.409 -53.701  1.00  0.00     0.046 C 
HETATM   29  C   UNL     1     -43.593  61.744 -52.645  1.00  0.00     0.063 C 
ENDBRANCH   2  18
TORSDOF 4
ENDMDL
MODEL 6
REMARK VINA RESULT:      -7.3      2.107      2.711
REMARK  4 active torsions:
REMARK  status: ('A' for Active; 'I' for Inactive)
REMARK    1  A    between atoms: C_2  and  O_3 
REMARK    2  A    between atoms: O_3  and  C_4 
REMARK    3  A    between atoms: C_9  and  C_10 
REMARK       I    between atoms: C_10  and  N_11 
REMARK    4  A    between atoms: N_11  and  C_12 
ROOT
HETATM    1  C   UNL     1     -43.965  56.973 -52.449  1.00  0.00     0.276 C 
HETATM    2  N   UNL     1     -43.835  57.762 -53.585  1.00  0.00    -0.350 N 
HETATM    3  O   UNL     1     -44.764  57.236 -51.558  1.00  0.00    -0.265 OA
HETATM    4  H   UNL     1     -43.238  57.301 -54.272  1.00  0.00     0.163 HD
ENDROOT
BRANCH   1   5
HETATM    5  C   UNL     1     -43.067  55.836 -52.420  1.00  0.00     0.150 A 
HETATM    6  O   UNL     1     -42.234  55.696 -51.339  1.00  0.00    -0.304 OA
HETATM    7  C   UNL     1     -41.441  54.619 -51.577  1.00  0.00     0.087 A 
HETATM    8  C   UNL     1     -41.768  54.037 -52.793  1.00  0.00     0.009 A 
HETATM    9  C   UNL     1     -40.433  54.161 -50.736  1.00  0.00     0.041 A 
HETATM   10  C   UNL     1     -41.035  52.906 -53.215  1.00  0.00     0.051 A 
HETATM   11  C   UNL     1     -42.838  54.815 -53.332  1.00  0.00    -0.009 A 
HETATM   12  C   UNL     1     -39.999  52.423 -52.403  1.00  0.00     0.069 A 
HETATM   13  C   UNL     1     -39.715  53.045 -51.181  1.00  0.00     0.039 A 
HETATM   14  C   UNL     1     -43.544  54.599 -54.622  1.00  0.00     0.052 C 
BRANCH  12  15
HETATM   15  O   UNL     1     -39.194  51.355 -52.692  1.00  0.00    -0.351 OA
BRANCH  15  16
HETATM   16  C   UNL     1     -39.834  50.124 -53.026  1.00  0.00     0.171 C 
HETATM   17  C   UNL     1     -39.557  49.832 -54.490  1.00  0.00     0.034 C 
ENDBRANCH  15  16
ENDBRANCH  12  15
ENDBRANCH   1   5
BRANCH   2  18
HETATM   18  C   UNL     1     -44.884  58.622 -54.117  1.00  0.00     0.089 C 
HETATM   19  C   UNL     1     -45.400  58.087 -55.461  1.00  0.00     0.063 C 
HETATM   20  C   UNL     1     -44.508  58.401 -56.676  1.00  0.00     0.121 C 
HETATM   21  C   UNL     1     -43.261  57.517 -56.771  1.00  0.00     0.046 C 
HETATM   22  C   UNL     1     -45.325  58.189 -57.968  1.00  0.00     0.046 C 
HETATM   23  N   UNL     1     -44.115  59.863 -56.672  1.00  0.00    -0.059 N 
HETATM   24  H   UNL     1     -44.924  60.399 -57.016  1.00  0.00     0.279 HD
HETATM   25  H   UNL     1     -43.390  60.015 -57.389  1.00  0.00     0.279 HD
HETATM   26  C   UNL     1     -43.661  60.529 -55.386  1.00  0.00     0.121 C 
HETATM   27  C   UNL     1     -43.792  62.048 -55.628  1.00  0.00     0.046 C 
HETATM   28  C   UNL     1     -42.180  60.233 -55.136  1.00  0.00     0.046 C 
HETATM   29  C   UNL     1     -44.605  60.125 -54.251  1.00  0.00     0.063 C 
ENDBRANCH   2  18
TORSDOF 4
ENDMDL
MODEL 7
REMARK VINA RESULT:      -7.3      2.357      3.317
REMARK  4 active torsions:
REMARK  status: ('A' for Active; 'I' for Inactive)
REMARK    1  A    between atoms: C_2  and  O_3 
REMARK    2  A    between atoms: O_3  and  C_4 
REMARK    3  A    between atoms: C_9  and  C_10 
REMARK       I    between atoms: C_10  and  N_11 
REMARK    4  A    between atoms: N_11  and  C_12 
ROOT
HETATM    1  C   UNL     1     -43.735  56.956 -52.586  1.00  0.00     0.276 C 
HETATM    2  N   UNL     1     -43.689  57.792 -53.695  1.00  0.00    -0.350 N 
HETATM    3  O   UNL     1     -44.514  57.142 -51.658  1.00  0.00    -0.265 OA
HETATM    4  H   UNL     1     -43.095  57.389 -54.419  1.00  0.00     0.163 HD
ENDROOT
BRANCH   1   5
HETATM    5  C   UNL     1     -42.778  55.869 -52.632  1.00  0.00     0.150 A 
HETATM    6  O   UNL     1     -42.767  55.062 -53.740  1.00  0.00    -0.304 OA
HETATM    7  C   UNL     1     -41.855  54.080 -53.517  1.00  0.00     0.087 A 
HETATM    8  C   UNL     1     -41.249  54.255 -52.281  1.00  0.00     0.009 A 
HETATM    9  C   UNL     1     -41.568  53.035 -54.388  1.00  0.00     0.041 A 
HETATM   10  C   UNL     1     -40.277  53.317 -51.870  1.00  0.00     0.051 A 
HETATM   11  C   UNL     1     -41.834  55.430 -51.714  1.00  0.00    -0.009 A 
HETATM   12  C   UNL     1     -39.972  52.239 -52.712  1.00  0.00     0.069 A 
HETATM   13  C   UNL     1     -40.609  52.113 -53.953  1.00  0.00     0.039 A 
HETATM   14  C   UNL     1     -41.522  56.041 -50.396  1.00  0.00     0.052 C 
BRANCH  12  15
HETATM   15  O   UNL     1     -39.072  51.245 -52.437  1.00  0.00    -0.351 OA
BRANCH  15  16
HETATM   16  C   UNL     1     -39.593  49.936 -52.208  1.00  0.00     0.171 C 
HETATM   17  C   UNL     1     -39.773  49.757 -50.711  1.00  0.00     0.034 C 
ENDBRANCH  15  16
ENDBRANCH  12  15
ENDBRANCH   1   5
BRANCH   2  18
HETATM   18  C   UNL     1     -44.801  58.612 -54.157  1.00  0.00     0.089 C 
HETATM   19  C   UNL     1     -45.426  58.020 -55.428  1.00  0.00     0.063 C 
HETATM   20  C   UNL     1     -44.657  58.307 -56.730  1.00  0.00     0.121 C 
HETATM   21  C   UNL     1     -43.404  57.443 -56.910  1.00  0.00     0.046 C 
HETATM   22  C   UNL     1     -45.584  58.034 -57.934  1.00  0.00     0.046 C 
HETATM   23  N   UNL     1     -44.296  59.775 -56.812  1.00  0.00    -0.059 N 
HETATM   24  H   UNL     1     -45.145  60.283 -57.098  1.00  0.00     0.279 HD
HETATM   25  H   UNL     1     -43.644  59.915 -57.598  1.00  0.00     0.279 HD
HETATM   26  C   UNL     1     -43.741  60.495 -55.597  1.00  0.00     0.121 C 
HETATM   27  C   UNL     1     -43.927  62.002 -55.877  1.00  0.00     0.046 C 
HETATM   28  C   UNL     1     -42.238  60.236 -55.475  1.00  0.00     0.046 C 
HETATM   29  C   UNL     1     -44.569  60.114 -54.366  1.00  0.00     0.063 C 
ENDBRANCH   2  18
TORSDOF 4
ENDMDL
MODEL 8
REMARK VINA RESULT:      -7.1      3.783      5.117
REMARK  4 active torsions:
REMARK  status: ('A' for Active; 'I' for Inactive)
REMARK    1  A    between atoms: C_2  and  O_3 
REMARK    2  A    between atoms: O_3  and  C_4 
REMARK    3  A    between atoms: C_9  and  C_10 
REMARK       I    between atoms: C_10  and  N_11 
REMARK    4  A    between atoms: N_11  and  C_12 
ROOT
HETATM    1  C   UNL     1     -44.262  56.969 -55.083  1.00  0.00     0.276 C 
HETATM    2  N   UNL     1     -43.818  57.430 -56.316  1.00  0.00    -0.350 N 
HETATM    3  O   UNL     1     -45.272  57.409 -54.545  1.00  0.00    -0.265 OA
HETATM    4  H   UNL     1     -43.061  56.842 -56.665  1.00  0.00     0.163 HD
ENDROOT
BRANCH   1   5
HETATM    5  C   UNL     1     -43.419  55.943 -54.504  1.00  0.00     0.150 A 
HETATM    6  O   UNL     1     -42.769  56.227 -53.329  1.00  0.00    -0.304 OA
HETATM    7  C   UNL     1     -41.986  55.157 -53.032  1.00  0.00     0.087 A 
HETATM    8  C   UNL     1     -42.140  54.164 -53.990  1.00  0.00     0.009 A 
HETATM    9  C   UNL     1     -41.137  55.061 -51.935  1.00  0.00     0.041 A 
HETATM   10  C   UNL     1     -41.389  52.976 -53.852  1.00  0.00     0.051 A 
HETATM   11  C   UNL     1     -43.087  54.667 -54.936  1.00  0.00    -0.009 A 
HETATM   12  C   UNL     1     -40.509  52.848 -52.769  1.00  0.00     0.069 A 
HETATM   13  C   UNL     1     -40.397  53.878 -51.827  1.00  0.00     0.039 A 
HETATM   14  C   UNL     1     -43.590  53.979 -56.153  1.00  0.00     0.052 C 
BRANCH  12  15
HETATM   15  O   UNL     1     -39.706  51.768 -52.521  1.00  0.00    -0.351 OA
BRANCH  15  16
HETATM   16  C   UNL     1     -39.522  50.831 -53.581  1.00  0.00     0.171 C 
HETATM   17  C   UNL     1     -39.498  49.438 -52.980  1.00  0.00     0.034 C 
ENDBRANCH  15  16
ENDBRANCH  12  15
ENDBRANCH   1   5
BRANCH   2  18
HETATM   18  C   UNL     1     -44.672  58.045 -57.324  1.00  0.00     0.089 C 
HETATM   19  C   UNL     1     -45.030  57.036 -58.425  1.00  0.00     0.063 C 
HETATM   20  C   UNL     1     -43.934  56.801 -59.479  1.00  0.00     0.121 C 
HETATM   21  C   UNL     1     -42.791  55.904 -58.991  1.00  0.00     0.046 C 
HETATM   22  C   UNL     1     -44.560  56.121 -60.715  1.00  0.00     0.046 C 
HETATM   23  N   UNL     1     -43.387  58.125 -59.970  1.00  0.00    -0.059 N 
HETATM   24  H   UNL     1     -44.070  58.509 -60.638  1.00  0.00     0.279 HD
HETATM   25  H   UNL     1     -42.549  57.948 -60.543  1.00  0.00     0.279 HD
HETATM   26  C   UNL     1     -43.066  59.232 -58.984  1.00  0.00     0.121 C 
HETATM   27  C   UNL     1     -42.991  60.531 -59.816  1.00  0.00     0.046 C 
HETATM   28  C   UNL     1     -41.683  59.004 -58.370  1.00  0.00     0.046 C 
HETATM   29  C   UNL     1     -44.213  59.356 -57.976  1.00  0.00     0.063 C 
ENDBRANCH   2  18
TORSDOF 4
ENDMDL
MODEL 9
REMARK VINA RESULT:      -7.1      2.242      3.353
REMARK  4 active torsions:
REMARK  status: ('A' for Active; 'I' for Inactive)
REMARK    1  A    between atoms: C_2  and  O_3 
REMARK    2  A    between atoms: O_3  and  C_4 
REMARK    3  A    between atoms: C_9  and  C_10 
REMARK       I    between atoms: C_10  and  N_11 
REMARK    4  A    between atoms: N_11  and  C_12 
ROOT
HETATM    1  C   UNL     1     -41.496  58.874 -52.137  1.00  0.00     0.276 C 
HETATM    2  N   UNL     1     -42.615  59.505 -51.608  1.00  0.00    -0.350 N 
HETATM    3  O   UNL     1     -40.714  59.448 -52.886  1.00  0.00    -0.265 OA
HETATM    4  H   UNL     1     -43.050  58.920 -50.895  1.00  0.00     0.163 HD
ENDROOT
BRANCH   1   5
HETATM    5  C   UNL     1     -41.358  57.490 -51.731  1.00  0.00     0.150 A 
HETATM    6  O   UNL     1     -41.412  57.200 -50.392  1.00  0.00    -0.304 OA
HETATM    7  C   UNL     1     -41.177  55.869 -50.257  1.00  0.00     0.087 A 
HETATM    8  C   UNL     1     -40.997  55.281 -51.501  1.00  0.00     0.009 A 
HETATM    9  C   UNL     1     -41.111  55.180 -49.050  1.00  0.00     0.041 A 
HETATM   10  C   UNL     1     -40.727  53.896 -51.558  1.00  0.00     0.051 A 
HETATM   11  C   UNL     1     -41.134  56.331 -52.461  1.00  0.00    -0.009 A 
HETATM   12  C   UNL     1     -40.636  53.170 -50.362  1.00  0.00     0.069 A 
HETATM   13  C   UNL     1     -40.833  53.811 -49.132  1.00  0.00     0.039 A 
HETATM   14  C   UNL     1     -41.028  56.215 -53.939  1.00  0.00     0.052 C 
BRANCH  12  15
HETATM   15  O   UNL     1     -40.360  51.834 -50.261  1.00  0.00    -0.351 OA
BRANCH  15  16
HETATM   16  C   UNL     1     -39.723  51.211 -51.376  1.00  0.00     0.171 C 
HETATM   17  C   UNL     1     -39.544  49.739 -51.054  1.00  0.00     0.034 C 
ENDBRANCH  15  16
ENDBRANCH  12  15
ENDBRANCH   1   5
BRANCH   2  18
HETATM   18  C   UNL     1     -42.740  60.945 -51.423  1.00  0.00     0.089 C 
HETATM   19  C   UNL     1     -43.488  61.266 -50.122  1.00  0.00     0.063 C 
HETATM   20  C   UNL     1     -45.020  61.129 -50.197  1.00  0.00     0.121 C 
HETATM   21  C   UNL     1     -45.513  59.679 -50.156  1.00  0.00     0.046 C 
HETATM   22  C   UNL     1     -45.651  61.867 -48.997  1.00  0.00     0.046 C 
HETATM   23  N   UNL     1     -45.547  61.826 -51.433  1.00  0.00    -0.059 N 
HETATM   24  H   UNL     1     -45.559  62.837 -51.233  1.00  0.00     0.279 HD
HETATM   25  H   UNL     1     -46.542  61.584 -51.554  1.00  0.00     0.279 HD
HETATM   26  C   UNL     1     -44.847  61.650 -52.768  1.00  0.00     0.121 C 
HETATM   27  C   UNL     1     -45.334  62.815 -53.658  1.00  0.00     0.046 C 
HETATM   28  C   UNL     1     -45.301  60.348 -53.431  1.00  0.00     0.046 C 
HETATM   29  C   UNL     1     -43.335  61.783 -52.563  1.00  0.00     0.063 C 
ENDBRANCH   2  18
TORSDOF 4
ENDMDL
MODEL 10
REMARK VINA RESULT:      -7.0      1.528      2.373
REMARK  4 active torsions:
REMARK  status: ('A' for Active; 'I' for Inactive)
REMARK    1  A    between atoms: C_2  and  O_3 
REMARK    2  A    between atoms: O_3  and  C_4 
REMARK    3  A    between atoms: C_9  and  C_10 
REMARK       I    between atoms: C_10  and  N_11 
REMARK    4  A    between atoms: N_11  and  C_12 
ROOT
HETATM    1  C   UNL     1     -43.911  57.116 -53.543  1.00  0.00     0.276 C 
HETATM    2  N   UNL     1     -43.398  58.311 -53.057  1.00  0.00    -0.350 N 
HETATM    3  O   UNL     1     -45.007  57.047 -54.088  1.00  0.00    -0.265 OA
HETATM    4  H   UNL     1     -42.422  58.195 -52.783  1.00  0.00     0.163 HD
ENDROOT
BRANCH   1   5
HETATM    5  C   UNL     1     -43.041  55.976 -53.333  1.00  0.00     0.150 A 
HETATM    6  O   UNL     1     -42.469  55.817 -52.097  1.00  0.00    -0.304 OA
HETATM    7  C   UNL     1     -41.642  54.742 -52.169  1.00  0.00     0.087 A 
HETATM    8  C   UNL     1     -41.689  54.180 -53.438  1.00  0.00     0.009 A 
HETATM    9  C   UNL     1     -40.845  54.267 -51.132  1.00  0.00     0.041 A 
HETATM   10  C   UNL     1     -40.879  53.054 -53.704  1.00  0.00     0.051 A 
HETATM   11  C   UNL     1     -42.614  54.970 -54.189  1.00  0.00    -0.009 A 
HETATM   12  C   UNL     1     -40.050  52.556 -52.690  1.00  0.00     0.069 A 
HETATM   13  C   UNL     1     -40.045  53.157 -51.425  1.00  0.00     0.039 A 
HETATM   14  C   UNL     1     -43.014  54.777 -55.607  1.00  0.00     0.052 C 
BRANCH  12  15
HETATM   15  O   UNL     1     -39.199  51.491 -52.810  1.00  0.00    -0.351 OA
BRANCH  15  16
HETATM   16  C   UNL     1     -39.783  50.208 -53.029  1.00  0.00     0.171 C 
HETATM   17  C   UNL     1     -39.532  49.817 -54.474  1.00  0.00     0.034 C 
ENDBRANCH  15  16
ENDBRANCH  12  15
ENDBRANCH   1   5
BRANCH   2  18
HETATM   18  C   UNL     1     -43.776  59.631 -53.545  1.00  0.00     0.089 C 
HETATM   19  C   UNL     1     -42.907  60.721 -52.901  1.00  0.00     0.063 C 
HETATM   20  C   UNL     1     -43.312  61.120 -51.471  1.00  0.00     0.121 C 
HETATM   21  C   UNL     1     -42.883  60.109 -50.403  1.00  0.00     0.046 C 
HETATM   22  C   UNL     1     -42.654  62.472 -51.119  1.00  0.00     0.046 C 
HETATM   23  N   UNL     1     -44.806  61.357 -51.396  1.00  0.00    -0.059 N 
HETATM   24  H   UNL     1     -44.988  62.286 -51.802  1.00  0.00     0.279 HD
HETATM   25  H   UNL     1     -45.079  61.458 -50.407  1.00  0.00     0.279 HD
HETATM   26  C   UNL     1     -45.767  60.390 -52.061  1.00  0.00     0.121 C 
HETATM   27  C   UNL     1     -47.106  61.149 -52.195  1.00  0.00     0.046 C 
HETATM   28  C   UNL     1     -46.014  59.186 -51.150  1.00  0.00     0.046 C 
HETATM   29  C   UNL     1     -45.249  60.051 -53.462  1.00  0.00     0.063 C 
ENDBRANCH   2  18
TORSDOF 4
ENDMDL
