MODEL 1
REMARK VINA RESULT:      -8.1      0.000      0.000
REMARK  6 active torsions:
REMARK  status: ('A' for Active; 'I' for Inactive)
REMARK    1  A    between atoms: C_2  and  C_3 
REMARK    2  A    between atoms: C_3  and  C_4 
REMARK    3  A    between atoms: C_5  and  O_6 
REMARK    4  A    between atoms: C_7  and  C_8 
REMARK    5  A    between atoms: N_9  and  N_10 
REMARK       I    between atoms: N_10  and  C_11 
REMARK    6  A    between atoms: C_11  and  C_12 
ROOT
HETATM    1  N   UNL     1     -41.995  55.058 -56.472  1.00  0.00    -0.243 N 
HETATM    2  C   UNL     1     -42.832  56.156 -56.608  1.00  0.00     0.274 C 
HETATM    3  O   UNL     1     -43.483  56.646 -55.685  1.00  0.00    -0.266 OA
HETATM    4  H   UNL     1     -41.474  54.675 -57.246  1.00  0.00     0.192 HD
ENDROOT
BRANCH   1   5
HETATM    5  N   UNL     1     -41.882  54.451 -55.255  1.00  0.00    -0.183 NA
HETATM    6  C   UNL     1     -40.714  53.972 -54.968  1.00  0.00     0.153 C 
BRANCH   6   7
HETATM    7  C   UNL     1     -40.455  53.280 -53.686  1.00  0.00     0.017 A 
HETATM    8  C   UNL     1     -40.906  53.833 -52.478  1.00  0.00     0.084 A 
HETATM    9  C   UNL     1     -40.668  53.172 -51.259  1.00  0.00    -0.021 A 
HETATM   10  C   UNL     1     -39.945  51.965 -51.282  1.00  0.00     0.010 A 
HETATM   11  C   UNL     1     -39.488  51.421 -52.483  1.00  0.00     0.002 A 
HETATM   12  C   UNL     1     -39.746  52.074 -53.684  1.00  0.00     0.016 A 
BRANCH   8  13
HETATM   13  O   UNL     1     -41.581  55.025 -52.521  1.00  0.00    -0.359 OA
HETATM   14  H   UNL     1     -40.980  55.738 -52.250  1.00  0.00     0.218 HD
ENDBRANCH   8  13
BRANCH   9  15
HETATM   15  C   UNL     1     -41.167  53.688 -49.927  1.00  0.00     0.067 C 
BRANCH  15  16
HETATM   16  C   UNL     1     -40.050  54.029 -48.980  1.00  0.00    -0.032 C 
HETATM   17  C   UNL     1     -40.145  53.963 -47.644  1.00  0.00     0.007 C 
ENDBRANCH  15  16
ENDBRANCH   9  15
ENDBRANCH   6   7
ENDBRANCH   1   5
BRANCH   2  18
HETATM   18  C   UNL     1     -42.943  56.767 -57.972  1.00  0.00     0.061 A 
HETATM   19  C   UNL     1     -43.699  56.099 -58.958  1.00  0.00     0.058 A 
HETATM   20  C   UNL     1     -43.861  56.578 -60.257  1.00  0.00    -0.007 A 
HETATM   21  N   UNL     1     -44.402  54.913 -58.881  1.00  0.00    -0.364 N 
HETATM   22  C   UNL     1     -44.677  55.644 -60.954  1.00  0.00     0.030 A 
HETATM   23  C   UNL     1     -43.242  57.790 -60.614  1.00  0.00     0.014 A 
HETATM   24  C   UNL     1     -44.995  54.629 -60.080  1.00  0.00     0.089 A 
HETATM   25  C   UNL     1     -42.488  58.478 -59.659  1.00  0.00     0.002 A 
HETATM   26  C   UNL     1     -42.341  57.978 -58.362  1.00  0.00     0.019 A 
HETATM   27  H   UNL     1     -44.447  54.357 -58.032  1.00  0.00     0.165 HD
ENDBRANCH   2  18
TORSDOF 6
ENDMDL
MODEL 2
REMARK VINA RESULT:      -8.0      1.695      2.229
REMARK  6 active torsions:
REMARK  status: ('A' for Active; 'I' for Inactive)
REMARK    1  A    between atoms: C_2  and  C_3 
REMARK    2  A    between atoms: C_3  and  C_4 
REMARK    3  A    between atoms: C_5  and  O_6 
REMARK    4  A    between atoms: C_7  and  C_8 
REMARK    5  A    between atoms: N_9  and  N_10 
REMARK       I    between atoms: N_10  and  C_11 
REMARK    6  A    between atoms: C_11  and  C_12 
ROOT
HETATM    1  N   UNL     1     -43.215  54.748 -56.790  1.00  0.00    -0.243 N 
HETATM    2  C   UNL     1     -43.167  55.866 -57.610  1.00  0.00     0.274 C 
HETATM    3  O   UNL     1     -42.392  56.808 -57.446  1.00  0.00    -0.266 OA
HETATM    4  H   UNL     1     -43.863  53.989 -56.945  1.00  0.00     0.192 HD
ENDROOT
BRANCH   1   5
HETATM    5  N   UNL     1     -42.376  54.670 -55.716  1.00  0.00    -0.183 NA
HETATM    6  C   UNL     1     -42.389  53.549 -55.068  1.00  0.00     0.153 C 
BRANCH   6   7
HETATM    7  C   UNL     1     -41.535  53.333 -53.879  1.00  0.00     0.017 A 
HETATM    8  C   UNL     1     -41.659  54.166 -52.757  1.00  0.00     0.084 A 
HETATM    9  C   UNL     1     -40.854  53.957 -51.622  1.00  0.00    -0.021 A 
HETATM   10  C   UNL     1     -39.907  52.915 -51.655  1.00  0.00     0.010 A 
HETATM   11  C   UNL     1     -39.778  52.095 -52.776  1.00  0.00     0.002 A 
HETATM   12  C   UNL     1     -40.593  52.299 -53.886  1.00  0.00     0.016 A 
BRANCH   8  13
HETATM   13  O   UNL     1     -42.581  55.179 -52.798  1.00  0.00    -0.359 OA
HETATM   14  H   UNL     1     -43.381  54.896 -52.325  1.00  0.00     0.218 HD
ENDBRANCH   8  13
BRANCH   9  15
HETATM   15  C   UNL     1     -40.969  54.786 -50.362  1.00  0.00     0.067 C 
BRANCH  15  16
HETATM   16  C   UNL     1     -39.994  54.364 -49.297  1.00  0.00    -0.032 C 
HETATM   17  C   UNL     1     -40.342  54.005 -48.054  1.00  0.00     0.007 C 
ENDBRANCH  15  16
ENDBRANCH   9  15
ENDBRANCH   6   7
ENDBRANCH   1   5
BRANCH   2  18
HETATM   18  C   UNL     1     -44.130  55.915 -58.757  1.00  0.00     0.061 A 
HETATM   19  C   UNL     1     -45.180  56.856 -58.725  1.00  0.00     0.058 A 
HETATM   20  C   UNL     1     -46.132  56.980 -59.736  1.00  0.00    -0.007 A 
HETATM   21  N   UNL     1     -45.493  57.800 -57.767  1.00  0.00    -0.364 N 
HETATM   22  C   UNL     1     -47.022  58.022 -59.355  1.00  0.00     0.030 A 
HETATM   23  C   UNL     1     -46.049  56.127 -60.852  1.00  0.00     0.014 A 
HETATM   24  C   UNL     1     -46.603  58.509 -58.137  1.00  0.00     0.089 A 
HETATM   25  C   UNL     1     -45.018  55.185 -60.916  1.00  0.00     0.002 A 
HETATM   26  C   UNL     1     -44.075  55.081 -59.889  1.00  0.00     0.019 A 
HETATM   27  H   UNL     1     -44.949  57.920 -56.917  1.00  0.00     0.165 HD
ENDBRANCH   2  18
TORSDOF 6
ENDMDL
MODEL 3
REMARK VINA RESULT:      -8.0      1.528      8.891
REMARK  6 active torsions:
REMARK  status: ('A' for Active; 'I' for Inactive)
REMARK    1  A    between atoms: C_2  and  C_3 
REMARK    2  A    between atoms: C_3  and  C_4 
REMARK    3  A    between atoms: C_5  and  O_6 
REMARK    4  A    between atoms: C_7  and  C_8 
REMARK    5  A    between atoms: N_9  and  N_10 
REMARK       I    between atoms: N_10  and  C_11 
REMARK    6  A    between atoms: C_11  and  C_12 
ROOT
HETATM    1  N   UNL     1     -42.030  54.599 -54.834  1.00  0.00    -0.243 N 
HETATM    2  C   UNL     1     -40.781  54.151 -54.428  1.00  0.00     0.274 C 
HETATM    3  O   UNL     1     -39.809  54.047 -55.178  1.00  0.00    -0.266 OA
HETATM    4  H   UNL     1     -42.812  54.672 -54.199  1.00  0.00     0.192 HD
ENDROOT
BRANCH   1   5
HETATM    5  N   UNL     1     -42.228  54.932 -56.143  1.00  0.00    -0.183 NA
HETATM    6  C   UNL     1     -42.603  56.152 -56.365  1.00  0.00     0.153 C 
BRANCH   6   7
HETATM    7  C   UNL     1     -42.861  56.644 -57.735  1.00  0.00     0.017 A 
HETATM    8  C   UNL     1     -43.608  55.871 -58.637  1.00  0.00     0.084 A 
HETATM    9  C   UNL     1     -43.862  56.341 -59.938  1.00  0.00    -0.021 A 
HETATM   10  C   UNL     1     -43.324  57.586 -60.318  1.00  0.00     0.010 A 
HETATM   11  C   UNL     1     -42.572  58.348 -59.424  1.00  0.00     0.002 A 
HETATM   12  C   UNL     1     -42.344  57.882 -58.133  1.00  0.00     0.016 A 
BRANCH   8  13
HETATM   13  O   UNL     1     -44.082  54.656 -58.215  1.00  0.00    -0.359 OA
HETATM   14  H   UNL     1     -44.283  54.708 -57.266  1.00  0.00     0.218 HD
ENDBRANCH   8  13
BRANCH   9  15
HETATM   15  C   UNL     1     -44.700  55.582 -60.944  1.00  0.00     0.067 C 
BRANCH  15  16
HETATM   16  C   UNL     1     -46.177  55.730 -60.701  1.00  0.00    -0.032 C 
HETATM   17  C   UNL     1     -46.731  56.726 -59.996  1.00  0.00     0.007 C 
ENDBRANCH  15  16
ENDBRANCH   9  15
ENDBRANCH   6   7
ENDBRANCH   1   5
BRANCH   2  18
HETATM   18  C   UNL     1     -40.625  53.769 -52.988  1.00  0.00     0.061 A 
HETATM   19  C   UNL     1     -40.188  52.465 -52.673  1.00  0.00     0.058 A 
HETATM   20  C   UNL     1     -40.016  52.007 -51.367  1.00  0.00    -0.007 A 
HETATM   21  N   UNL     1     -39.853  51.418 -53.509  1.00  0.00    -0.364 N 
HETATM   22  C   UNL     1     -39.571  50.658 -51.446  1.00  0.00     0.030 A 
HETATM   23  C   UNL     1     -40.290  52.883 -50.301  1.00  0.00     0.014 A 
HETATM   24  C   UNL     1     -39.480  50.323 -52.779  1.00  0.00     0.089 A 
HETATM   25  C   UNL     1     -40.723  54.183 -50.580  1.00  0.00     0.002 A 
HETATM   26  C   UNL     1     -40.887  54.619 -51.898  1.00  0.00     0.019 A 
HETATM   27  H   UNL     1     -39.891  51.491 -54.521  1.00  0.00     0.165 HD
ENDBRANCH   2  18
TORSDOF 6
ENDMDL
MODEL 4
REMARK VINA RESULT:      -7.8      1.948      3.075
REMARK  6 active torsions:
REMARK  status: ('A' for Active; 'I' for Inactive)
REMARK    1  A    between atoms: C_2  and  C_3 
REMARK    2  A    between atoms: C_3  and  C_4 
REMARK    3  A    between atoms: C_5  and  O_6 
REMARK    4  A    between atoms: C_7  and  C_8 
REMARK    5  A    between atoms: N_9  and  N_10 
REMARK       I    between atoms: N_10  and  C_11 
REMARK    6  A    between atoms: C_11  and  C_12 
ROOT
HETATM    1  N   UNL     1     -43.228  54.719 -56.868  1.00  0.00    -0.243 N 
HETATM    2  C   UNL     1     -43.210  55.833 -57.695  1.00  0.00     0.274 C 
HETATM    3  O   UNL     1     -42.477  56.808 -57.522  1.00  0.00    -0.266 OA
HETATM    4  H   UNL     1     -43.841  53.934 -57.030  1.00  0.00     0.192 HD
ENDROOT
BRANCH   1   5
HETATM    5  N   UNL     1     -42.408  54.683 -55.777  1.00  0.00    -0.183 NA
HETATM    6  C   UNL     1     -42.926  54.192 -54.696  1.00  0.00     0.153 C 
BRANCH   6   7
HETATM    7  C   UNL     1     -42.151  54.103 -53.439  1.00  0.00     0.017 A 
HETATM    8  C   UNL     1     -41.195  53.091 -53.266  1.00  0.00     0.084 A 
HETATM    9  C   UNL     1     -40.452  53.009 -52.075  1.00  0.00    -0.021 A 
HETATM   10  C   UNL     1     -40.713  53.946 -51.057  1.00  0.00     0.010 A 
HETATM   11  C   UNL     1     -41.672  54.945 -51.226  1.00  0.00     0.002 A 
HETATM   12  C   UNL     1     -42.387  55.028 -52.417  1.00  0.00     0.016 A 
BRANCH   8  13
HETATM   13  O   UNL     1     -41.007  52.193 -54.284  1.00  0.00    -0.359 OA
HETATM   14  H   UNL     1     -41.488  51.375 -54.077  1.00  0.00     0.218 HD
ENDBRANCH   8  13
BRANCH   9  15
HETATM   15  C   UNL     1     -39.373  51.974 -51.841  1.00  0.00     0.067 C 
BRANCH  15  16
HETATM   16  C   UNL     1     -39.813  50.874 -50.914  1.00  0.00    -0.032 C 
HETATM   17  C   UNL     1     -39.765  49.569 -51.214  1.00  0.00     0.007 C 
ENDBRANCH  15  16
ENDBRANCH   9  15
ENDBRANCH   6   7
ENDBRANCH   1   5
BRANCH   2  18
HETATM   18  C   UNL     1     -44.151  55.836 -58.860  1.00  0.00     0.061 A 
HETATM   19  C   UNL     1     -45.194  56.785 -58.891  1.00  0.00     0.058 A 
HETATM   20  C   UNL     1     -46.126  56.868 -59.925  1.00  0.00    -0.007 A 
HETATM   21  N   UNL     1     -45.517  57.775 -57.984  1.00  0.00    -0.364 N 
HETATM   22  C   UNL     1     -47.015  57.934 -59.609  1.00  0.00     0.030 A 
HETATM   23  C   UNL     1     -46.030  55.964 -60.998  1.00  0.00     0.014 A 
HETATM   24  C   UNL     1     -46.614  58.473 -58.407  1.00  0.00     0.089 A 
HETATM   25  C   UNL     1     -45.005  55.013 -60.999  1.00  0.00     0.002 A 
HETATM   26  C   UNL     1     -44.082  54.950 -59.951  1.00  0.00     0.019 A 
HETATM   27  H   UNL     1     -44.987  57.931 -57.131  1.00  0.00     0.165 HD
ENDBRANCH   2  18
TORSDOF 6
ENDMDL
MODEL 5
REMARK VINA RESULT:      -7.8      1.904      9.199
REMARK  6 active torsions:
REMARK  status: ('A' for Active; 'I' for Inactive)
REMARK    1  A    between atoms: C_2  and  C_3 
REMARK    2  A    between atoms: C_3  and  C_4 
REMARK    3  A    between atoms: C_5  and  O_6 
REMARK    4  A    between atoms: C_7  and  C_8 
REMARK    5  A    between atoms: N_9  and  N_10 
REMARK       I    between atoms: N_10  and  C_11 
REMARK    6  A    between atoms: C_11  and  C_12 
ROOT
HETATM    1  N   UNL     1     -41.415  55.042 -55.559  1.00  0.00    -0.243 N 
HETATM    2  C   UNL     1     -42.003  54.353 -54.509  1.00  0.00     0.274 C 
HETATM    3  O   UNL     1     -43.190  54.455 -54.196  1.00  0.00    -0.266 OA
HETATM    4  H   UNL     1     -40.438  54.943 -55.793  1.00  0.00     0.192 HD
ENDROOT
BRANCH   1   5
HETATM    5  N   UNL     1     -42.170  55.909 -56.296  1.00  0.00    -0.183 NA
HETATM    6  C   UNL     1     -42.703  55.422 -57.371  1.00  0.00     0.153 C 
BRANCH   6   7
HETATM    7  C   UNL     1     -43.537  56.254 -58.266  1.00  0.00     0.017 A 
HETATM    8  C   UNL     1     -44.413  55.652 -59.181  1.00  0.00     0.084 A 
HETATM    9  C   UNL     1     -45.214  56.442 -60.026  1.00  0.00    -0.021 A 
HETATM   10  C   UNL     1     -45.089  57.842 -59.951  1.00  0.00     0.010 A 
HETATM   11  C   UNL     1     -44.208  58.439 -59.048  1.00  0.00     0.002 A 
HETATM   12  C   UNL     1     -43.436  57.648 -58.203  1.00  0.00     0.016 A 
BRANCH   8  13
HETATM   13  O   UNL     1     -44.469  54.283 -59.224  1.00  0.00    -0.359 OA
HETATM   14  H   UNL     1     -44.108  53.926 -58.396  1.00  0.00     0.218 HD
ENDBRANCH   8  13
BRANCH   9  15
HETATM   15  C   UNL     1     -46.214  55.860 -61.001  1.00  0.00     0.067 C 
BRANCH  15  16
HETATM   16  C   UNL     1     -47.547  56.553 -60.950  1.00  0.00    -0.032 C 
HETATM   17  C   UNL     1     -48.274  56.875 -62.029  1.00  0.00     0.007 C 
ENDBRANCH  15  16
ENDBRANCH   9  15
ENDBRANCH   6   7
ENDBRANCH   1   5
BRANCH   2  18
HETATM   18  C   UNL     1     -41.124  53.437 -53.713  1.00  0.00     0.061 A 
HETATM   19  C   UNL     1     -40.824  53.772 -52.376  1.00  0.00     0.058 A 
HETATM   20  C   UNL     1     -40.012  52.993 -51.553  1.00  0.00    -0.007 A 
HETATM   21  N   UNL     1     -41.227  54.859 -51.625  1.00  0.00    -0.364 N 
HETATM   22  C   UNL     1     -39.941  53.646 -50.290  1.00  0.00     0.030 A 
HETATM   23  C   UNL     1     -39.459  51.809 -52.072  1.00  0.00     0.014 A 
HETATM   24  C   UNL     1     -40.699  54.792 -50.365  1.00  0.00     0.089 A 
HETATM   25  C   UNL     1     -39.739  51.447 -53.393  1.00  0.00     0.002 A 
HETATM   26  C   UNL     1     -40.557  52.245 -54.199  1.00  0.00     0.019 A 
HETATM   27  H   UNL     1     -41.833  55.586 -51.994  1.00  0.00     0.165 HD
ENDBRANCH   2  18
TORSDOF 6
ENDMDL
MODEL 6
REMARK VINA RESULT:      -7.7      5.667      7.490
REMARK  6 active torsions:
REMARK  status: ('A' for Active; 'I' for Inactive)
REMARK    1  A    between atoms: C_2  and  C_3 
REMARK    2  A    between atoms: C_3  and  C_4 
REMARK    3  A    between atoms: C_5  and  O_6 
REMARK    4  A    between atoms: C_7  and  C_8 
REMARK    5  A    between atoms: N_9  and  N_10 
REMARK       I    between atoms: N_10  and  C_11 
REMARK    6  A    between atoms: C_11  and  C_12 
ROOT
HETATM    1  N   UNL     1     -43.598  58.062 -51.781  1.00  0.00    -0.243 N 
HETATM    2  C   UNL     1     -44.864  58.306 -51.268  1.00  0.00     0.274 C 
HETATM    3  O   UNL     1     -45.595  57.435 -50.793  1.00  0.00    -0.266 OA
HETATM    4  H   UNL     1     -43.020  58.794 -52.167  1.00  0.00     0.192 HD
ENDROOT
BRANCH   1   5
HETATM    5  N   UNL     1     -43.116  56.785 -51.793  1.00  0.00    -0.183 NA
HETATM    6  C   UNL     1     -41.841  56.661 -51.600  1.00  0.00     0.153 C 
BRANCH   6   7
HETATM    7  C   UNL     1     -41.186  55.335 -51.597  1.00  0.00     0.017 A 
HETATM    8  C   UNL     1     -41.122  54.572 -52.773  1.00  0.00     0.084 A 
HETATM    9  C   UNL     1     -40.492  53.315 -52.775  1.00  0.00    -0.021 A 
HETATM   10  C   UNL     1     -39.957  52.833 -51.565  1.00  0.00     0.010 A 
HETATM   11  C   UNL     1     -40.031  53.587 -50.393  1.00  0.00     0.002 A 
HETATM   12  C   UNL     1     -40.640  54.838 -50.409  1.00  0.00     0.016 A 
BRANCH   8  13
HETATM   13  O   UNL     1     -41.685  55.086 -53.913  1.00  0.00    -0.359 OA
HETATM   14  H   UNL     1     -42.624  54.838 -53.941  1.00  0.00     0.218 HD
ENDBRANCH   8  13
BRANCH   9  15
HETATM   15  C   UNL     1     -40.345  52.464 -54.016  1.00  0.00     0.067 C 
BRANCH  15  16
HETATM   16  C   UNL     1     -39.550  51.211 -53.773  1.00  0.00    -0.032 C 
HETATM   17  C   UNL     1     -39.900  49.995 -54.216  1.00  0.00     0.007 C 
ENDBRANCH  15  16
ENDBRANCH   9  15
ENDBRANCH   6   7
ENDBRANCH   1   5
BRANCH   2  18
HETATM   18  C   UNL     1     -45.358  59.719 -51.306  1.00  0.00     0.061 A 
HETATM   19  C   UNL     1     -45.522  60.417 -50.091  1.00  0.00     0.058 A 
HETATM   20  C   UNL     1     -45.980  61.732 -50.016  1.00  0.00    -0.007 A 
HETATM   21  N   UNL     1     -45.288  60.002 -48.794  1.00  0.00    -0.364 N 
HETATM   22  C   UNL     1     -46.015  62.090 -48.639  1.00  0.00     0.030 A 
HETATM   23  C   UNL     1     -46.298  62.407 -51.208  1.00  0.00     0.014 A 
HETATM   24  C   UNL     1     -45.583  61.004 -47.911  1.00  0.00     0.089 A 
HETATM   25  C   UNL     1     -46.144  61.745 -52.429  1.00  0.00     0.002 A 
HETATM   26  C   UNL     1     -45.682  60.426 -52.479  1.00  0.00     0.019 A 
HETATM   27  H   UNL     1     -44.944  59.073 -48.570  1.00  0.00     0.165 HD
ENDBRANCH   2  18
TORSDOF 6
ENDMDL
MODEL 7
REMARK VINA RESULT:      -7.5      2.489      3.549
REMARK  6 active torsions:
REMARK  status: ('A' for Active; 'I' for Inactive)
REMARK    1  A    between atoms: C_2  and  C_3 
REMARK    2  A    between atoms: C_3  and  C_4 
REMARK    3  A    between atoms: C_5  and  O_6 
REMARK    4  A    between atoms: C_7  and  C_8 
REMARK    5  A    between atoms: N_9  and  N_10 
REMARK       I    between atoms: N_10  and  C_11 
REMARK    6  A    between atoms: C_11  and  C_12 
ROOT
HETATM    1  N   UNL     1     -44.250  56.994 -55.974  1.00  0.00    -0.243 N 
HETATM    2  C   UNL     1     -44.019  57.220 -57.323  1.00  0.00     0.274 C 
HETATM    3  O   UNL     1     -43.032  56.807 -57.933  1.00  0.00    -0.266 OA
HETATM    4  H   UNL     1     -45.066  57.346 -55.497  1.00  0.00     0.192 HD
ENDROOT
BRANCH   1   5
HETATM    5  N   UNL     1     -43.332  56.291 -55.248  1.00  0.00    -0.183 NA
HETATM    6  C   UNL     1     -43.811  55.537 -54.310  1.00  0.00     0.153 C 
BRANCH   6   7
HETATM    7  C   UNL     1     -42.928  54.728 -53.442  1.00  0.00     0.017 A 
HETATM    8  C   UNL     1     -41.891  53.965 -53.999  1.00  0.00     0.084 A 
HETATM    9  C   UNL     1     -41.045  53.202 -53.174  1.00  0.00    -0.021 A 
HETATM   10  C   UNL     1     -41.284  53.202 -51.786  1.00  0.00     0.010 A 
HETATM   11  C   UNL     1     -42.323  53.952 -51.234  1.00  0.00     0.002 A 
HETATM   12  C   UNL     1     -43.141  54.719 -52.059  1.00  0.00     0.016 A 
BRANCH   8  13
HETATM   13  O   UNL     1     -41.726  53.987 -55.359  1.00  0.00    -0.359 OA
HETATM   14  H   UNL     1     -41.111  54.701 -55.591  1.00  0.00     0.218 HD
ENDBRANCH   8  13
BRANCH   9  15
HETATM   15  C   UNL     1     -39.879  52.395 -53.703  1.00  0.00     0.067 C 
BRANCH  15  16
HETATM   16  C   UNL     1     -40.299  51.063 -54.261  1.00  0.00    -0.032 C 
HETATM   17  C   UNL     1     -39.544  49.956 -54.224  1.00  0.00     0.007 C 
ENDBRANCH  15  16
ENDBRANCH   9  15
ENDBRANCH   6   7
ENDBRANCH   1   5
BRANCH   2  18
HETATM   18  C   UNL     1     -45.042  58.023 -58.067  1.00  0.00     0.061 A 
HETATM   19  C   UNL     1     -45.805  57.392 -59.072  1.00  0.00     0.058 A 
HETATM   20  C   UNL     1     -46.776  58.048 -59.826  1.00  0.00    -0.007 A 
HETATM   21  N   UNL     1     -45.776  56.083 -59.514  1.00  0.00    -0.364 N 
HETATM   22  C   UNL     1     -47.325  57.097 -60.730  1.00  0.00     0.030 A 
HETATM   23  C   UNL     1     -47.017  59.412 -59.579  1.00  0.00     0.014 A 
HETATM   24  C   UNL     1     -46.689  55.895 -60.514  1.00  0.00     0.089 A 
HETATM   25  C   UNL     1     -46.280  60.067 -58.588  1.00  0.00     0.002 A 
HETATM   26  C   UNL     1     -45.312  59.386 -57.845  1.00  0.00     0.019 A 
HETATM   27  H   UNL     1     -45.148  55.386 -59.123  1.00  0.00     0.165 HD
ENDBRANCH   2  18
TORSDOF 6
ENDMDL
MODEL 8
REMARK VINA RESULT:      -7.5      1.865      8.722
REMARK  6 active torsions:
REMARK  status: ('A' for Active; 'I' for Inactive)
REMARK    1  A    between atoms: C_2  and  C_3 
REMARK    2  A    between atoms: C_3  and  C_4 
REMARK    3  A    between atoms: C_5  and  O_6 
REMARK    4  A    between atoms: C_7  and  C_8 
REMARK    5  A    between atoms: N_9  and  N_10 
REMARK       I    between atoms: N_10  and  C_11 
REMARK    6  A    between atoms: C_11  and  C_12 
ROOT
HETATM    1  N   UNL     1     -42.473  54.319 -54.499  1.00  0.00    -0.243 N 
HETATM    2  C   UNL     1     -41.140  53.933 -54.492  1.00  0.00     0.274 C 
HETATM    3  O   UNL     1     -40.347  54.176 -55.402  1.00  0.00    -0.266 OA
HETATM    4  H   UNL     1     -43.103  54.105 -53.741  1.00  0.00     0.192 HD
ENDROOT
BRANCH   1   5
HETATM    5  N   UNL     1     -42.967  54.993 -55.579  1.00  0.00    -0.183 NA
HETATM    6  C   UNL     1     -43.166  56.262 -55.410  1.00  0.00     0.153 C 
BRANCH   6   7
HETATM    7  C   UNL     1     -43.707  57.110 -56.494  1.00  0.00     0.017 A 
HETATM    8  C   UNL     1     -43.210  56.994 -57.801  1.00  0.00     0.084 A 
HETATM    9  C   UNL     1     -43.730  57.793 -58.835  1.00  0.00    -0.021 A 
HETATM   10  C   UNL     1     -44.733  58.729 -58.519  1.00  0.00     0.010 A 
HETATM   11  C   UNL     1     -45.219  58.852 -57.217  1.00  0.00     0.002 A 
HETATM   12  C   UNL     1     -44.710  58.041 -56.206  1.00  0.00     0.016 A 
BRANCH   8  13
HETATM   13  O   UNL     1     -42.214  56.082 -58.039  1.00  0.00    -0.359 OA
HETATM   14  H   UNL     1     -42.029  56.059 -58.992  1.00  0.00     0.218 HD
ENDBRANCH   8  13
BRANCH   9  15
HETATM   15  C   UNL     1     -43.274  57.685 -60.274  1.00  0.00     0.067 C 
BRANCH  15  16
HETATM   16  C   UNL     1     -42.042  58.500 -60.557  1.00  0.00    -0.032 C 
HETATM   17  C   UNL     1     -42.057  59.789 -60.922  1.00  0.00     0.007 C 
ENDBRANCH  15  16
ENDBRANCH   9  15
ENDBRANCH   6   7
ENDBRANCH   1   5
BRANCH   2  18
HETATM   18  C   UNL     1     -40.655  53.170 -53.297  1.00  0.00     0.061 A 
HETATM   19  C   UNL     1     -40.257  51.827 -53.463  1.00  0.00     0.058 A 
HETATM   20  C   UNL     1     -39.797  51.027 -52.418  1.00  0.00    -0.007 A 
HETATM   21  N   UNL     1     -40.229  51.047 -54.603  1.00  0.00    -0.364 N 
HETATM   22  C   UNL     1     -39.495  49.748 -52.964  1.00  0.00     0.030 A 
HETATM   23  C   UNL     1     -39.722  51.579 -51.126  1.00  0.00     0.014 A 
HETATM   24  C   UNL     1     -39.771  49.791 -54.312  1.00  0.00     0.089 A 
HETATM   25  C   UNL     1     -40.106  52.908 -50.928  1.00  0.00     0.002 A 
HETATM   26  C   UNL     1     -40.564  53.690 -51.993  1.00  0.00     0.019 A 
HETATM   27  H   UNL     1     -40.516  51.395 -55.513  1.00  0.00     0.165 HD
ENDBRANCH   2  18
TORSDOF 6
ENDMDL
MODEL 9
REMARK VINA RESULT:      -7.3      2.278      8.822
REMARK  6 active torsions:
REMARK  status: ('A' for Active; 'I' for Inactive)
REMARK    1  A    between atoms: C_2  and  C_3 
REMARK    2  A    between atoms: C_3  and  C_4 
REMARK    3  A    between atoms: C_5  and  O_6 
REMARK    4  A    between atoms: C_7  and  C_8 
REMARK    5  A    between atoms: N_9  and  N_10 
REMARK       I    between atoms: N_10  and  C_11 
REMARK    6  A    between atoms: C_11  and  C_12 
ROOT
HETATM    1  N   UNL     1     -41.420  54.973 -55.663  1.00  0.00    -0.243 N 
HETATM    2  C   UNL     1     -41.924  54.476 -54.470  1.00  0.00     0.274 C 
HETATM    3  O   UNL     1     -42.998  54.825 -53.977  1.00  0.00    -0.266 OA
HETATM    4  H   UNL     1     -40.535  54.671 -56.044  1.00  0.00     0.192 HD
ENDROOT
BRANCH   1   5
HETATM    5  N   UNL     1     -42.125  55.923 -56.343  1.00  0.00    -0.183 NA
HETATM    6  C   UNL     1     -42.790  55.504 -57.373  1.00  0.00     0.153 C 
BRANCH   6   7
HETATM    7  C   UNL     1     -43.590  56.429 -58.205  1.00  0.00     0.017 A 
HETATM    8  C   UNL     1     -44.472  57.340 -57.605  1.00  0.00     0.084 A 
HETATM    9  C   UNL     1     -45.227  58.227 -58.394  1.00  0.00    -0.021 A 
HETATM   10  C   UNL     1     -45.096  58.154 -59.794  1.00  0.00     0.010 A 
HETATM   11  C   UNL     1     -44.227  57.241 -60.390  1.00  0.00     0.002 A 
HETATM   12  C   UNL     1     -43.471  56.382 -59.598  1.00  0.00     0.016 A 
BRANCH   8  13
HETATM   13  O   UNL     1     -44.574  57.343 -56.238  1.00  0.00    -0.359 OA
HETATM   14  H   UNL     1     -44.475  58.254 -55.916  1.00  0.00     0.218 HD
ENDBRANCH   8  13
BRANCH   9  15
HETATM   15  C   UNL     1     -46.160  59.265 -57.810  1.00  0.00     0.067 C 
BRANCH  15  16
HETATM   16  C   UNL     1     -47.403  59.460 -58.635  1.00  0.00    -0.032 C 
HETATM   17  C   UNL     1     -48.490  60.123 -58.218  1.00  0.00     0.007 C 
ENDBRANCH  15  16
ENDBRANCH   9  15
ENDBRANCH   6   7
ENDBRANCH   1   5
BRANCH   2  18
HETATM   18  C   UNL     1     -41.096  53.457 -53.747  1.00  0.00     0.061 A 
HETATM   19  C   UNL     1     -40.791  53.669 -52.387  1.00  0.00     0.058 A 
HETATM   20  C   UNL     1     -40.025  52.787 -51.625  1.00  0.00    -0.007 A 
HETATM   21  N   UNL     1     -41.147  54.709 -51.551  1.00  0.00    -0.364 N 
HETATM   22  C   UNL     1     -39.931  53.331 -50.314  1.00  0.00     0.030 A 
HETATM   23  C   UNL     1     -39.525  51.623 -52.237  1.00  0.00     0.014 A 
HETATM   24  C   UNL     1     -40.633  54.516 -50.299  1.00  0.00     0.089 A 
HETATM   25  C   UNL     1     -39.812  51.383 -53.584  1.00  0.00     0.002 A 
HETATM   26  C   UNL     1     -40.584  52.282 -54.326  1.00  0.00     0.019 A 
HETATM   27  H   UNL     1     -41.714  55.493 -51.862  1.00  0.00     0.165 HD
ENDBRANCH   2  18
TORSDOF 6
ENDMDL
MODEL 10
REMARK VINA RESULT:      -7.3      1.989      9.024
REMARK  6 active torsions:
REMARK  status: ('A' for Active; 'I' for Inactive)
REMARK    1  A    between atoms: C_2  and  C_3 
REMARK    2  A    between atoms: C_3  and  C_4 
REMARK    3  A    between atoms: C_5  and  O_6 
REMARK    4  A    between atoms: C_7  and  C_8 
REMARK    5  A    between atoms: N_9  and  N_10 
REMARK       I    between atoms: N_10  and  C_11 
REMARK    6  A    between atoms: C_11  and  C_12 
ROOT
HETATM    1  N   UNL     1     -41.563  54.685 -55.752  1.00  0.00    -0.243 N 
HETATM    2  C   UNL     1     -42.081  54.155 -54.579  1.00  0.00     0.274 C 
HETATM    3  O   UNL     1     -43.228  54.356 -54.179  1.00  0.00    -0.266 OA
HETATM    4  H   UNL     1     -40.617  54.506 -56.056  1.00  0.00     0.192 HD
ENDROOT
BRANCH   1   5
HETATM    5  N   UNL     1     -42.344  55.500 -56.519  1.00  0.00    -0.183 NA
HETATM    6  C   UNL     1     -42.198  56.772 -56.323  1.00  0.00     0.153 C 
BRANCH   6   7
HETATM    7  C   UNL     1     -42.988  57.766 -57.080  1.00  0.00     0.017 A 
HETATM    8  C   UNL     1     -42.673  58.055 -58.416  1.00  0.00     0.084 A 
HETATM    9  C   UNL     1     -43.430  58.994 -59.141  1.00  0.00    -0.021 A 
HETATM   10  C   UNL     1     -44.485  59.654 -58.482  1.00  0.00     0.010 A 
HETATM   11  C   UNL     1     -44.790  59.375 -57.150  1.00  0.00     0.002 A 
HETATM   12  C   UNL     1     -44.047  58.429 -56.450  1.00  0.00     0.016 A 
BRANCH   8  13
HETATM   13  O   UNL     1     -41.617  57.397 -58.992  1.00  0.00    -0.359 OA
HETATM   14  H   UNL     1     -41.379  56.637 -58.437  1.00  0.00     0.218 HD
ENDBRANCH   8  13
BRANCH   9  15
HETATM   15  C   UNL     1     -43.175  59.317 -60.596  1.00  0.00     0.067 C 
BRANCH  15  16
HETATM   16  C   UNL     1     -42.035  60.280 -60.788  1.00  0.00    -0.032 C 
HETATM   17  C   UNL     1     -41.940  61.144 -61.808  1.00  0.00     0.007 C 
ENDBRANCH  15  16
ENDBRANCH   9  15
ENDBRANCH   6   7
ENDBRANCH   1   5
BRANCH   2  18
HETATM   18  C   UNL     1     -41.172  53.292 -53.758  1.00  0.00     0.061 A 
HETATM   19  C   UNL     1     -40.872  53.683 -52.436  1.00  0.00     0.058 A 
HETATM   20  C   UNL     1     -40.034  52.956 -51.592  1.00  0.00    -0.007 A 
HETATM   21  N   UNL     1     -41.298  54.785 -51.722  1.00  0.00    -0.364 N 
HETATM   22  C   UNL     1     -39.970  53.655 -50.354  1.00  0.00     0.030 A 
HETATM   23  C   UNL     1     -39.454  51.768 -52.072  1.00  0.00     0.014 A 
HETATM   24  C   UNL     1     -40.759  54.778 -50.464  1.00  0.00     0.089 A 
HETATM   25  C   UNL     1     -39.734  51.351 -53.377  1.00  0.00     0.002 A 
HETATM   26  C   UNL     1     -40.577  52.097 -54.205  1.00  0.00     0.019 A 
HETATM   27  H   UNL     1     -41.925  55.483 -52.112  1.00  0.00     0.165 HD
ENDBRANCH   2  18
TORSDOF 6
ENDMDL
