MODEL 1
REMARK VINA RESULT:      -8.7      0.000      0.000
REMARK  3 active torsions:
REMARK  status: ('A' for Active; 'I' for Inactive)
REMARK    1  A    between atoms: C_9  and  C_10 
REMARK       I    between atoms: C_10  and  N_11 
REMARK    2  A    between atoms: N_11  and  C_12 
REMARK    3  A    between atoms: C_12  and  C_13 
ROOT
HETATM    1  C   UNL     1     -41.048  55.132 -53.115  1.00  0.00     0.273 C 
HETATM    2  N   UNL     1     -42.118  55.894 -52.697  1.00  0.00    -0.347 N 
HETATM    3  O   UNL     1     -40.482  55.297 -54.193  1.00  0.00    -0.266 OA
HETATM    4  H   UNL     1     -42.521  55.610 -51.809  1.00  0.00     0.163 HD
ENDROOT
BRANCH   2   5
HETATM    5  C   UNL     1     -42.786  56.849 -53.554  1.00  0.00     0.114 C 
HETATM    6  C   UNL     1     -44.115  56.293 -54.075  1.00  0.00     0.037 C 
BRANCH   5   7
HETATM    7  C   UNL     1     -43.006  58.169 -52.836  1.00  0.00    -0.034 A 
HETATM    8  C   UNL     1     -43.960  58.255 -51.807  1.00  0.00     0.041 A 
HETATM    9  C   UNL     1     -44.146  59.452 -51.111  1.00  0.00     0.069 A 
HETATM   10  C   UNL     1     -43.391  60.579 -51.432  1.00  0.00     0.096 A 
HETATM   11  N   UNL     1     -45.071  59.499 -50.069  1.00  0.00    -0.323 N 
HETATM   12  O   UNL     1     -43.485  61.775 -50.778  1.00  0.00    -0.340 OA
HETATM   13  C   UNL     1     -42.439  60.506 -52.446  1.00  0.00     0.040 A 
HETATM   14  C   UNL     1     -44.590  61.894 -49.896  1.00  0.00     0.278 C 
HETATM   15  C   UNL     1     -45.314  60.652 -49.377  1.00  0.00     0.246 C 
HETATM   16  O   UNL     1     -46.105  60.679 -48.438  1.00  0.00    -0.271 OA
HETATM   17  C   UNL     1     -42.244  59.311 -53.141  1.00  0.00     0.012 A 
HETATM   18  H   UNL     1     -45.577  58.675 -49.778  1.00  0.00     0.169 HD
ENDBRANCH   5   7
ENDBRANCH   2   5
BRANCH   1  19
HETATM   19  C   UNL     1     -40.677  54.086 -52.150  1.00  0.00     0.157 A 
HETATM   20  C   UNL     1     -40.310  52.736 -52.430  1.00  0.00     0.029 A 
HETATM   21  C   UNL     1     -40.152  51.946 -53.585  1.00  0.00     0.023 A 
HETATM   22  C   UNL     1     -40.081  52.159 -51.187  1.00  0.00     0.063 A 
HETATM   23  C   UNL     1     -39.773  50.598 -53.456  1.00  0.00    -0.061 A 
HETATM   24  C   UNL     1     -39.600  49.736 -54.673  1.00  0.00     0.048 C 
HETATM   25  C   UNL     1     -39.555  50.056 -52.184  1.00  0.00     0.009 A 
HETATM   26  C   UNL     1     -39.704  50.823 -51.023  1.00  0.00     0.032 A 
HETATM   27  N   UNL     1     -40.309  53.154 -50.279  1.00  0.00    -0.277 N 
HETATM   28  H   UNL     1     -40.235  53.091 -49.270  1.00  0.00     0.189 HD
HETATM   29  N   UNL     1     -40.679  54.329 -50.819  1.00  0.00    -0.168 NA
ENDBRANCH   1  19
TORSDOF 3
ENDMDL
MODEL 2
REMARK VINA RESULT:      -8.7      4.026      8.948
REMARK  3 active torsions:
REMARK  status: ('A' for Active; 'I' for Inactive)
REMARK    1  A    between atoms: C_9  and  C_10 
REMARK       I    between atoms: C_10  and  N_11 
REMARK    2  A    between atoms: N_11  and  C_12 
REMARK    3  A    between atoms: C_12  and  C_13 
ROOT
HETATM    1  C   UNL     1     -42.162  57.111 -55.428  1.00  0.00     0.273 C 
HETATM    2  N   UNL     1     -42.105  55.959 -54.675  1.00  0.00    -0.347 N 
HETATM    3  O   UNL     1     -41.854  58.218 -54.993  1.00  0.00    -0.266 OA
HETATM    4  H   UNL     1     -42.442  55.125 -55.147  1.00  0.00     0.163 HD
ENDROOT
BRANCH   2   5
HETATM    5  C   UNL     1     -41.840  55.960 -53.253  1.00  0.00     0.114 C 
HETATM    6  C   UNL     1     -43.108  56.268 -52.452  1.00  0.00     0.037 C 
BRANCH   5   7
HETATM    7  C   UNL     1     -41.234  54.640 -52.808  1.00  0.00    -0.034 A 
HETATM    8  C   UNL     1     -41.103  53.586 -53.728  1.00  0.00     0.041 A 
HETATM    9  C   UNL     1     -40.511  52.380 -53.344  1.00  0.00     0.069 A 
HETATM   10  C   UNL     1     -40.050  52.204 -52.040  1.00  0.00     0.096 A 
HETATM   11  N   UNL     1     -40.358  51.364 -54.286  1.00  0.00    -0.323 N 
HETATM   12  O   UNL     1     -39.429  51.072 -51.594  1.00  0.00    -0.340 OA
HETATM   13  C   UNL     1     -40.169  53.243 -51.120  1.00  0.00     0.040 A 
HETATM   14  C   UNL     1     -39.498  49.960 -52.474  1.00  0.00     0.278 C 
HETATM   15  C   UNL     1     -39.816  50.154 -53.956  1.00  0.00     0.246 C 
HETATM   16  O   UNL     1     -39.652  49.276 -54.798  1.00  0.00    -0.271 OA
HETATM   17  C   UNL     1     -40.753  54.453 -51.500  1.00  0.00     0.012 A 
HETATM   18  H   UNL     1     -40.625  51.499 -55.251  1.00  0.00     0.169 HD
ENDBRANCH   5   7
ENDBRANCH   2   5
BRANCH   1  19
HETATM   19  C   UNL     1     -42.656  56.880 -56.794  1.00  0.00     0.157 A 
HETATM   20  C   UNL     1     -42.574  57.766 -57.910  1.00  0.00     0.029 A 
HETATM   21  C   UNL     1     -42.044  59.049 -58.150  1.00  0.00     0.023 A 
HETATM   22  C   UNL     1     -43.205  57.097 -58.950  1.00  0.00     0.063 A 
HETATM   23  C   UNL     1     -42.168  59.622 -59.428  1.00  0.00    -0.061 A 
HETATM   24  C   UNL     1     -41.612  60.988 -59.707  1.00  0.00     0.048 C 
HETATM   25  C   UNL     1     -42.814  58.913 -60.448  1.00  0.00     0.009 A 
HETATM   26  C   UNL     1     -43.346  57.637 -60.232  1.00  0.00     0.032 A 
HETATM   27  N   UNL     1     -43.606  55.902 -58.421  1.00  0.00    -0.277 N 
HETATM   28  H   UNL     1     -44.099  55.157 -58.898  1.00  0.00     0.189 HD
HETATM   29  N   UNL     1     -43.302  55.737 -57.122  1.00  0.00    -0.168 NA
ENDBRANCH   1  19
TORSDOF 3
ENDMDL
MODEL 3
REMARK VINA RESULT:      -8.6      3.312      5.721
REMARK  3 active torsions:
REMARK  status: ('A' for Active; 'I' for Inactive)
REMARK    1  A    between atoms: C_9  and  C_10 
REMARK       I    between atoms: C_10  and  N_11 
REMARK    2  A    between atoms: N_11  and  C_12 
REMARK    3  A    between atoms: C_12  and  C_13 
ROOT
HETATM    1  C   UNL     1     -42.731  56.766 -52.273  1.00  0.00     0.273 C 
HETATM    2  N   UNL     1     -42.023  57.576 -53.133  1.00  0.00    -0.347 N 
HETATM    3  O   UNL     1     -43.956  56.789 -52.178  1.00  0.00    -0.266 OA
HETATM    4  H   UNL     1     -41.013  57.489 -53.065  1.00  0.00     0.163 HD
ENDROOT
BRANCH   2   5
HETATM    5  C   UNL     1     -42.633  58.651 -53.884  1.00  0.00     0.114 C 
HETATM    6  C   UNL     1     -41.959  59.993 -53.583  1.00  0.00     0.037 C 
BRANCH   5   7
HETATM    7  C   UNL     1     -42.605  58.362 -55.375  1.00  0.00    -0.034 A 
HETATM    8  C   UNL     1     -43.145  57.160 -55.864  1.00  0.00     0.041 A 
HETATM    9  C   UNL     1     -43.162  56.897 -57.236  1.00  0.00     0.069 A 
HETATM   10  C   UNL     1     -42.637  57.822 -58.138  1.00  0.00     0.096 A 
HETATM   11  N   UNL     1     -43.739  55.715 -57.698  1.00  0.00    -0.323 N 
HETATM   12  O   UNL     1     -42.647  57.659 -59.494  1.00  0.00    -0.340 OA
HETATM   13  C   UNL     1     -42.104  59.019 -57.666  1.00  0.00     0.040 A 
HETATM   14  C   UNL     1     -43.002  56.360 -59.942  1.00  0.00     0.278 C 
HETATM   15  C   UNL     1     -43.753  55.394 -59.025  1.00  0.00     0.246 C 
HETATM   16  O   UNL     1     -44.293  54.368 -59.430  1.00  0.00    -0.271 OA
HETATM   17  C   UNL     1     -42.090  59.290 -56.297  1.00  0.00     0.012 A 
HETATM   18  H   UNL     1     -44.185  55.066 -57.064  1.00  0.00     0.169 HD
ENDBRANCH   5   7
ENDBRANCH   2   5
BRANCH   1  19
HETATM   19  C   UNL     1     -41.867  55.893 -51.464  1.00  0.00     0.157 A 
HETATM   20  C   UNL     1     -41.245  54.673 -51.866  1.00  0.00     0.029 A 
HETATM   21  C   UNL     1     -41.185  53.904 -53.045  1.00  0.00     0.023 A 
HETATM   22  C   UNL     1     -40.565  54.226 -50.740  1.00  0.00     0.063 A 
HETATM   23  C   UNL     1     -40.448  52.707 -53.054  1.00  0.00    -0.061 A 
HETATM   24  C   UNL     1     -40.371  51.870 -54.298  1.00  0.00     0.048 C 
HETATM   25  C   UNL     1     -39.779  52.292 -51.896  1.00  0.00     0.009 A 
HETATM   26  C   UNL     1     -39.824  53.042 -50.715  1.00  0.00     0.032 A 
HETATM   27  N   UNL     1     -40.806  55.165 -49.776  1.00  0.00    -0.277 N 
HETATM   28  H   UNL     1     -40.464  55.164 -48.822  1.00  0.00     0.189 HD
HETATM   29  N   UNL     1     -41.594  56.181 -50.170  1.00  0.00    -0.168 NA
ENDBRANCH   1  19
TORSDOF 3
ENDMDL
MODEL 4
REMARK VINA RESULT:      -8.6      2.814      4.541
REMARK  3 active torsions:
REMARK  status: ('A' for Active; 'I' for Inactive)
REMARK    1  A    between atoms: C_9  and  C_10 
REMARK       I    between atoms: C_10  and  N_11 
REMARK    2  A    between atoms: N_11  and  C_12 
REMARK    3  A    between atoms: C_12  and  C_13 
ROOT
HETATM    1  C   UNL     1     -42.147  56.021 -50.603  1.00  0.00     0.273 C 
HETATM    2  N   UNL     1     -41.253  56.999 -50.980  1.00  0.00    -0.347 N 
HETATM    3  O   UNL     1     -43.363  56.192 -50.573  1.00  0.00    -0.266 OA
HETATM    4  H   UNL     1     -40.275  56.735 -50.904  1.00  0.00     0.163 HD
ENDROOT
BRANCH   2   5
HETATM    5  C   UNL     1     -41.643  58.373 -51.214  1.00  0.00     0.114 C 
HETATM    6  C   UNL     1     -40.627  59.349 -50.614  1.00  0.00     0.037 C 
BRANCH   5   7
HETATM    7  C   UNL     1     -41.832  58.643 -52.697  1.00  0.00    -0.034 A 
HETATM    8  C   UNL     1     -42.018  57.570 -53.585  1.00  0.00     0.041 A 
HETATM    9  C   UNL     1     -42.232  57.805 -54.945  1.00  0.00     0.069 A 
HETATM   10  C   UNL     1     -42.256  59.108 -55.441  1.00  0.00     0.096 A 
HETATM   11  N   UNL     1     -42.454  56.725 -55.798  1.00  0.00    -0.323 N 
HETATM   12  O   UNL     1     -42.495  59.425 -56.748  1.00  0.00    -0.340 OA
HETATM   13  C   UNL     1     -42.078  60.180 -54.570  1.00  0.00     0.040 A 
HETATM   14  C   UNL     1     -42.470  58.328 -57.648  1.00  0.00     0.278 C 
HETATM   15  C   UNL     1     -42.636  56.896 -57.141  1.00  0.00     0.246 C 
HETATM   16  O   UNL     1     -42.865  55.944 -57.882  1.00  0.00    -0.271 OA
HETATM   17  C   UNL     1     -41.870  59.952 -53.209  1.00  0.00     0.012 A 
HETATM   18  H   UNL     1     -42.507  55.780 -55.445  1.00  0.00     0.169 HD
ENDBRANCH   5   7
ENDBRANCH   2   5
BRANCH   1  19
HETATM   19  C   UNL     1     -41.490  54.762 -50.216  1.00  0.00     0.157 A 
HETATM   20  C   UNL     1     -40.960  53.757 -51.079  1.00  0.00     0.029 A 
HETATM   21  C   UNL     1     -40.839  53.575 -52.470  1.00  0.00     0.023 A 
HETATM   22  C   UNL     1     -40.478  52.770 -50.229  1.00  0.00     0.063 A 
HETATM   23  C   UNL     1     -40.241  52.403 -52.966  1.00  0.00    -0.061 A 
HETATM   24  C   UNL     1     -40.102  52.185 -54.445  1.00  0.00     0.048 C 
HETATM   25  C   UNL     1     -39.771  51.431 -52.074  1.00  0.00     0.009 A 
HETATM   26  C   UNL     1     -39.879  51.593 -50.688  1.00  0.00     0.032 A 
HETATM   27  N   UNL     1     -40.733  53.223 -48.965  1.00  0.00    -0.277 N 
HETATM   28  H   UNL     1     -40.514  52.758 -48.093  1.00  0.00     0.189 HD
HETATM   29  N   UNL     1     -41.351  54.417 -48.915  1.00  0.00    -0.168 NA
ENDBRANCH   1  19
TORSDOF 3
ENDMDL
MODEL 5
REMARK VINA RESULT:      -8.4      4.100      5.952
REMARK  3 active torsions:
REMARK  status: ('A' for Active; 'I' for Inactive)
REMARK    1  A    between atoms: C_9  and  C_10 
REMARK       I    between atoms: C_10  and  N_11 
REMARK    2  A    between atoms: N_11  and  C_12 
REMARK    3  A    between atoms: C_12  and  C_13 
ROOT
HETATM    1  C   UNL     1     -43.036  54.946 -54.091  1.00  0.00     0.273 C 
HETATM    2  N   UNL     1     -42.949  56.283 -54.412  1.00  0.00    -0.347 N 
HETATM    3  O   UNL     1     -43.884  54.193 -54.562  1.00  0.00    -0.266 OA
HETATM    4  H   UNL     1     -42.234  56.797 -53.904  1.00  0.00     0.163 HD
ENDROOT
BRANCH   2   5
HETATM    5  C   UNL     1     -43.949  56.970 -55.201  1.00  0.00     0.114 C 
HETATM    6  C   UNL     1     -44.370  58.286 -54.542  1.00  0.00     0.037 C 
BRANCH   5   7
HETATM    7  C   UNL     1     -43.455  57.215 -56.616  1.00  0.00    -0.034 A 
HETATM    8  C   UNL     1     -43.152  58.523 -57.034  1.00  0.00     0.041 A 
HETATM    9  C   UNL     1     -42.660  58.761 -58.319  1.00  0.00     0.069 A 
HETATM   10  C   UNL     1     -42.468  57.703 -59.208  1.00  0.00     0.096 A 
HETATM   11  N   UNL     1     -42.330  60.062 -58.695  1.00  0.00    -0.323 N 
HETATM   12  O   UNL     1     -41.958  57.845 -60.467  1.00  0.00    -0.340 OA
HETATM   13  C   UNL     1     -42.759  56.402 -58.804  1.00  0.00     0.040 A 
HETATM   14  C   UNL     1     -41.861  59.183 -60.931  1.00  0.00     0.278 C 
HETATM   15  C   UNL     1     -41.876  60.354 -59.949  1.00  0.00     0.246 C 
HETATM   16  O   UNL     1     -41.555  61.497 -60.263  1.00  0.00    -0.271 OA
HETATM   17  C   UNL     1     -43.246  56.158 -57.519  1.00  0.00     0.012 A 
HETATM   18  H   UNL     1     -42.399  60.830 -58.042  1.00  0.00     0.169 HD
ENDBRANCH   5   7
ENDBRANCH   2   5
BRANCH   1  19
HETATM   19  C   UNL     1     -42.026  54.525 -53.108  1.00  0.00     0.157 A 
HETATM   20  C   UNL     1     -41.209  53.357 -53.147  1.00  0.00     0.029 A 
HETATM   21  C   UNL     1     -41.031  52.271 -54.028  1.00  0.00     0.023 A 
HETATM   22  C   UNL     1     -40.451  53.406 -51.985  1.00  0.00     0.063 A 
HETATM   23  C   UNL     1     -40.100  51.267 -53.711  1.00  0.00    -0.061 A 
HETATM   24  C   UNL     1     -39.895  50.100 -54.633  1.00  0.00     0.048 C 
HETATM   25  C   UNL     1     -39.358  51.355 -52.527  1.00  0.00     0.009 A 
HETATM   26  C   UNL     1     -39.517  52.425 -51.639  1.00  0.00     0.032 A 
HETATM   27  N   UNL     1     -40.838  54.552 -51.349  1.00  0.00    -0.277 N 
HETATM   28  H   UNL     1     -40.491  54.910 -50.467  1.00  0.00     0.189 HD
HETATM   29  N   UNL     1     -41.793  55.250 -51.989  1.00  0.00    -0.168 NA
ENDBRANCH   1  19
TORSDOF 3
ENDMDL
MODEL 6
REMARK VINA RESULT:      -8.4      4.343      6.654
REMARK  3 active torsions:
REMARK  status: ('A' for Active; 'I' for Inactive)
REMARK    1  A    between atoms: C_9  and  C_10 
REMARK       I    between atoms: C_10  and  N_11 
REMARK    2  A    between atoms: N_11  and  C_12 
REMARK    3  A    between atoms: C_12  and  C_13 
ROOT
HETATM    1  C   UNL     1     -43.382  57.202 -53.828  1.00  0.00     0.273 C 
HETATM    2  N   UNL     1     -42.591  57.847 -54.753  1.00  0.00    -0.347 N 
HETATM    3  O   UNL     1     -44.608  57.177 -53.890  1.00  0.00    -0.266 OA
HETATM    4  H   UNL     1     -41.596  57.832 -54.546  1.00  0.00     0.163 HD
ENDROOT
BRANCH   2   5
HETATM    5  C   UNL     1     -43.129  58.700 -55.790  1.00  0.00     0.114 C 
HETATM    6  C   UNL     1     -42.213  59.899 -56.055  1.00  0.00     0.037 C 
BRANCH   5   7
HETATM    7  C   UNL     1     -43.370  57.920 -57.071  1.00  0.00    -0.034 A 
HETATM    8  C   UNL     1     -44.684  57.705 -57.521  1.00  0.00     0.041 A 
HETATM    9  C   UNL     1     -44.921  57.023 -58.717  1.00  0.00     0.069 A 
HETATM   10  C   UNL     1     -43.855  56.540 -59.477  1.00  0.00     0.096 A 
HETATM   11  N   UNL     1     -46.232  56.857 -59.161  1.00  0.00    -0.323 N 
HETATM   12  O   UNL     1     -43.998  55.897 -60.673  1.00  0.00    -0.340 OA
HETATM   13  C   UNL     1     -42.548  56.752 -59.044  1.00  0.00     0.040 A 
HETATM   14  C   UNL     1     -45.326  55.512 -60.995  1.00  0.00     0.278 C 
HETATM   15  C   UNL     1     -46.520  56.171 -60.306  1.00  0.00     0.246 C 
HETATM   16  O   UNL     1     -47.675  56.058 -60.710  1.00  0.00    -0.271 OA
HETATM   17  C   UNL     1     -42.305  57.438 -57.853  1.00  0.00     0.012 A 
HETATM   18  H   UNL     1     -47.010  57.259 -58.659  1.00  0.00     0.169 HD
ENDBRANCH   5   7
ENDBRANCH   2   5
BRANCH   1  19
HETATM   19  C   UNL     1     -42.606  56.572 -52.749  1.00  0.00     0.157 A 
HETATM   20  C   UNL     1     -41.887  55.340 -52.801  1.00  0.00     0.029 A 
HETATM   21  C   UNL     1     -41.633  54.353 -53.773  1.00  0.00     0.023 A 
HETATM   22  C   UNL     1     -41.355  55.179 -51.528  1.00  0.00     0.063 A 
HETATM   23  C   UNL     1     -40.856  53.231 -53.434  1.00  0.00    -0.061 A 
HETATM   24  C   UNL     1     -40.573  52.165 -54.453  1.00  0.00     0.048 C 
HETATM   25  C   UNL     1     -40.340  53.107 -52.139  1.00  0.00     0.009 A 
HETATM   26  C   UNL     1     -40.578  54.077 -51.158  1.00  0.00     0.032 A 
HETATM   27  N   UNL     1     -41.765  56.276 -50.823  1.00  0.00    -0.277 N 
HETATM   28  H   UNL     1     -41.559  56.493 -49.855  1.00  0.00     0.189 HD
HETATM   29  N   UNL     1     -42.529  57.135 -51.521  1.00  0.00    -0.168 NA
ENDBRANCH   1  19
TORSDOF 3
ENDMDL
MODEL 7
REMARK VINA RESULT:      -8.3      3.387      8.381
REMARK  3 active torsions:
REMARK  status: ('A' for Active; 'I' for Inactive)
REMARK    1  A    between atoms: C_9  and  C_10 
REMARK       I    between atoms: C_10  and  N_11 
REMARK    2  A    between atoms: N_11  and  C_12 
REMARK    3  A    between atoms: C_12  and  C_13 
ROOT
HETATM    1  C   UNL     1     -41.244  58.591 -53.976  1.00  0.00     0.273 C 
HETATM    2  N   UNL     1     -41.701  57.317 -53.715  1.00  0.00    -0.347 N 
HETATM    3  O   UNL     1     -40.312  59.111 -53.369  1.00  0.00    -0.266 OA
HETATM    4  H   UNL     1     -42.514  57.038 -54.257  1.00  0.00     0.163 HD
ENDROOT
BRANCH   2   5
HETATM    5  C   UNL     1     -41.243  56.532 -52.590  1.00  0.00     0.114 C 
HETATM    6  C   UNL     1     -42.279  56.519 -51.463  1.00  0.00     0.037 C 
BRANCH   5   7
HETATM    7  C   UNL     1     -40.899  55.115 -53.015  1.00  0.00    -0.034 A 
HETATM    8  C   UNL     1     -40.535  54.164 -52.045  1.00  0.00     0.041 A 
HETATM    9  C   UNL     1     -40.254  52.847 -52.416  1.00  0.00     0.069 A 
HETATM   10  C   UNL     1     -40.324  52.460 -53.754  1.00  0.00     0.096 A 
HETATM   11  N   UNL     1     -39.934  51.913 -51.431  1.00  0.00    -0.323 N 
HETATM   12  O   UNL     1     -40.100  51.187 -54.195  1.00  0.00    -0.340 OA
HETATM   13  C   UNL     1     -40.688  53.392 -54.723  1.00  0.00     0.040 A 
HETATM   14  C   UNL     1     -39.536  50.307 -53.235  1.00  0.00     0.278 C 
HETATM   15  C   UNL     1     -39.619  50.621 -51.742  1.00  0.00     0.246 C 
HETATM   16  O   UNL     1     -39.372  49.795 -50.867  1.00  0.00    -0.271 OA
HETATM   17  C   UNL     1     -40.977  54.708 -54.358  1.00  0.00     0.012 A 
HETATM   18  H   UNL     1     -39.945  52.160 -50.451  1.00  0.00     0.169 HD
ENDBRANCH   5   7
ENDBRANCH   2   5
BRANCH   1  19
HETATM   19  C   UNL     1     -42.006  59.268 -55.037  1.00  0.00     0.157 A 
HETATM   20  C   UNL     1     -42.472  58.708 -56.264  1.00  0.00     0.029 A 
HETATM   21  C   UNL     1     -42.426  57.445 -56.886  1.00  0.00     0.023 A 
HETATM   22  C   UNL     1     -43.105  59.755 -56.921  1.00  0.00     0.063 A 
HETATM   23  C   UNL     1     -43.013  57.274 -58.152  1.00  0.00    -0.061 A 
HETATM   24  C   UNL     1     -42.975  55.938 -58.835  1.00  0.00     0.048 C 
HETATM   25  C   UNL     1     -43.640  58.357 -58.780  1.00  0.00     0.009 A 
HETATM   26  C   UNL     1     -43.700  59.620 -58.179  1.00  0.00     0.032 A 
HETATM   27  N   UNL     1     -42.990  60.830 -56.084  1.00  0.00    -0.277 N 
HETATM   28  H   UNL     1     -43.340  61.767 -56.241  1.00  0.00     0.189 HD
HETATM   29  N   UNL     1     -42.325  60.579 -54.942  1.00  0.00    -0.168 NA
ENDBRANCH   1  19
TORSDOF 3
ENDMDL
MODEL 8
REMARK VINA RESULT:      -8.2      3.673      9.015
REMARK  3 active torsions:
REMARK  status: ('A' for Active; 'I' for Inactive)
REMARK    1  A    between atoms: C_9  and  C_10 
REMARK       I    between atoms: C_10  and  N_11 
REMARK    2  A    between atoms: N_11  and  C_12 
REMARK    3  A    between atoms: C_12  and  C_13 
ROOT
HETATM    1  C   UNL     1     -42.336  57.010 -55.261  1.00  0.00     0.273 C 
HETATM    2  N   UNL     1     -42.348  55.900 -54.445  1.00  0.00    -0.347 N 
HETATM    3  O   UNL     1     -41.820  58.078 -54.941  1.00  0.00    -0.266 OA
HETATM    4  H   UNL     1     -42.859  55.105 -54.817  1.00  0.00     0.163 HD
ENDROOT
BRANCH   2   5
HETATM    5  C   UNL     1     -41.904  55.931 -53.069  1.00  0.00     0.114 C 
HETATM    6  C   UNL     1     -43.054  56.287 -52.122  1.00  0.00     0.037 C 
BRANCH   5   7
HETATM    7  C   UNL     1     -41.273  54.608 -52.667  1.00  0.00    -0.034 A 
HETATM    8  C   UNL     1     -41.148  53.578 -53.615  1.00  0.00     0.041 A 
HETATM    9  C   UNL     1     -40.535  52.370 -53.272  1.00  0.00     0.069 A 
HETATM   10  C   UNL     1     -40.045  52.170 -51.982  1.00  0.00     0.096 A 
HETATM   11  N   UNL     1     -40.388  51.379 -54.241  1.00  0.00    -0.323 N 
HETATM   12  O   UNL     1     -39.401  51.035 -51.576  1.00  0.00    -0.340 OA
HETATM   13  C   UNL     1     -40.158  53.185 -51.035  1.00  0.00     0.040 A 
HETATM   14  C   UNL     1     -39.475  49.944 -52.481  1.00  0.00     0.278 C 
HETATM   15  C   UNL     1     -39.825  50.169 -53.951  1.00  0.00     0.246 C 
HETATM   16  O   UNL     1     -39.667  49.313 -54.818  1.00  0.00    -0.271 OA
HETATM   17  C   UNL     1     -40.764  54.396 -51.374  1.00  0.00     0.012 A 
HETATM   18  H   UNL     1     -40.676  51.534 -55.197  1.00  0.00     0.169 HD
ENDBRANCH   5   7
ENDBRANCH   2   5
BRANCH   1  19
HETATM   19  C   UNL     1     -43.030  56.790 -56.539  1.00  0.00     0.157 A 
HETATM   20  C   UNL     1     -43.789  57.737 -57.290  1.00  0.00     0.029 A 
HETATM   21  C   UNL     1     -44.134  59.097 -57.157  1.00  0.00     0.023 A 
HETATM   22  C   UNL     1     -44.254  57.034 -58.393  1.00  0.00     0.063 A 
HETATM   23  C   UNL     1     -44.939  59.706 -58.135  1.00  0.00    -0.061 A 
HETATM   24  C   UNL     1     -45.320  61.153 -58.014  1.00  0.00     0.048 C 
HETATM   25  C   UNL     1     -45.388  58.960 -59.231  1.00  0.00     0.009 A 
HETATM   26  C   UNL     1     -45.056  57.608 -59.384  1.00  0.00     0.032 A 
HETATM   27  N   UNL     1     -43.765  55.766 -58.247  1.00  0.00    -0.277 N 
HETATM   28  H   UNL     1     -43.904  54.980 -58.871  1.00  0.00     0.189 HD
HETATM   29  N   UNL     1     -43.029  55.576 -57.137  1.00  0.00    -0.168 NA
ENDBRANCH   1  19
TORSDOF 3
ENDMDL
MODEL 9
REMARK VINA RESULT:      -8.1      5.863      7.851
REMARK  3 active torsions:
REMARK  status: ('A' for Active; 'I' for Inactive)
REMARK    1  A    between atoms: C_9  and  C_10 
REMARK       I    between atoms: C_10  and  N_11 
REMARK    2  A    between atoms: N_11  and  C_12 
REMARK    3  A    between atoms: C_12  and  C_13 
ROOT
HETATM    1  C   UNL     1     -43.063  57.199 -55.979  1.00  0.00     0.273 C 
HETATM    2  N   UNL     1     -43.707  56.491 -56.970  1.00  0.00    -0.347 N 
HETATM    3  O   UNL     1     -42.340  58.166 -56.202  1.00  0.00    -0.266 OA
HETATM    4  H   UNL     1     -44.228  55.681 -56.644  1.00  0.00     0.163 HD
ENDROOT
BRANCH   2   5
HETATM    5  C   UNL     1     -43.462  56.707 -58.379  1.00  0.00     0.114 C 
HETATM    6  C   UNL     1     -43.043  55.410 -59.076  1.00  0.00     0.037 C 
BRANCH   5   7
HETATM    7  C   UNL     1     -44.678  57.311 -59.060  1.00  0.00    -0.034 A 
HETATM    8  C   UNL     1     -45.345  56.589 -60.066  1.00  0.00     0.041 A 
HETATM    9  C   UNL     1     -46.489  57.113 -60.674  1.00  0.00     0.069 A 
HETATM   10  C   UNL     1     -46.978  58.363 -60.296  1.00  0.00     0.096 A 
HETATM   11  N   UNL     1     -47.155  56.361 -61.640  1.00  0.00    -0.323 N 
HETATM   12  O   UNL     1     -48.108  58.931 -60.814  1.00  0.00    -0.340 OA
HETATM   13  C   UNL     1     -46.329  59.086 -59.298  1.00  0.00     0.040 A 
HETATM   14  C   UNL     1     -48.635  58.283 -61.962  1.00  0.00     0.278 C 
HETATM   15  C   UNL     1     -48.257  56.839 -62.288  1.00  0.00     0.246 C 
HETATM   16  O   UNL     1     -48.859  56.158 -63.114  1.00  0.00    -0.271 OA
HETATM   17  C   UNL     1     -45.190  58.564 -58.682  1.00  0.00     0.012 A 
HETATM   18  H   UNL     1     -46.853  55.426 -61.877  1.00  0.00     0.169 HD
ENDBRANCH   5   7
ENDBRANCH   2   5
BRANCH   1  19
HETATM   19  C   UNL     1     -43.312  56.659 -54.633  1.00  0.00     0.157 A 
HETATM   20  C   UNL     1     -42.676  55.542 -54.014  1.00  0.00     0.029 A 
HETATM   21  C   UNL     1     -41.669  54.622 -54.368  1.00  0.00     0.023 A 
HETATM   22  C   UNL     1     -43.279  55.428 -52.769  1.00  0.00     0.063 A 
HETATM   23  C   UNL     1     -41.303  53.613 -53.461  1.00  0.00    -0.061 A 
HETATM   24  C   UNL     1     -40.234  52.620 -53.817  1.00  0.00     0.048 C 
HETATM   25  C   UNL     1     -41.938  53.533 -52.216  1.00  0.00     0.009 A 
HETATM   26  C   UNL     1     -42.939  54.437 -51.843  1.00  0.00     0.032 A 
HETATM   27  N   UNL     1     -44.196  56.440 -52.716  1.00  0.00    -0.277 N 
HETATM   28  H   UNL     1     -44.820  56.661 -51.950  1.00  0.00     0.189 HD
HETATM   29  N   UNL     1     -44.253  57.200 -53.825  1.00  0.00    -0.168 NA
ENDBRANCH   1  19
TORSDOF 3
ENDMDL
MODEL 10
REMARK VINA RESULT:      -8.0      1.707      2.452
REMARK  3 active torsions:
REMARK  status: ('A' for Active; 'I' for Inactive)
REMARK    1  A    between atoms: C_9  and  C_10 
REMARK       I    between atoms: C_10  and  N_11 
REMARK    2  A    between atoms: N_11  and  C_12 
REMARK    3  A    between atoms: C_12  and  C_13 
ROOT
HETATM    1  C   UNL     1     -41.379  56.620 -50.928  1.00  0.00     0.273 C 
HETATM    2  N   UNL     1     -42.601  56.637 -51.564  1.00  0.00    -0.347 N 
HETATM    3  O   UNL     1     -40.645  57.601 -50.849  1.00  0.00    -0.266 OA
HETATM    4  H   UNL     1     -43.075  55.739 -51.601  1.00  0.00     0.163 HD
ENDROOT
BRANCH   2   5
HETATM    5  C   UNL     1     -43.065  57.762 -52.347  1.00  0.00     0.114 C 
HETATM    6  C   UNL     1     -43.844  57.297 -53.580  1.00  0.00     0.037 C 
BRANCH   5   7
HETATM    7  C   UNL     1     -43.909  58.703 -51.505  1.00  0.00    -0.034 A 
HETATM    8  C   UNL     1     -43.357  59.910 -51.040  1.00  0.00     0.041 A 
HETATM    9  C   UNL     1     -44.133  60.805 -50.299  1.00  0.00     0.069 A 
HETATM   10  C   UNL     1     -45.463  60.508 -50.004  1.00  0.00     0.096 A 
HETATM   11  N   UNL     1     -43.574  62.012 -49.883  1.00  0.00    -0.323 N 
HETATM   12  O   UNL     1     -46.299  61.342 -49.316  1.00  0.00    -0.340 OA
HETATM   13  C   UNL     1     -46.023  59.318 -50.463  1.00  0.00     0.040 A 
HETATM   14  C   UNL     1     -45.665  62.444 -48.686  1.00  0.00     0.278 C 
HETATM   15  C   UNL     1     -44.277  62.907 -49.129  1.00  0.00     0.246 C 
HETATM   16  O   UNL     1     -43.790  63.984 -48.795  1.00  0.00    -0.271 OA
HETATM   17  C   UNL     1     -45.254  58.423 -51.210  1.00  0.00     0.012 A 
HETATM   18  H   UNL     1     -42.633  62.273 -50.146  1.00  0.00     0.169 HD
ENDBRANCH   5   7
ENDBRANCH   2   5
BRANCH   1  19
HETATM   19  C   UNL     1     -41.036  55.298 -50.380  1.00  0.00     0.157 A 
HETATM   20  C   UNL     1     -40.700  54.117 -51.107  1.00  0.00     0.029 A 
HETATM   21  C   UNL     1     -40.556  53.766 -52.464  1.00  0.00     0.023 A 
HETATM   22  C   UNL     1     -40.491  53.144 -50.138  1.00  0.00     0.063 A 
HETATM   23  C   UNL     1     -40.209  52.447 -52.805  1.00  0.00    -0.061 A 
HETATM   24  C   UNL     1     -40.051  52.050 -54.244  1.00  0.00     0.048 C 
HETATM   25  C   UNL     1     -40.009  51.497 -51.797  1.00  0.00     0.009 A 
HETATM   26  C   UNL     1     -40.145  51.824 -50.443  1.00  0.00     0.032 A 
HETATM   27  N   UNL     1     -40.699  53.773 -48.943  1.00  0.00    -0.277 N 
HETATM   28  H   UNL     1     -40.631  53.367 -48.017  1.00  0.00     0.189 HD
HETATM   29  N   UNL     1     -41.039  55.070 -49.046  1.00  0.00    -0.168 NA
ENDBRANCH   1  19
TORSDOF 3
ENDMDL
