MODEL 1
REMARK VINA RESULT:      -7.5      0.000      0.000
REMARK  11 active torsions:
REMARK  status: ('A' for Active; 'I' for Inactive)
REMARK    1  A    between atoms: C_2  and  C_3 
REMARK    2  A    between atoms: C_3  and  N_4 
REMARK    3  A    between atoms: N_4  and  C_6 
REMARK    4  A    between atoms: N_4  and  C_30 
REMARK    5  A    between atoms: C_6  and  C_7 
REMARK    6  A    between atoms: N_8  and  C_9 
REMARK    7  A    between atoms: C_13  and  N_14 
REMARK    8  A    between atoms: C_17  and  C_18 
REMARK       I    between atoms: C_18  and  N_19 
REMARK    9  A    between atoms: N_19  and  N_20 
REMARK   10  A    between atoms: C_21  and  C_22 
REMARK   11  A    between atoms: C_30  and  C_31 
ROOT
HETATM    1  C   UNL     1     -44.094  59.308 -51.132  1.00  0.00     0.096 A 
HETATM    2  N   UNL     1     -44.968  60.036 -50.329  1.00  0.00    -0.215 N 
HETATM    3  N   UNL     1     -46.101  59.306 -50.144  1.00  0.00     0.012 NA
HETATM    4  N   UNL     1     -45.958  58.123 -50.716  1.00  0.00    -0.152 NA
HETATM    5  C   UNL     1     -44.741  58.094 -51.330  1.00  0.00     0.170 A 
ENDROOT
BRANCH   5   6
HETATM    6  C   UNL     1     -44.220  56.934 -52.042  1.00  0.00     0.293 C 
HETATM    7  N   UNL     1     -43.835  55.891 -51.223  1.00  0.00    -0.242 N 
HETATM    8  H   UNL     1     -43.940  55.959 -50.213  1.00  0.00     0.192 HD
HETATM    9  O   UNL     1     -44.102  56.964 -53.265  1.00  0.00    -0.264 OA
BRANCH   7  10
HETATM   10  N   UNL     1     -43.214  54.814 -51.777  1.00  0.00    -0.184 NA
HETATM   11  C   UNL     1     -41.930  54.896 -51.913  1.00  0.00     0.150 C 
BRANCH  11  12
HETATM   12  C   UNL     1     -41.156  53.795 -52.523  1.00  0.00    -0.016 A 
HETATM   13  C   UNL     1     -40.739  52.733 -51.719  1.00  0.00     0.032 A 
HETATM   14  C   UNL     1     -39.993  51.702 -52.290  1.00  0.00     0.011 A 
HETATM   15 BR   UNL     1     -39.415  50.260 -51.211  1.00  0.00    -0.051 Br
HETATM   16  C   UNL     1     -39.665  51.722 -53.646  1.00  0.00     0.019 A 
HETATM   17  C   UNL     1     -40.087  52.785 -54.445  1.00  0.00     0.002 A 
HETATM   18  C   UNL     1     -40.831  53.823 -53.885  1.00  0.00     0.013 A 
ENDBRANCH  11  12
ENDBRANCH   7  10
ENDBRANCH   5   6
BRANCH   1  19
HETATM   19  C   UNL     1     -42.814  59.805 -51.700  1.00  0.00     0.296 C 
BRANCH  19  20
HETATM   20  N   UNL     1     -41.826  58.741 -52.170  1.00  0.00    -0.066 N 
HETATM   21  H   UNL     1     -42.386  57.907 -52.384  1.00  0.00     0.280 HD
BRANCH  20  22
HETATM   22  C   UNL     1     -40.857  58.392 -51.042  1.00  0.00     0.235 C 
BRANCH  22  23
HETATM   23  C   UNL     1     -40.365  59.629 -50.294  1.00  0.00     0.023 C 
HETATM   24  C   UNL     1     -38.851  59.774 -50.296  1.00  0.00     0.007 C 
ENDBRANCH  22  23
ENDBRANCH  20  22
BRANCH  20  25
HETATM   25  C   UNL     1     -41.074  59.163 -53.424  1.00  0.00     0.235 C 
BRANCH  25  26
HETATM   26  C   UNL     1     -41.939  59.954 -54.405  1.00  0.00     0.023 C 
HETATM   27  C   UNL     1     -42.241  59.212 -55.698  1.00  0.00     0.007 C 
ENDBRANCH  25  26
ENDBRANCH  20  25
ENDBRANCH  19  20
ENDBRANCH   1  19
BRANCH   2  28
HETATM   28  C   UNL     1     -44.770  61.295 -49.717  1.00  0.00     0.225 A 
HETATM   29  N   UNL     1     -44.562  62.375 -50.474  1.00  0.00    -0.081 NA
HETATM   30  O   UNL     1     -44.397  63.405 -49.541  1.00  0.00    -0.103 OA
HETATM   31  N   UNL     1     -44.480  62.923 -48.243  1.00  0.00    -0.083 NA
HETATM   32  C   UNL     1     -44.709  61.616 -48.350  1.00  0.00     0.201 A 
BRANCH  32  33
HETATM   33  N   UNL     1     -44.857  60.780 -47.312  1.00  0.00    -0.379 N 
HETATM   34  H   UNL     1     -45.391  59.921 -47.414  1.00  0.00     0.158 HD
HETATM   35  H   UNL     1     -44.574  60.997 -46.358  1.00  0.00     0.158 HD
ENDBRANCH  32  33
ENDBRANCH   2  28
TORSDOF 11
ENDMDL
MODEL 2
REMARK VINA RESULT:      -7.3      0.992      2.243
REMARK  11 active torsions:
REMARK  status: ('A' for Active; 'I' for Inactive)
REMARK    1  A    between atoms: C_2  and  C_3 
REMARK    2  A    between atoms: C_3  and  N_4 
REMARK    3  A    between atoms: N_4  and  C_6 
REMARK    4  A    between atoms: N_4  and  C_30 
REMARK    5  A    between atoms: C_6  and  C_7 
REMARK    6  A    between atoms: N_8  and  C_9 
REMARK    7  A    between atoms: C_13  and  N_14 
REMARK    8  A    between atoms: C_17  and  C_18 
REMARK       I    between atoms: C_18  and  N_19 
REMARK    9  A    between atoms: N_19  and  N_20 
REMARK   10  A    between atoms: C_21  and  C_22 
REMARK   11  A    between atoms: C_30  and  C_31 
ROOT
HETATM    1  C   UNL     1     -44.296  59.342 -51.706  1.00  0.00     0.096 A 
HETATM    2  N   UNL     1     -45.008  60.023 -50.722  1.00  0.00    -0.215 N 
HETATM    3  N   UNL     1     -45.877  59.158 -50.134  1.00  0.00     0.012 NA
HETATM    4  N   UNL     1     -45.697  57.948 -50.635  1.00  0.00    -0.152 NA
HETATM    5  C   UNL     1     -44.737  58.028 -51.601  1.00  0.00     0.170 A 
ENDROOT
BRANCH   5   6
HETATM    6  C   UNL     1     -44.249  56.882 -52.356  1.00  0.00     0.293 C 
HETATM    7  N   UNL     1     -43.617  55.924 -51.588  1.00  0.00    -0.242 N 
HETATM    8  H   UNL     1     -43.536  56.038 -50.581  1.00  0.00     0.192 HD
HETATM    9  O   UNL     1     -44.368  56.854 -53.579  1.00  0.00    -0.264 OA
BRANCH   7  10
HETATM   10  N   UNL     1     -43.010  54.877 -52.212  1.00  0.00    -0.184 NA
HETATM   11  C   UNL     1     -41.835  54.550 -51.778  1.00  0.00     0.150 C 
BRANCH  11  12
HETATM   12  C   UNL     1     -41.075  53.444 -52.395  1.00  0.00    -0.016 A 
HETATM   13  C   UNL     1     -40.643  52.388 -51.591  1.00  0.00     0.032 A 
HETATM   14  C   UNL     1     -39.909  51.351 -52.169  1.00  0.00     0.011 A 
HETATM   15 BR   UNL     1     -39.311  49.918 -51.091  1.00  0.00    -0.051 Br
HETATM   16  C   UNL     1     -39.610  51.361 -53.532  1.00  0.00     0.019 A 
HETATM   17  C   UNL     1     -40.046  52.418 -54.330  1.00  0.00     0.002 A 
HETATM   18  C   UNL     1     -40.778  53.461 -53.764  1.00  0.00     0.013 A 
ENDBRANCH  11  12
ENDBRANCH   7  10
ENDBRANCH   5   6
BRANCH   1  19
HETATM   19  C   UNL     1     -43.361  59.954 -52.686  1.00  0.00     0.296 C 
BRANCH  19  20
HETATM   20  N   UNL     1     -41.875  59.849 -52.356  1.00  0.00    -0.066 N 
HETATM   21  H   UNL     1     -41.545  60.812 -52.215  1.00  0.00     0.280 HD
BRANCH  20  22
HETATM   22  C   UNL     1     -41.117  59.252 -53.539  1.00  0.00     0.235 C 
BRANCH  22  23
HETATM   23  C   UNL     1     -40.793  57.773 -53.336  1.00  0.00     0.023 C 
HETATM   24  C   UNL     1     -41.118  56.911 -54.547  1.00  0.00     0.007 C 
ENDBRANCH  22  23
ENDBRANCH  20  22
BRANCH  20  25
HETATM   25  C   UNL     1     -41.619  59.051 -51.085  1.00  0.00     0.235 C 
BRANCH  25  26
HETATM   26  C   UNL     1     -40.685  59.764 -50.107  1.00  0.00     0.023 C 
HETATM   27  C   UNL     1     -39.209  59.616 -50.445  1.00  0.00     0.007 C 
ENDBRANCH  25  26
ENDBRANCH  20  25
ENDBRANCH  19  20
ENDBRANCH   1  19
BRANCH   2  28
HETATM   28  C   UNL     1     -44.871  61.365 -50.297  1.00  0.00     0.225 A 
HETATM   29  N   UNL     1     -43.896  61.696 -49.446  1.00  0.00    -0.081 NA
HETATM   30  O   UNL     1     -44.082  63.069 -49.249  1.00  0.00    -0.103 OA
HETATM   31  N   UNL     1     -45.180  63.532 -49.959  1.00  0.00    -0.083 NA
HETATM   32  C   UNL     1     -45.672  62.478 -50.607  1.00  0.00     0.201 A 
BRANCH  32  33
HETATM   33  N   UNL     1     -46.743  62.510 -51.413  1.00  0.00    -0.379 N 
HETATM   34  H   UNL     1     -47.631  62.119 -51.107  1.00  0.00     0.158 HD
HETATM   35  H   UNL     1     -46.715  62.792 -52.391  1.00  0.00     0.158 HD
ENDBRANCH  32  33
ENDBRANCH   2  28
TORSDOF 11
ENDMDL
MODEL 3
REMARK VINA RESULT:      -7.1      4.400      9.025
REMARK  11 active torsions:
REMARK  status: ('A' for Active; 'I' for Inactive)
REMARK    1  A    between atoms: C_2  and  C_3 
REMARK    2  A    between atoms: C_3  and  N_4 
REMARK    3  A    between atoms: N_4  and  C_6 
REMARK    4  A    between atoms: N_4  and  C_30 
REMARK    5  A    between atoms: C_6  and  C_7 
REMARK    6  A    between atoms: N_8  and  C_9 
REMARK    7  A    between atoms: C_13  and  N_14 
REMARK    8  A    between atoms: C_17  and  C_18 
REMARK       I    between atoms: C_18  and  N_19 
REMARK    9  A    between atoms: N_19  and  N_20 
REMARK   10  A    between atoms: C_21  and  C_22 
REMARK   11  A    between atoms: C_30  and  C_31 
ROOT
HETATM    1  C   UNL     1     -41.301  53.578 -53.295  1.00  0.00     0.096 A 
HETATM    2  N   UNL     1     -40.350  52.638 -53.681  1.00  0.00    -0.215 N 
HETATM    3  N   UNL     1     -39.709  53.095 -54.790  1.00  0.00     0.012 NA
HETATM    4  N   UNL     1     -40.145  54.310 -55.078  1.00  0.00    -0.152 NA
HETATM    5  C   UNL     1     -41.121  54.633 -54.183  1.00  0.00     0.170 A 
ENDROOT
BRANCH   5   6
HETATM    6  C   UNL     1     -41.816  55.913 -54.168  1.00  0.00     0.293 C 
HETATM    7  N   UNL     1     -41.018  56.989 -53.834  1.00  0.00    -0.242 N 
HETATM    8  H   UNL     1     -40.028  56.859 -53.641  1.00  0.00     0.192 HD
HETATM    9  O   UNL     1     -43.025  55.960 -54.385  1.00  0.00    -0.264 OA
BRANCH   7  10
HETATM   10  N   UNL     1     -41.596  58.210 -53.664  1.00  0.00    -0.184 NA
HETATM   11  C   UNL     1     -41.524  58.721 -52.478  1.00  0.00     0.150 C 
BRANCH  11  12
HETATM   12  C   UNL     1     -42.136  60.031 -52.174  1.00  0.00    -0.016 A 
HETATM   13  C   UNL     1     -42.554  60.845 -53.228  1.00  0.00     0.032 A 
HETATM   14  C   UNL     1     -43.115  62.090 -52.943  1.00  0.00     0.011 A 
HETATM   15 BR   UNL     1     -43.679  63.206 -54.362  1.00  0.00    -0.051 Br
HETATM   16  C   UNL     1     -43.265  62.522 -51.625  1.00  0.00     0.019 A 
HETATM   17  C   UNL     1     -42.847  61.703 -50.576  1.00  0.00     0.002 A 
HETATM   18  C   UNL     1     -42.282  60.458 -50.848  1.00  0.00     0.013 A 
ENDBRANCH  11  12
ENDBRANCH   7  10
ENDBRANCH   5   6
BRANCH   1  19
HETATM   19  C   UNL     1     -42.320  53.400 -52.228  1.00  0.00     0.296 C 
BRANCH  19  20
HETATM   20  N   UNL     1     -41.937  53.899 -50.839  1.00  0.00    -0.066 N 
HETATM   21  H   UNL     1     -41.810  53.060 -50.258  1.00  0.00     0.280 HD
BRANCH  20  22
HETATM   22  C   UNL     1     -43.077  54.724 -50.246  1.00  0.00     0.235 C 
BRANCH  22  23
HETATM   23  C   UNL     1     -42.985  56.200 -50.628  1.00  0.00     0.023 C 
HETATM   24  C   UNL     1     -44.301  56.777 -51.130  1.00  0.00     0.007 C 
ENDBRANCH  22  23
ENDBRANCH  20  22
BRANCH  20  25
HETATM   25  C   UNL     1     -40.636  54.691 -50.846  1.00  0.00     0.235 C 
BRANCH  25  26
HETATM   26  C   UNL     1     -39.657  54.247 -49.759  1.00  0.00     0.023 C 
HETATM   27  C   UNL     1     -40.292  54.084 -48.387  1.00  0.00     0.007 C 
ENDBRANCH  25  26
ENDBRANCH  20  25
ENDBRANCH  19  20
ENDBRANCH   1  19
BRANCH   2  28
HETATM   28  C   UNL     1     -40.000  51.420 -53.053  1.00  0.00     0.225 A 
HETATM   29  N   UNL     1     -39.675  51.412 -51.758  1.00  0.00    -0.081 NA
HETATM   30  O   UNL     1     -39.381  50.068 -51.500  1.00  0.00    -0.103 OA
HETATM   31  N   UNL     1     -39.507  49.299 -52.648  1.00  0.00    -0.083 NA
HETATM   32  C   UNL     1     -39.887  50.136 -53.611  1.00  0.00     0.201 A 
BRANCH  32  33
HETATM   33  N   UNL     1     -40.121  49.778 -54.883  1.00  0.00    -0.379 N 
HETATM   34  H   UNL     1     -40.268  50.486 -55.598  1.00  0.00     0.158 HD
HETATM   35  H   UNL     1     -40.293  48.822 -55.186  1.00  0.00     0.158 HD
ENDBRANCH  32  33
ENDBRANCH   2  28
TORSDOF 11
ENDMDL
MODEL 4
REMARK VINA RESULT:      -7.0      1.212      1.773
REMARK  11 active torsions:
REMARK  status: ('A' for Active; 'I' for Inactive)
REMARK    1  A    between atoms: C_2  and  C_3 
REMARK    2  A    between atoms: C_3  and  N_4 
REMARK    3  A    between atoms: N_4  and  C_6 
REMARK    4  A    between atoms: N_4  and  C_30 
REMARK    5  A    between atoms: C_6  and  C_7 
REMARK    6  A    between atoms: N_8  and  C_9 
REMARK    7  A    between atoms: C_13  and  N_14 
REMARK    8  A    between atoms: C_17  and  C_18 
REMARK       I    between atoms: C_18  and  N_19 
REMARK    9  A    between atoms: N_19  and  N_20 
REMARK   10  A    between atoms: C_21  and  C_22 
REMARK   11  A    between atoms: C_30  and  C_31 
ROOT
HETATM    1  C   UNL     1     -44.350  59.636 -51.191  1.00  0.00     0.096 A 
HETATM    2  N   UNL     1     -45.153  60.245 -50.230  1.00  0.00    -0.215 N 
HETATM    3  N   UNL     1     -46.169  59.399 -49.910  1.00  0.00     0.012 NA
HETATM    4  N   UNL     1     -46.005  58.255 -50.555  1.00  0.00    -0.152 NA
HETATM    5  C   UNL     1     -44.903  58.370 -51.348  1.00  0.00     0.170 A 
ENDROOT
BRANCH   5   6
HETATM    6  C   UNL     1     -44.391  57.294 -52.186  1.00  0.00     0.293 C 
HETATM    7  N   UNL     1     -43.756  56.284 -51.490  1.00  0.00    -0.242 N 
HETATM    8  H   UNL     1     -43.689  56.318 -50.475  1.00  0.00     0.192 HD
HETATM    9  O   UNL     1     -44.495  57.363 -53.409  1.00  0.00    -0.264 OA
BRANCH   7  10
HETATM   10  N   UNL     1     -43.129  55.298 -52.187  1.00  0.00    -0.184 NA
HETATM   11  C   UNL     1     -42.030  54.842 -51.679  1.00  0.00     0.150 C 
BRANCH  11  12
HETATM   12  C   UNL     1     -41.254  53.787 -52.362  1.00  0.00    -0.016 A 
HETATM   13  C   UNL     1     -40.783  52.703 -51.618  1.00  0.00     0.032 A 
HETATM   14  C   UNL     1     -40.035  51.715 -52.258  1.00  0.00     0.011 A 
HETATM   15 BR   UNL     1     -39.386  50.244 -51.261  1.00  0.00    -0.051 Br
HETATM   16  C   UNL     1     -39.758  51.799 -53.623  1.00  0.00     0.019 A 
HETATM   17  C   UNL     1     -40.233  52.883 -54.361  1.00  0.00     0.002 A 
HETATM   18  C   UNL     1     -40.980  53.879 -53.732  1.00  0.00     0.013 A 
ENDBRANCH  11  12
ENDBRANCH   7  10
ENDBRANCH   5   6
BRANCH   1  19
HETATM   19  C   UNL     1     -43.228  60.279 -51.922  1.00  0.00     0.296 C 
BRANCH  19  20
HETATM   20  N   UNL     1     -43.213  60.090 -53.436  1.00  0.00    -0.066 N 
HETATM   21  H   UNL     1     -43.719  59.215 -53.620  1.00  0.00     0.280 HD
BRANCH  20  22
HETATM   22  C   UNL     1     -41.777  59.925 -53.929  1.00  0.00     0.235 C 
BRANCH  22  23
HETATM   23  C   UNL     1     -40.956  59.002 -53.030  1.00  0.00     0.023 C 
HETATM   24  C   UNL     1     -40.739  57.618 -53.622  1.00  0.00     0.007 C 
ENDBRANCH  22  23
ENDBRANCH  20  22
BRANCH  20  25
HETATM   25  C   UNL     1     -43.914  61.226 -54.169  1.00  0.00     0.235 C 
BRANCH  25  26
HETATM   26  C   UNL     1     -43.229  62.579 -53.972  1.00  0.00     0.023 C 
HETATM   27  C   UNL     1     -44.184  63.705 -53.608  1.00  0.00     0.007 C 
ENDBRANCH  25  26
ENDBRANCH  20  25
ENDBRANCH  19  20
ENDBRANCH   1  19
BRANCH   2  28
HETATM   28  C   UNL     1     -44.983  61.497 -49.595  1.00  0.00     0.225 A 
HETATM   29  N   UNL     1     -45.022  62.618 -50.318  1.00  0.00    -0.081 NA
HETATM   30  O   UNL     1     -44.804  63.628 -49.373  1.00  0.00    -0.103 OA
HETATM   31  N   UNL     1     -44.609  63.095 -48.107  1.00  0.00    -0.083 NA
HETATM   32  C   UNL     1     -44.717  61.775 -48.243  1.00  0.00     0.201 A 
BRANCH  32  33
HETATM   33  N   UNL     1     -44.595  60.893 -47.240  1.00  0.00    -0.379 N 
HETATM   34  H   UNL     1     -45.347  60.240 -47.034  1.00  0.00     0.158 HD
HETATM   35  H   UNL     1     -43.836  60.899 -46.561  1.00  0.00     0.158 HD
ENDBRANCH  32  33
ENDBRANCH   2  28
TORSDOF 11
ENDMDL
MODEL 5
REMARK VINA RESULT:      -7.0      5.029      7.420
REMARK  11 active torsions:
REMARK  status: ('A' for Active; 'I' for Inactive)
REMARK    1  A    between atoms: C_2  and  C_3 
REMARK    2  A    between atoms: C_3  and  N_4 
REMARK    3  A    between atoms: N_4  and  C_6 
REMARK    4  A    between atoms: N_4  and  C_30 
REMARK    5  A    between atoms: C_6  and  C_7 
REMARK    6  A    between atoms: N_8  and  C_9 
REMARK    7  A    between atoms: C_13  and  N_14 
REMARK    8  A    between atoms: C_17  and  C_18 
REMARK       I    between atoms: C_18  and  N_19 
REMARK    9  A    between atoms: N_19  and  N_20 
REMARK   10  A    between atoms: C_21  and  C_22 
REMARK   11  A    between atoms: C_30  and  C_31 
ROOT
HETATM    1  C   UNL     1     -42.660  57.845 -58.415  1.00  0.00     0.096 A 
HETATM    2  N   UNL     1     -42.955  57.885 -59.775  1.00  0.00    -0.215 N 
HETATM    3  N   UNL     1     -43.300  56.635 -60.183  1.00  0.00     0.012 NA
HETATM    4  N   UNL     1     -43.319  55.823 -59.140  1.00  0.00    -0.152 NA
HETATM    5  C   UNL     1     -42.930  56.533 -58.044  1.00  0.00     0.170 A 
ENDROOT
BRANCH   5   6
HETATM    6  C   UNL     1     -42.860  55.976 -56.699  1.00  0.00     0.293 C 
HETATM    7  N   UNL     1     -41.728  55.224 -56.454  1.00  0.00    -0.242 N 
HETATM    8  H   UNL     1     -41.018  55.108 -57.173  1.00  0.00     0.192 HD
HETATM    9  O   UNL     1     -43.789  56.147 -55.913  1.00  0.00    -0.264 OA
BRANCH   7  10
HETATM   10  N   UNL     1     -41.628  54.552 -55.275  1.00  0.00    -0.184 NA
HETATM   11  C   UNL     1     -40.485  53.998 -55.023  1.00  0.00     0.150 C 
BRANCH  11  12
HETATM   12  C   UNL     1     -40.270  53.225 -53.783  1.00  0.00    -0.016 A 
HETATM   13  C   UNL     1     -40.475  53.848 -52.551  1.00  0.00     0.032 A 
HETATM   14  C   UNL     1     -40.255  53.124 -51.379  1.00  0.00     0.011 A 
HETATM   15 BR   UNL     1     -40.523  53.959 -49.703  1.00  0.00    -0.051 Br
HETATM   16  C   UNL     1     -39.838  51.794 -51.428  1.00  0.00     0.019 A 
HETATM   17  C   UNL     1     -39.636  51.176 -52.662  1.00  0.00     0.002 A 
HETATM   18  C   UNL     1     -39.850  51.890 -53.841  1.00  0.00     0.013 A 
ENDBRANCH  11  12
ENDBRANCH   7  10
ENDBRANCH   5   6
BRANCH   1  19
HETATM   19  C   UNL     1     -42.092  58.961 -57.614  1.00  0.00     0.296 C 
BRANCH  19  20
HETATM   20  N   UNL     1     -43.094  59.828 -56.859  1.00  0.00    -0.066 N 
HETATM   21  H   UNL     1     -42.736  60.790 -56.911  1.00  0.00     0.280 HD
BRANCH  20  22
HETATM   22  C   UNL     1     -43.142  59.415 -55.390  1.00  0.00     0.235 C 
BRANCH  22  23
HETATM   23  C   UNL     1     -41.749  59.211 -54.797  1.00  0.00     0.023 C 
HETATM   24  C   UNL     1     -41.675  58.055 -53.811  1.00  0.00     0.007 C 
ENDBRANCH  22  23
ENDBRANCH  20  22
BRANCH  20  25
HETATM   25  C   UNL     1     -44.482  59.786 -57.484  1.00  0.00     0.235 C 
BRANCH  25  26
HETATM   26  C   UNL     1     -45.534  59.161 -56.566  1.00  0.00     0.023 C 
HETATM   27  C   UNL     1     -46.464  58.186 -57.270  1.00  0.00     0.007 C 
ENDBRANCH  25  26
ENDBRANCH  20  25
ENDBRANCH  19  20
ENDBRANCH   1  19
BRANCH   2  28
HETATM   28  C   UNL     1     -42.979  59.000 -60.645  1.00  0.00     0.225 A 
HETATM   29  N   UNL     1     -41.834  59.571 -61.023  1.00  0.00    -0.081 NA
HETATM   30  O   UNL     1     -42.246  60.624 -61.848  1.00  0.00    -0.103 OA
HETATM   31  N   UNL     1     -43.630  60.684 -61.928  1.00  0.00    -0.083 NA
HETATM   32  C   UNL     1     -44.086  59.680 -61.181  1.00  0.00     0.201 A 
BRANCH  32  33
HETATM   33  N   UNL     1     -45.383  59.393 -61.001  1.00  0.00    -0.379 N 
HETATM   34  H   UNL     1     -45.670  58.457 -60.724  1.00  0.00     0.158 HD
HETATM   35  H   UNL     1     -46.148  60.020 -61.243  1.00  0.00     0.158 HD
ENDBRANCH  32  33
ENDBRANCH   2  28
TORSDOF 11
ENDMDL
MODEL 6
REMARK VINA RESULT:      -6.9      4.955      6.715
REMARK  11 active torsions:
REMARK  status: ('A' for Active; 'I' for Inactive)
REMARK    1  A    between atoms: C_2  and  C_3 
REMARK    2  A    between atoms: C_3  and  N_4 
REMARK    3  A    between atoms: N_4  and  C_6 
REMARK    4  A    between atoms: N_4  and  C_30 
REMARK    5  A    between atoms: C_6  and  C_7 
REMARK    6  A    between atoms: N_8  and  C_9 
REMARK    7  A    between atoms: C_13  and  N_14 
REMARK    8  A    between atoms: C_17  and  C_18 
REMARK       I    between atoms: C_18  and  N_19 
REMARK    9  A    between atoms: N_19  and  N_20 
REMARK   10  A    between atoms: C_21  and  C_22 
REMARK   11  A    between atoms: C_30  and  C_31 
ROOT
HETATM    1  C   UNL     1     -44.858  57.962 -57.207  1.00  0.00     0.096 A 
HETATM    2  N   UNL     1     -45.650  59.054 -56.861  1.00  0.00    -0.215 N 
HETATM    3  N   UNL     1     -45.563  59.249 -55.518  1.00  0.00     0.012 NA
HETATM    4  N   UNL     1     -44.694  58.393 -55.007  1.00  0.00    -0.152 NA
HETATM    5  C   UNL     1     -44.247  57.591 -56.015  1.00  0.00     0.170 A 
ENDROOT
BRANCH   5   6
HETATM    6  C   UNL     1     -43.251  56.543 -55.835  1.00  0.00     0.293 C 
HETATM    7  N   UNL     1     -43.672  55.489 -55.048  1.00  0.00    -0.242 N 
HETATM    8  H   UNL     1     -44.612  55.475 -54.661  1.00  0.00     0.192 HD
HETATM    9  O   UNL     1     -42.129  56.670 -56.320  1.00  0.00    -0.264 OA
BRANCH   7  10
HETATM   10  N   UNL     1     -42.775  54.521 -54.711  1.00  0.00    -0.184 NA
HETATM   11  C   UNL     1     -42.309  54.563 -53.505  1.00  0.00     0.150 C 
BRANCH  11  12
HETATM   12  C   UNL     1     -41.313  53.577 -53.038  1.00  0.00    -0.016 A 
HETATM   13  C   UNL     1     -41.006  52.485 -53.853  1.00  0.00     0.032 A 
HETATM   14  C   UNL     1     -40.080  51.543 -53.405  1.00  0.00     0.011 A 
HETATM   15 BR   UNL     1     -39.660  50.056 -54.496  1.00  0.00    -0.051 Br
HETATM   16  C   UNL     1     -39.461  51.683 -52.163  1.00  0.00     0.019 A 
HETATM   17  C   UNL     1     -39.770  52.777 -51.354  1.00  0.00     0.002 A 
HETATM   18  C   UNL     1     -40.697  53.724 -51.789  1.00  0.00     0.013 A 
ENDBRANCH  11  12
ENDBRANCH   7  10
ENDBRANCH   5   6
BRANCH   1  19
HETATM   19  C   UNL     1     -44.795  57.320 -58.546  1.00  0.00     0.296 C 
BRANCH  19  20
HETATM   20  N   UNL     1     -43.426  57.294 -59.217  1.00  0.00    -0.066 N 
HETATM   21  H   UNL     1     -42.745  57.532 -58.487  1.00  0.00     0.280 HD
BRANCH  20  22
HETATM   22  C   UNL     1     -43.356  58.364 -60.305  1.00  0.00     0.235 C 
BRANCH  22  23
HETATM   23  C   UNL     1     -42.166  59.304 -60.118  1.00  0.00     0.023 C 
HETATM   24  C   UNL     1     -41.818  59.556 -58.659  1.00  0.00     0.007 C 
ENDBRANCH  22  23
ENDBRANCH  20  22
BRANCH  20  25
HETATM   25  C   UNL     1     -43.084  55.921 -59.780  1.00  0.00     0.235 C 
BRANCH  25  26
HETATM   26  C   UNL     1     -44.279  54.968 -59.806  1.00  0.00     0.023 C 
HETATM   27  C   UNL     1     -44.970  54.883 -61.158  1.00  0.00     0.007 C 
ENDBRANCH  25  26
ENDBRANCH  20  25
ENDBRANCH  19  20
ENDBRANCH   1  19
BRANCH   2  28
HETATM   28  C   UNL     1     -46.400  59.908 -57.703  1.00  0.00     0.225 A 
HETATM   29  N   UNL     1     -47.684  59.637 -57.948  1.00  0.00    -0.081 NA
HETATM   30  O   UNL     1     -48.079  60.666 -58.811  1.00  0.00    -0.103 OA
HETATM   31  N   UNL     1     -47.021  61.518 -59.092  1.00  0.00    -0.083 NA
HETATM   32  C   UNL     1     -45.979  61.048 -58.409  1.00  0.00     0.201 A 
BRANCH  32  33
HETATM   33  N   UNL     1     -44.756  61.598 -58.410  1.00  0.00    -0.379 N 
HETATM   34  H   UNL     1     -44.072  61.332 -59.116  1.00  0.00     0.158 HD
HETATM   35  H   UNL     1     -44.394  62.191 -57.666  1.00  0.00     0.158 HD
ENDBRANCH  32  33
ENDBRANCH   2  28
TORSDOF 11
ENDMDL
MODEL 7
REMARK VINA RESULT:      -6.9      5.040      7.278
REMARK  11 active torsions:
REMARK  status: ('A' for Active; 'I' for Inactive)
REMARK    1  A    between atoms: C_2  and  C_3 
REMARK    2  A    between atoms: C_3  and  N_4 
REMARK    3  A    between atoms: N_4  and  C_6 
REMARK    4  A    between atoms: N_4  and  C_30 
REMARK    5  A    between atoms: C_6  and  C_7 
REMARK    6  A    between atoms: N_8  and  C_9 
REMARK    7  A    between atoms: C_13  and  N_14 
REMARK    8  A    between atoms: C_17  and  C_18 
REMARK       I    between atoms: C_18  and  N_19 
REMARK    9  A    between atoms: N_19  and  N_20 
REMARK   10  A    between atoms: C_21  and  C_22 
REMARK   11  A    between atoms: C_30  and  C_31 
ROOT
HETATM    1  C   UNL     1     -44.348  57.279 -58.071  1.00  0.00     0.096 A 
HETATM    2  N   UNL     1     -44.612  57.300 -59.437  1.00  0.00    -0.215 N 
HETATM    3  N   UNL     1     -43.673  56.550 -60.075  1.00  0.00     0.012 NA
HETATM    4  N   UNL     1     -42.880  55.988 -59.179  1.00  0.00    -0.152 NA
HETATM    5  C   UNL     1     -43.266  56.417 -57.943  1.00  0.00     0.170 A 
ENDROOT
BRANCH   5   6
HETATM    6  C   UNL     1     -42.639  55.981 -56.702  1.00  0.00     0.293 C 
HETATM    7  N   UNL     1     -43.024  54.723 -56.282  1.00  0.00    -0.242 N 
HETATM    8  H   UNL     1     -43.678  54.171 -56.832  1.00  0.00     0.192 HD
HETATM    9  O   UNL     1     -41.885  56.738 -56.095  1.00  0.00    -0.264 OA
BRANCH   7  10
HETATM   10  N   UNL     1     -42.598  54.276 -55.069  1.00  0.00    -0.184 NA
HETATM   11  C   UNL     1     -41.391  53.811 -55.018  1.00  0.00     0.150 C 
BRANCH  11  12
HETATM   12  C   UNL     1     -40.833  53.278 -53.758  1.00  0.00    -0.016 A 
HETATM   13  C   UNL     1     -40.996  54.011 -52.581  1.00  0.00     0.032 A 
HETATM   14  C   UNL     1     -40.453  53.518 -51.394  1.00  0.00     0.011 A 
HETATM   15 BR   UNL     1     -40.660  54.504 -49.793  1.00  0.00    -0.051 Br
HETATM   16  C   UNL     1     -39.758  52.308 -51.374  1.00  0.00     0.019 A 
HETATM   17  C   UNL     1     -39.601  51.580 -52.553  1.00  0.00     0.002 A 
HETATM   18  C   UNL     1     -40.136  52.064 -53.746  1.00  0.00     0.013 A 
ENDBRANCH  11  12
ENDBRANCH   7  10
ENDBRANCH   5   6
BRANCH   1  19
HETATM   19  C   UNL     1     -45.039  58.094 -57.037  1.00  0.00     0.296 C 
BRANCH  19  20
HETATM   20  N   UNL     1     -44.217  58.459 -55.805  1.00  0.00    -0.066 N 
HETATM   21  H   UNL     1     -43.416  57.815 -55.795  1.00  0.00     0.280 HD
BRANCH  20  22
HETATM   22  C   UNL     1     -45.038  58.221 -54.539  1.00  0.00     0.235 C 
BRANCH  22  23
HETATM   23  C   UNL     1     -44.404  57.175 -53.624  1.00  0.00     0.023 C 
HETATM   24  C   UNL     1     -43.940  57.740 -52.290  1.00  0.00     0.007 C 
ENDBRANCH  22  23
ENDBRANCH  20  22
BRANCH  20  25
HETATM   25  C   UNL     1     -43.697  59.889 -55.858  1.00  0.00     0.235 C 
BRANCH  25  26
HETATM   26  C   UNL     1     -42.425  60.096 -55.037  1.00  0.00     0.023 C 
HETATM   27  C   UNL     1     -42.613  60.994 -53.825  1.00  0.00     0.007 C 
ENDBRANCH  25  26
ENDBRANCH  20  25
ENDBRANCH  19  20
ENDBRANCH   1  19
BRANCH   2  28
HETATM   28  C   UNL     1     -45.683  57.917 -60.125  1.00  0.00     0.225 A 
HETATM   29  N   UNL     1     -45.571  59.185 -60.526  1.00  0.00    -0.081 NA
HETATM   30  O   UNL     1     -46.802  59.447 -61.139  1.00  0.00    -0.103 OA
HETATM   31  N   UNL     1     -47.640  58.343 -61.071  1.00  0.00    -0.083 NA
HETATM   32  C   UNL     1     -46.950  57.395 -60.440  1.00  0.00     0.201 A 
BRANCH  32  33
HETATM   33  N   UNL     1     -47.411  56.164 -60.176  1.00  0.00    -0.379 N 
HETATM   34  H   UNL     1     -47.689  55.544 -60.933  1.00  0.00     0.158 HD
HETATM   35  H   UNL     1     -47.632  55.824 -59.241  1.00  0.00     0.158 HD
ENDBRANCH  32  33
ENDBRANCH   2  28
TORSDOF 11
ENDMDL
MODEL 8
REMARK VINA RESULT:      -6.9      4.898      7.105
REMARK  11 active torsions:
REMARK  status: ('A' for Active; 'I' for Inactive)
REMARK    1  A    between atoms: C_2  and  C_3 
REMARK    2  A    between atoms: C_3  and  N_4 
REMARK    3  A    between atoms: N_4  and  C_6 
REMARK    4  A    between atoms: N_4  and  C_30 
REMARK    5  A    between atoms: C_6  and  C_7 
REMARK    6  A    between atoms: N_8  and  C_9 
REMARK    7  A    between atoms: C_13  and  N_14 
REMARK    8  A    between atoms: C_17  and  C_18 
REMARK       I    between atoms: C_18  and  N_19 
REMARK    9  A    between atoms: N_19  and  N_20 
REMARK   10  A    between atoms: C_21  and  C_22 
REMARK   11  A    between atoms: C_30  and  C_31 
ROOT
HETATM    1  C   UNL     1     -43.967  58.282 -57.107  1.00  0.00     0.096 A 
HETATM    2  N   UNL     1     -45.113  58.809 -57.695  1.00  0.00    -0.215 N 
HETATM    3  N   UNL     1     -46.192  58.445 -56.951  1.00  0.00     0.012 NA
HETATM    4  N   UNL     1     -45.783  57.788 -55.879  1.00  0.00    -0.152 NA
HETATM    5  C   UNL     1     -44.427  57.670 -55.947  1.00  0.00     0.170 A 
ENDROOT
BRANCH   5   6
HETATM    6  C   UNL     1     -43.616  57.028 -54.920  1.00  0.00     0.293 C 
HETATM    7  N   UNL     1     -43.420  55.675 -55.115  1.00  0.00    -0.242 N 
HETATM    8  H   UNL     1     -43.809  55.207 -55.930  1.00  0.00     0.192 HD
HETATM    9  O   UNL     1     -43.219  57.676 -53.954  1.00  0.00    -0.264 OA
BRANCH   7  10
HETATM   10  N   UNL     1     -42.788  54.956 -54.147  1.00  0.00    -0.184 NA
HETATM   11  C   UNL     1     -41.829  54.180 -54.539  1.00  0.00     0.150 C 
BRANCH  11  12
HETATM   12  C   UNL     1     -41.089  53.336 -53.578  1.00  0.00    -0.016 A 
HETATM   13  C   UNL     1     -41.082  53.694 -52.228  1.00  0.00     0.032 A 
HETATM   14  C   UNL     1     -40.370  52.909 -51.322  1.00  0.00     0.011 A 
HETATM   15 BR   UNL     1     -40.345  53.385 -49.492  1.00  0.00    -0.051 Br
HETATM   16  C   UNL     1     -39.673  51.778 -51.749  1.00  0.00     0.019 A 
HETATM   17  C   UNL     1     -39.686  51.425 -53.098  1.00  0.00     0.002 A 
HETATM   18  C   UNL     1     -40.393  52.203 -54.014  1.00  0.00     0.013 A 
ENDBRANCH  11  12
ENDBRANCH   7  10
ENDBRANCH   5   6
BRANCH   1  19
HETATM   19  C   UNL     1     -42.598  58.313 -57.685  1.00  0.00     0.296 C 
BRANCH  19  20
HETATM   20  N   UNL     1     -42.243  57.178 -58.640  1.00  0.00    -0.066 N 
HETATM   21  H   UNL     1     -41.337  56.811 -58.324  1.00  0.00     0.280 HD
BRANCH  20  22
HETATM   22  C   UNL     1     -42.072  57.720 -60.057  1.00  0.00     0.235 C 
BRANCH  22  23
HETATM   23  C   UNL     1     -41.840  59.230 -60.078  1.00  0.00     0.023 C 
HETATM   24  C   UNL     1     -42.097  59.862 -61.437  1.00  0.00     0.007 C 
ENDBRANCH  22  23
ENDBRANCH  20  22
BRANCH  20  25
HETATM   25  C   UNL     1     -43.267  56.051 -58.607  1.00  0.00     0.235 C 
BRANCH  25  26
HETATM   26  C   UNL     1     -43.604  55.505 -59.994  1.00  0.00     0.023 C 
HETATM   27  C   UNL     1     -44.804  54.571 -60.015  1.00  0.00     0.007 C 
ENDBRANCH  25  26
ENDBRANCH  20  25
ENDBRANCH  19  20
ENDBRANCH   1  19
BRANCH   2  28
HETATM   28  C   UNL     1     -45.224  59.641 -58.833  1.00  0.00     0.225 A 
HETATM   29  N   UNL     1     -45.006  60.953 -58.719  1.00  0.00    -0.081 NA
HETATM   30  O   UNL     1     -45.217  61.436 -60.016  1.00  0.00    -0.103 OA
HETATM   31  N   UNL     1     -45.586  60.413 -60.877  1.00  0.00    -0.083 NA
HETATM   32  C   UNL     1     -45.594  59.300 -60.146  1.00  0.00     0.201 A 
BRANCH  32  33
HETATM   33  N   UNL     1     -45.899  58.082 -60.615  1.00  0.00    -0.379 N 
HETATM   34  H   UNL     1     -45.222  57.324 -60.559  1.00  0.00     0.158 HD
HETATM   35  H   UNL     1     -46.736  57.869 -61.154  1.00  0.00     0.158 HD
ENDBRANCH  32  33
ENDBRANCH   2  28
TORSDOF 11
ENDMDL
MODEL 9
REMARK VINA RESULT:      -6.9      3.640      5.514
REMARK  11 active torsions:
REMARK  status: ('A' for Active; 'I' for Inactive)
REMARK    1  A    between atoms: C_2  and  C_3 
REMARK    2  A    between atoms: C_3  and  N_4 
REMARK    3  A    between atoms: N_4  and  C_6 
REMARK    4  A    between atoms: N_4  and  C_30 
REMARK    5  A    between atoms: C_6  and  C_7 
REMARK    6  A    between atoms: N_8  and  C_9 
REMARK    7  A    between atoms: C_13  and  N_14 
REMARK    8  A    between atoms: C_17  and  C_18 
REMARK       I    between atoms: C_18  and  N_19 
REMARK    9  A    between atoms: N_19  and  N_20 
REMARK   10  A    between atoms: C_21  and  C_22 
REMARK   11  A    between atoms: C_30  and  C_31 
ROOT
HETATM    1  C   UNL     1     -42.428  60.315 -55.271  1.00  0.00     0.096 A 
HETATM    2  N   UNL     1     -43.055  61.557 -55.223  1.00  0.00    -0.215 N 
HETATM    3  N   UNL     1     -43.112  61.967 -53.928  1.00  0.00     0.012 NA
HETATM    4  N   UNL     1     -42.481  61.092 -53.163  1.00  0.00    -0.152 NA
HETATM    5  C   UNL     1     -42.053  60.069 -53.955  1.00  0.00     0.170 A 
ENDROOT
BRANCH   5   6
HETATM    6  C   UNL     1     -41.288  58.930 -53.466  1.00  0.00     0.293 C 
HETATM    7  N   UNL     1     -42.058  57.845 -53.097  1.00  0.00    -0.242 N 
HETATM    8  H   UNL     1     -43.070  57.872 -53.193  1.00  0.00     0.192 HD
HETATM    9  O   UNL     1     -40.066  59.009 -53.357  1.00  0.00    -0.264 OA
BRANCH   7  10
HETATM   10  N   UNL     1     -41.452  56.779 -52.505  1.00  0.00    -0.184 NA
HETATM   11  C   UNL     1     -41.526  55.651 -53.135  1.00  0.00     0.150 C 
BRANCH  11  12
HETATM   12  C   UNL     1     -40.924  54.424 -52.575  1.00  0.00    -0.016 A 
HETATM   13  C   UNL     1     -40.675  53.343 -53.423  1.00  0.00     0.032 A 
HETATM   14  C   UNL     1     -40.123  52.177 -52.892  1.00  0.00     0.011 A 
HETATM   15 BR   UNL     1     -39.788  50.702 -54.028  1.00  0.00    -0.051 Br
HETATM   16  C   UNL     1     -39.818  52.084 -51.534  1.00  0.00     0.019 A 
HETATM   17  C   UNL     1     -40.067  53.169 -50.692  1.00  0.00     0.002 A 
HETATM   18  C   UNL     1     -40.621  54.339 -51.211  1.00  0.00     0.013 A 
ENDBRANCH  11  12
ENDBRANCH   7  10
ENDBRANCH   5   6
BRANCH   1  19
HETATM   19  C   UNL     1     -42.303  59.448 -56.471  1.00  0.00     0.296 C 
BRANCH  19  20
HETATM   20  N   UNL     1     -43.590  58.801 -56.973  1.00  0.00    -0.066 N 
HETATM   21  H   UNL     1     -44.356  59.418 -56.675  1.00  0.00     0.280 HD
BRANCH  20  22
HETATM   22  C   UNL     1     -43.786  57.440 -56.307  1.00  0.00     0.235 C 
BRANCH  22  23
HETATM   23  C   UNL     1     -42.543  56.558 -56.412  1.00  0.00     0.023 C 
HETATM   24  C   UNL     1     -42.864  55.082 -56.599  1.00  0.00     0.007 C 
ENDBRANCH  22  23
ENDBRANCH  20  22
BRANCH  20  25
HETATM   25  C   UNL     1     -43.623  58.676 -58.490  1.00  0.00     0.235 C 
BRANCH  25  26
HETATM   26  C   UNL     1     -42.250  58.857 -59.137  1.00  0.00     0.023 C 
HETATM   27  C   UNL     1     -41.831  57.700 -60.030  1.00  0.00     0.007 C 
ENDBRANCH  25  26
ENDBRANCH  20  25
ENDBRANCH  19  20
ENDBRANCH   1  19
BRANCH   2  28
HETATM   28  C   UNL     1     -43.527  62.354 -56.291  1.00  0.00     0.225 A 
HETATM   29  N   UNL     1     -44.475  61.881 -57.104  1.00  0.00    -0.081 NA
HETATM   30  O   UNL     1     -44.668  62.918 -58.024  1.00  0.00    -0.103 OA
HETATM   31  N   UNL     1     -43.816  63.981 -57.766  1.00  0.00    -0.083 NA
HETATM   32  C   UNL     1     -43.106  63.633 -56.695  1.00  0.00     0.201 A 
BRANCH  32  33
HETATM   33  N   UNL     1     -42.165  64.398 -56.122  1.00  0.00    -0.379 N 
HETATM   34  H   UNL     1     -41.211  64.058 -56.028  1.00  0.00     0.158 HD
HETATM   35  H   UNL     1     -42.355  65.276 -55.643  1.00  0.00     0.158 HD
ENDBRANCH  32  33
ENDBRANCH   2  28
TORSDOF 11
ENDMDL
MODEL 10
REMARK VINA RESULT:      -6.9      2.739      4.479
REMARK  11 active torsions:
REMARK  status: ('A' for Active; 'I' for Inactive)
REMARK    1  A    between atoms: C_2  and  C_3 
REMARK    2  A    between atoms: C_3  and  N_4 
REMARK    3  A    between atoms: N_4  and  C_6 
REMARK    4  A    between atoms: N_4  and  C_30 
REMARK    5  A    between atoms: C_6  and  C_7 
REMARK    6  A    between atoms: N_8  and  C_9 
REMARK    7  A    between atoms: C_13  and  N_14 
REMARK    8  A    between atoms: C_17  and  C_18 
REMARK       I    between atoms: C_18  and  N_19 
REMARK    9  A    between atoms: N_19  and  N_20 
REMARK   10  A    between atoms: C_21  and  C_22 
REMARK   11  A    between atoms: C_30  and  C_31 
ROOT
HETATM    1  C   UNL     1     -42.679  60.649 -53.806  1.00  0.00     0.096 A 
HETATM    2  N   UNL     1     -43.237  61.408 -54.831  1.00  0.00    -0.215 N 
HETATM    3  N   UNL     1     -42.639  61.065 -56.003  1.00  0.00     0.012 NA
HETATM    4  N   UNL     1     -41.792  60.072 -55.789  1.00  0.00    -0.152 NA
HETATM    5  C   UNL     1     -41.793  59.796 -54.454  1.00  0.00     0.170 A 
ENDROOT
BRANCH   5   6
HETATM    6  C   UNL     1     -41.001  58.735 -53.845  1.00  0.00     0.293 C 
HETATM    7  N   UNL     1     -41.520  57.468 -54.019  1.00  0.00    -0.242 N 
HETATM    8  H   UNL     1     -42.376  57.327 -54.551  1.00  0.00     0.192 HD
HETATM    9  O   UNL     1     -39.997  59.013 -53.193  1.00  0.00    -0.264 OA
BRANCH   7  10
HETATM   10  N   UNL     1     -40.929  56.421 -53.381  1.00  0.00    -0.184 NA
HETATM   11  C   UNL     1     -41.318  55.238 -53.732  1.00  0.00     0.150 C 
BRANCH  11  12
HETATM   12  C   UNL     1     -40.761  54.030 -53.089  1.00  0.00    -0.016 A 
HETATM   13  C   UNL     1     -40.530  52.894 -53.866  1.00  0.00     0.032 A 
HETATM   14  C   UNL     1     -40.020  51.747 -53.258  1.00  0.00     0.011 A 
HETATM   15 BR   UNL     1     -39.709  50.198 -54.298  1.00  0.00    -0.051 Br
HETATM   16  C   UNL     1     -39.739  51.727 -51.891  1.00  0.00     0.019 A 
HETATM   17  C   UNL     1     -39.970  52.866 -51.120  1.00  0.00     0.002 A 
HETATM   18  C   UNL     1     -40.481  54.018 -51.717  1.00  0.00     0.013 A 
ENDBRANCH  11  12
ENDBRANCH   7  10
ENDBRANCH   5   6
BRANCH   1  19
HETATM   19  C   UNL     1     -42.939  60.822 -52.353  1.00  0.00     0.296 C 
BRANCH  19  20
HETATM   20  N   UNL     1     -44.091  60.009 -51.771  1.00  0.00    -0.066 N 
HETATM   21  H   UNL     1     -44.700  59.769 -52.563  1.00  0.00     0.280 HD
BRANCH  20  22
HETATM   22  C   UNL     1     -44.893  60.864 -50.793  1.00  0.00     0.235 C 
BRANCH  22  23
HETATM   23  C   UNL     1     -44.091  61.227 -49.544  1.00  0.00     0.023 C 
HETATM   24  C   UNL     1     -44.497  62.557 -48.930  1.00  0.00     0.007 C 
ENDBRANCH  22  23
ENDBRANCH  20  22
BRANCH  20  25
HETATM   25  C   UNL     1     -43.616  58.723 -51.110  1.00  0.00     0.235 C 
BRANCH  25  26
HETATM   26  C   UNL     1     -44.286  57.472 -51.680  1.00  0.00     0.023 C 
HETATM   27  C   UNL     1     -43.776  56.172 -51.079  1.00  0.00     0.007 C 
ENDBRANCH  25  26
ENDBRANCH  20  25
ENDBRANCH  19  20
ENDBRANCH   1  19
BRANCH   2  28
HETATM   28  C   UNL     1     -44.290  62.349 -54.766  1.00  0.00     0.225 A 
HETATM   29  N   UNL     1     -44.019  63.654 -54.845  1.00  0.00    -0.081 NA
HETATM   30  O   UNL     1     -45.275  64.260 -54.730  1.00  0.00    -0.103 OA
HETATM   31  N   UNL     1     -46.273  63.313 -54.554  1.00  0.00    -0.083 NA
HETATM   32  C   UNL     1     -45.665  62.129 -54.574  1.00  0.00     0.201 A 
BRANCH  32  33
HETATM   33  N   UNL     1     -46.288  60.949 -54.438  1.00  0.00    -0.379 N 
HETATM   34  H   UNL     1     -46.699  60.487 -55.246  1.00  0.00     0.158 HD
HETATM   35  H   UNL     1     -46.502  60.515 -53.542  1.00  0.00     0.158 HD
ENDBRANCH  32  33
ENDBRANCH   2  28
TORSDOF 11
ENDMDL
