MODEL 1
REMARK VINA RESULT:      -8.0      0.000      0.000
REMARK  8 active torsions:
REMARK  status: ('A' for Active; 'I' for Inactive)
REMARK    1  A    between atoms: C_2  and  O_3 
REMARK    2  A    between atoms: O_3  and  C_4 
REMARK    3  A    between atoms: C_5  and  O_6 
REMARK    4  A    between atoms: O_6  and  C_7 
REMARK       I    between atoms: C_7  and  N_8 
REMARK    5  A    between atoms: C_18  and  C_19 
REMARK    6  A    between atoms: C_23  and  N_24 
REMARK    7  A    between atoms: C_31  and  C_32 
REMARK    8  A    between atoms: C_35  and  O_36 
ROOT
HETATM    1  C   UNL     1     -41.974  57.658 -55.397  1.00  0.00     0.105 C 
HETATM    2  C   UNL     1     -42.390  58.305 -56.723  1.00  0.00     0.067 C 
HETATM    3  C   UNL     1     -42.173  59.800 -56.890  1.00  0.00     0.020 C 
HETATM    4  N   UNL     1     -41.993  61.040 -57.028  1.00  0.00    -0.096 N 
HETATM    5  C   UNL     1     -42.948  57.609 -57.748  1.00  0.00     0.139 C 
HETATM    6  O   UNL     1     -43.204  56.234 -57.651  1.00  0.00    -0.279 OA
HETATM    7  C   UNL     1     -43.003  55.680 -56.464  1.00  0.00     0.175 A 
HETATM    8  C   UNL     1     -42.470  56.243 -55.327  1.00  0.00     0.040 A 
HETATM    9  N   UNL     1     -43.347  54.407 -56.162  1.00  0.00    -0.256 N 
HETATM   10  H   UNL     1     -43.769  53.710 -56.767  1.00  0.00     0.191 HD
HETATM   11  N   UNL     1     -43.111  54.096 -54.881  1.00  0.00    -0.172 NA
HETATM   12  C   UNL     1     -42.574  55.209 -54.341  1.00  0.00     0.099 A 
ENDROOT
BRANCH   1  13
HETATM   13  C   UNL     1     -42.388  58.435 -54.153  1.00  0.00    -0.040 C 
HETATM   14  C   UNL     1     -43.674  58.953 -53.928  1.00  0.00     0.030 C 
HETATM   15  C   UNL     1     -44.016  59.470 -52.674  1.00  0.00     0.048 C 
HETATM   16  C   UNL     1     -43.053  59.560 -51.668  1.00  0.00     0.131 C 
HETATM   17 BR   UNL     1     -45.814  59.995 -52.369  1.00  0.00    -0.048 Br
HETATM   18  C   UNL     1     -41.717  59.232 -51.930  1.00  0.00     0.104 C 
HETATM   19  C   UNL     1     -41.409  58.629 -53.149  1.00  0.00     0.048 C 
BRANCH  16  20
HETATM   20  O   UNL     1     -43.427  60.021 -50.397  1.00  0.00    -0.257 OA
BRANCH  20  21
HETATM   21  C   UNL     1     -43.543  61.408 -50.320  1.00  0.00     0.368 C 
HETATM   22  N   UNL     1     -44.639  61.809 -49.574  1.00  0.00    -0.324 N 
HETATM   23  C   UNL     1     -45.310  60.949 -48.603  1.00  0.00     0.154 C 
HETATM   24  C   UNL     1     -44.895  63.232 -49.377  1.00  0.00     0.154 C 
HETATM   25  C   UNL     1     -44.959  61.415 -47.181  1.00  0.00     0.187 C 
HETATM   26  O   UNL     1     -45.274  62.808 -46.998  1.00  0.00    -0.388 OA
HETATM   27  C   UNL     1     -44.553  63.629 -47.938  1.00  0.00     0.187 C 
HETATM   28  O   UNL     1     -42.774  62.208 -50.847  1.00  0.00    -0.238 OA
ENDBRANCH  20  21
ENDBRANCH  16  20
BRANCH  18  29
HETATM   29  O   UNL     1     -40.815  59.485 -50.932  1.00  0.00    -0.349 OA
BRANCH  29  30
HETATM   30  C   UNL     1     -39.440  59.174 -51.152  1.00  0.00     0.171 C 
HETATM   31  C   UNL     1     -38.542  59.872 -50.144  1.00  0.00     0.034 C 
ENDBRANCH  29  30
ENDBRANCH  18  29
ENDBRANCH   1  13
BRANCH   5  32
HETATM   32  N   UNL     1     -43.322  58.132 -58.964  1.00  0.00    -0.282 NA
HETATM   33  H   UNL     1     -42.717  57.915 -59.753  1.00  0.00     0.126 HD
HETATM   34  H   UNL     1     -44.308  57.984 -59.163  1.00  0.00     0.126 HD
ENDBRANCH   5  32
BRANCH  12  35
HETATM   35  C   UNL     1     -42.285  55.235 -52.906  1.00  0.00    -0.005 A 
HETATM   36  C   UNL     1     -41.054  54.835 -52.382  1.00  0.00     0.016 A 
HETATM   37  C   UNL     1     -40.803  54.955 -51.009  1.00  0.00     0.037 A 
HETATM   38  C   UNL     1     -41.775  55.458 -50.139  1.00  0.00     0.068 A 
HETATM   39  C   UNL     1     -43.013  55.835 -50.652  1.00  0.00     0.037 A 
HETATM   40  C   UNL     1     -43.264  55.723 -52.024  1.00  0.00     0.016 A 
BRANCH  38  41
HETATM   41  O   UNL     1     -41.399  55.525 -48.826  1.00  0.00    -0.356 OA
HETATM   42  C   UNL     1     -40.676  54.415 -48.308  1.00  0.00     0.210 C 
ENDBRANCH  38  41
ENDBRANCH  12  35
TORSDOF 8
ENDMDL
MODEL 2
REMARK VINA RESULT:      -7.9      1.432      2.419
REMARK  8 active torsions:
REMARK  status: ('A' for Active; 'I' for Inactive)
REMARK    1  A    between atoms: C_2  and  O_3 
REMARK    2  A    between atoms: O_3  and  C_4 
REMARK    3  A    between atoms: C_5  and  O_6 
REMARK    4  A    between atoms: O_6  and  C_7 
REMARK       I    between atoms: C_7  and  N_8 
REMARK    5  A    between atoms: C_18  and  C_19 
REMARK    6  A    between atoms: C_23  and  N_24 
REMARK    7  A    between atoms: C_31  and  C_32 
REMARK    8  A    between atoms: C_35  and  O_36 
ROOT
HETATM    1  C   UNL     1     -42.033  57.401 -54.993  1.00  0.00     0.105 C 
HETATM    2  C   UNL     1     -42.461  58.196 -56.232  1.00  0.00     0.067 C 
HETATM    3  C   UNL     1     -42.264  59.703 -56.219  1.00  0.00     0.020 C 
HETATM    4  N   UNL     1     -42.102  60.953 -56.209  1.00  0.00    -0.096 N 
HETATM    5  C   UNL     1     -43.013  57.619 -57.332  1.00  0.00     0.139 C 
HETATM    6  O   UNL     1     -43.249  56.240 -57.400  1.00  0.00    -0.279 OA
HETATM    7  C   UNL     1     -43.038  55.550 -56.287  1.00  0.00     0.175 A 
HETATM    8  C   UNL     1     -42.510  55.981 -55.092  1.00  0.00     0.040 A 
HETATM    9  N   UNL     1     -43.364  54.246 -56.140  1.00  0.00    -0.256 N 
HETATM   10  H   UNL     1     -43.778  53.621 -56.823  1.00  0.00     0.191 HD
HETATM   11  N   UNL     1     -43.121  53.787 -54.905  1.00  0.00    -0.172 NA
HETATM   12  C   UNL     1     -42.597  54.836 -54.237  1.00  0.00     0.099 A 
ENDROOT
BRANCH   1  13
HETATM   13  C   UNL     1     -42.455  58.018 -53.665  1.00  0.00    -0.040 C 
HETATM   14  C   UNL     1     -41.599  58.215 -52.569  1.00  0.00     0.030 C 
HETATM   15  C   UNL     1     -42.021  58.972 -51.472  1.00  0.00     0.048 C 
HETATM   16  C   UNL     1     -43.329  59.456 -51.418  1.00  0.00     0.131 C 
HETATM   17 BR   UNL     1     -40.769  59.356 -50.099  1.00  0.00    -0.048 Br
HETATM   18  C   UNL     1     -44.259  59.107 -52.405  1.00  0.00     0.104 C 
HETATM   19  C   UNL     1     -43.802  58.436 -53.539  1.00  0.00     0.048 C 
BRANCH  16  20
HETATM   20  O   UNL     1     -43.719  60.267 -50.341  1.00  0.00    -0.257 OA
BRANCH  20  21
HETATM   21  C   UNL     1     -43.689  61.630 -50.633  1.00  0.00     0.368 C 
HETATM   22  N   UNL     1     -44.716  62.328 -50.018  1.00  0.00    -0.324 N 
HETATM   23  C   UNL     1     -45.443  61.829 -48.854  1.00  0.00     0.154 C 
HETATM   24  C   UNL     1     -44.818  63.771 -50.204  1.00  0.00     0.154 C 
HETATM   25  C   UNL     1     -45.005  62.611 -47.606  1.00  0.00     0.187 C 
HETATM   26  O   UNL     1     -45.169  64.029 -47.796  1.00  0.00    -0.388 OA
HETATM   27  C   UNL     1     -44.396  64.493 -48.920  1.00  0.00     0.187 C 
HETATM   28  O   UNL     1     -42.858  62.177 -51.354  1.00  0.00    -0.238 OA
ENDBRANCH  20  21
ENDBRANCH  16  20
BRANCH  18  29
HETATM   29  O   UNL     1     -45.552  59.506 -52.200  1.00  0.00    -0.349 OA
BRANCH  29  30
HETATM   30  C   UNL     1     -46.093  60.537 -53.025  1.00  0.00     0.171 C 
HETATM   31  C   UNL     1     -47.202  61.296 -52.314  1.00  0.00     0.034 C 
ENDBRANCH  29  30
ENDBRANCH  18  29
ENDBRANCH   1  13
BRANCH   5  32
HETATM   32  N   UNL     1     -43.396  58.279 -58.477  1.00  0.00    -0.282 NA
HETATM   33  H   UNL     1     -43.416  59.295 -58.426  1.00  0.00     0.126 HD
HETATM   34  H   UNL     1     -42.920  57.929 -59.304  1.00  0.00     0.126 HD
ENDBRANCH   5  32
BRANCH  12  35
HETATM   35  C   UNL     1     -42.305  54.694 -52.809  1.00  0.00    -0.005 A 
HETATM   36  C   UNL     1     -41.009  54.508 -52.325  1.00  0.00     0.016 A 
HETATM   37  C   UNL     1     -40.776  54.458 -50.944  1.00  0.00     0.037 A 
HETATM   38  C   UNL     1     -41.828  54.576 -50.030  1.00  0.00     0.068 A 
HETATM   39  C   UNL     1     -43.125  54.736 -50.508  1.00  0.00     0.037 A 
HETATM   40  C   UNL     1     -43.360  54.794 -51.885  1.00  0.00     0.016 A 
BRANCH  38  41
HETATM   41  O   UNL     1     -41.462  54.513 -48.713  1.00  0.00    -0.356 OA
HETATM   42  C   UNL     1     -40.393  53.633 -48.385  1.00  0.00     0.210 C 
ENDBRANCH  38  41
ENDBRANCH  12  35
TORSDOF 8
ENDMDL
MODEL 3
REMARK VINA RESULT:      -7.3      1.280      1.620
REMARK  8 active torsions:
REMARK  status: ('A' for Active; 'I' for Inactive)
REMARK    1  A    between atoms: C_2  and  O_3 
REMARK    2  A    between atoms: O_3  and  C_4 
REMARK    3  A    between atoms: C_5  and  O_6 
REMARK    4  A    between atoms: O_6  and  C_7 
REMARK       I    between atoms: C_7  and  N_8 
REMARK    5  A    between atoms: C_18  and  C_19 
REMARK    6  A    between atoms: C_23  and  N_24 
REMARK    7  A    between atoms: C_31  and  C_32 
REMARK    8  A    between atoms: C_35  and  O_36 
ROOT
HETATM    1  C   UNL     1     -41.901  58.864 -56.665  1.00  0.00     0.105 C 
HETATM    2  C   UNL     1     -42.176  59.729 -57.900  1.00  0.00     0.067 C 
HETATM    3  C   UNL     1     -41.910  61.222 -57.803  1.00  0.00     0.020 C 
HETATM    4  N   UNL     1     -41.691  62.461 -57.723  1.00  0.00    -0.096 N 
HETATM    5  C   UNL     1     -42.651  59.225 -59.071  1.00  0.00     0.139 C 
HETATM    6  O   UNL     1     -42.945  57.863 -59.220  1.00  0.00    -0.279 OA
HETATM    7  C   UNL     1     -42.869  57.120 -58.125  1.00  0.00     0.175 A 
HETATM    8  C   UNL     1     -42.433  57.475 -56.869  1.00  0.00     0.040 A 
HETATM    9  N   UNL     1     -43.268  55.829 -58.065  1.00  0.00    -0.256 N 
HETATM   10  H   UNL     1     -43.647  55.254 -58.809  1.00  0.00     0.191 HD
HETATM   11  N   UNL     1     -43.161  55.310 -56.836  1.00  0.00    -0.172 NA
HETATM   12  C   UNL     1     -42.652  56.303 -56.077  1.00  0.00     0.099 A 
ENDROOT
BRANCH   1  13
HETATM   13  C   UNL     1     -42.413  59.448 -55.354  1.00  0.00    -0.040 C 
HETATM   14  C   UNL     1     -43.718  59.923 -55.148  1.00  0.00     0.030 C 
HETATM   15  C   UNL     1     -44.155  60.248 -53.860  1.00  0.00     0.048 C 
HETATM   16  C   UNL     1     -43.266  60.193 -52.785  1.00  0.00     0.131 C 
HETATM   17 BR   UNL     1     -45.977  60.716 -53.611  1.00  0.00    -0.048 Br
HETATM   18  C   UNL     1     -41.911  59.913 -52.996  1.00  0.00     0.104 C 
HETATM   19  C   UNL     1     -41.509  59.496 -54.265  1.00  0.00     0.048 C 
BRANCH  16  20
HETATM   20  O   UNL     1     -43.735  60.461 -51.490  1.00  0.00    -0.257 OA
BRANCH  20  21
HETATM   21  C   UNL     1     -43.795  61.821 -51.191  1.00  0.00     0.368 C 
HETATM   22  N   UNL     1     -44.781  62.118 -50.263  1.00  0.00    -0.324 N 
HETATM   23  C   UNL     1     -45.360  61.129 -49.359  1.00  0.00     0.154 C 
HETATM   24  C   UNL     1     -44.963  63.497 -49.823  1.00  0.00     0.154 C 
HETATM   25  C   UNL     1     -44.827  61.364 -47.937  1.00  0.00     0.187 C 
HETATM   26  O   UNL     1     -45.070  62.716 -47.507  1.00  0.00    -0.388 OA
HETATM   27  C   UNL     1     -44.440  63.662 -48.393  1.00  0.00     0.187 C 
HETATM   28  O   UNL     1     -43.068  62.682 -51.681  1.00  0.00    -0.238 OA
ENDBRANCH  20  21
ENDBRANCH  16  20
BRANCH  18  29
HETATM   29  O   UNL     1     -41.085  60.019 -51.910  1.00  0.00    -0.349 OA
BRANCH  29  30
HETATM   30  C   UNL     1     -40.200  58.942 -51.609  1.00  0.00     0.171 C 
HETATM   31  C   UNL     1     -39.050  59.394 -50.725  1.00  0.00     0.034 C 
ENDBRANCH  29  30
ENDBRANCH  18  29
ENDBRANCH   1  13
BRANCH   5  32
HETATM   32  N   UNL     1     -42.897  59.949 -60.214  1.00  0.00    -0.282 NA
HETATM   33  H   UNL     1     -42.091  60.395 -60.647  1.00  0.00     0.126 HD
HETATM   34  H   UNL     1     -43.477  59.441 -60.877  1.00  0.00     0.126 HD
ENDBRANCH   5  32
BRANCH  12  35
HETATM   35  C   UNL     1     -42.498  56.089 -54.636  1.00  0.00    -0.005 A 
HETATM   36  C   UNL     1     -41.302  55.648 -54.068  1.00  0.00     0.016 A 
HETATM   37  C   UNL     1     -41.186  55.536 -52.676  1.00  0.00     0.037 A 
HETATM   38  C   UNL     1     -42.259  55.846 -51.835  1.00  0.00     0.068 A 
HETATM   39  C   UNL     1     -43.462  56.263 -52.398  1.00  0.00     0.037 A 
HETATM   40  C   UNL     1     -43.578  56.383 -53.786  1.00  0.00     0.016 A 
BRANCH  38  41
HETATM   41  O   UNL     1     -42.010  55.697 -50.498  1.00  0.00    -0.356 OA
HETATM   42  C   UNL     1     -40.679  55.359 -50.127  1.00  0.00     0.210 C 
ENDBRANCH  38  41
ENDBRANCH  12  35
TORSDOF 8
ENDMDL
MODEL 4
REMARK VINA RESULT:      -7.1      1.497      2.756
REMARK  8 active torsions:
REMARK  status: ('A' for Active; 'I' for Inactive)
REMARK    1  A    between atoms: C_2  and  O_3 
REMARK    2  A    between atoms: O_3  and  C_4 
REMARK    3  A    between atoms: C_5  and  O_6 
REMARK    4  A    between atoms: O_6  and  C_7 
REMARK       I    between atoms: C_7  and  N_8 
REMARK    5  A    between atoms: C_18  and  C_19 
REMARK    6  A    between atoms: C_23  and  N_24 
REMARK    7  A    between atoms: C_31  and  C_32 
REMARK    8  A    between atoms: C_35  and  O_36 
ROOT
HETATM    1  C   UNL     1     -41.998  57.273 -55.733  1.00  0.00     0.105 C 
HETATM    2  C   UNL     1     -42.358  57.894 -57.086  1.00  0.00     0.067 C 
HETATM    3  C   UNL     1     -42.048  59.367 -57.304  1.00  0.00     0.020 C 
HETATM    4  N   UNL     1     -41.792  60.587 -57.485  1.00  0.00    -0.096 N 
HETATM    5  C   UNL     1     -42.945  57.196 -58.094  1.00  0.00     0.139 C 
HETATM    6  O   UNL     1     -43.285  55.843 -57.951  1.00  0.00    -0.279 OA
HETATM    7  C   UNL     1     -43.132  55.322 -56.741  1.00  0.00     0.175 A 
HETATM    8  C   UNL     1     -42.580  55.894 -55.618  1.00  0.00     0.040 A 
HETATM    9  N   UNL     1     -43.556  54.084 -56.399  1.00  0.00    -0.256 N 
HETATM   10  H   UNL     1     -44.013  53.392 -56.984  1.00  0.00     0.191 HD
HETATM   11  N   UNL     1     -43.355  53.807 -55.104  1.00  0.00    -0.172 NA
HETATM   12  C   UNL     1     -42.758  54.906 -54.597  1.00  0.00     0.099 A 
ENDROOT
BRANCH   1  13
HETATM   13  C   UNL     1     -42.379  58.119 -54.524  1.00  0.00    -0.040 C 
HETATM   14  C   UNL     1     -41.579  58.284 -53.382  1.00  0.00     0.030 C 
HETATM   15  C   UNL     1     -41.917  59.238 -52.416  1.00  0.00     0.048 C 
HETATM   16  C   UNL     1     -43.103  59.964 -52.535  1.00  0.00     0.131 C 
HETATM   17 BR   UNL     1     -40.712  59.545 -50.983  1.00  0.00    -0.048 Br
HETATM   18  C   UNL     1     -44.013  59.678 -53.561  1.00  0.00     0.104 C 
HETATM   19  C   UNL     1     -43.621  58.797 -54.568  1.00  0.00     0.048 C 
BRANCH  16  20
HETATM   20  O   UNL     1     -43.396  60.962 -51.593  1.00  0.00    -0.257 OA
BRANCH  20  21
HETATM   21  C   UNL     1     -44.158  60.505 -50.519  1.00  0.00     0.368 C 
HETATM   22  N   UNL     1     -44.195  61.410 -49.470  1.00  0.00    -0.324 N 
HETATM   23  C   UNL     1     -43.897  62.831 -49.623  1.00  0.00     0.154 C 
HETATM   24  C   UNL     1     -44.967  61.095 -48.274  1.00  0.00     0.154 C 
HETATM   25  C   UNL     1     -45.202  63.638 -49.542  1.00  0.00     0.187 C 
HETATM   26  O   UNL     1     -45.916  63.349 -48.325  1.00  0.00    -0.388 OA
HETATM   27  C   UNL     1     -46.239  61.948 -48.235  1.00  0.00     0.187 C 
HETATM   28  O   UNL     1     -44.741  59.424 -50.480  1.00  0.00    -0.238 OA
ENDBRANCH  20  21
ENDBRANCH  16  20
BRANCH  18  29
HETATM   29  O   UNL     1     -45.211  60.338 -53.520  1.00  0.00    -0.349 OA
BRANCH  29  30
HETATM   30  C   UNL     1     -45.545  61.225 -54.587  1.00  0.00     0.171 C 
HETATM   31  C   UNL     1     -46.605  62.229 -54.166  1.00  0.00     0.034 C 
ENDBRANCH  29  30
ENDBRANCH  18  29
ENDBRANCH   1  13
BRANCH   5  32
HETATM   32  N   UNL     1     -43.272  57.695 -59.333  1.00  0.00    -0.282 NA
HETATM   33  H   UNL     1     -44.084  58.307 -59.373  1.00  0.00     0.126 HD
HETATM   34  H   UNL     1     -42.464  58.070 -59.825  1.00  0.00     0.126 HD
ENDBRANCH   5  32
BRANCH  12  35
HETATM   35  C   UNL     1     -42.485  54.967 -53.160  1.00  0.00    -0.005 A 
HETATM   36  C   UNL     1     -43.455  55.339 -52.228  1.00  0.00     0.016 A 
HETATM   37  C   UNL     1     -43.162  55.304 -50.859  1.00  0.00     0.037 A 
HETATM   38  C   UNL     1     -41.900  54.916 -50.400  1.00  0.00     0.068 A 
HETATM   39  C   UNL     1     -40.921  54.569 -51.326  1.00  0.00     0.037 A 
HETATM   40  C   UNL     1     -41.212  54.595 -52.693  1.00  0.00     0.016 A 
BRANCH  38  41
HETATM   41  O   UNL     1     -41.749  54.924 -49.040  1.00  0.00    -0.356 OA
HETATM   42  C   UNL     1     -40.600  54.269 -48.519  1.00  0.00     0.210 C 
ENDBRANCH  38  41
ENDBRANCH  12  35
TORSDOF 8
ENDMDL
MODEL 5
REMARK VINA RESULT:      -6.8      2.567      6.196
REMARK  8 active torsions:
REMARK  status: ('A' for Active; 'I' for Inactive)
REMARK    1  A    between atoms: C_2  and  O_3 
REMARK    2  A    between atoms: O_3  and  C_4 
REMARK    3  A    between atoms: C_5  and  O_6 
REMARK    4  A    between atoms: O_6  and  C_7 
REMARK       I    between atoms: C_7  and  N_8 
REMARK    5  A    between atoms: C_18  and  C_19 
REMARK    6  A    between atoms: C_23  and  N_24 
REMARK    7  A    between atoms: C_31  and  C_32 
REMARK    8  A    between atoms: C_35  and  O_36 
ROOT
HETATM    1  C   UNL     1     -43.417  60.412 -56.167  1.00  0.00     0.105 C 
HETATM    2  C   UNL     1     -42.586  60.518 -57.450  1.00  0.00     0.067 C 
HETATM    3  C   UNL     1     -42.176  59.231 -58.148  1.00  0.00     0.020 C 
HETATM    4  N   UNL     1     -41.837  58.164 -58.726  1.00  0.00    -0.096 N 
HETATM    5  C   UNL     1     -42.193  61.704 -57.987  1.00  0.00     0.139 C 
HETATM    6  O   UNL     1     -42.510  62.927 -57.380  1.00  0.00    -0.279 OA
HETATM    7  C   UNL     1     -43.088  62.862 -56.189  1.00  0.00     0.175 A 
HETATM    8  C   UNL     1     -43.526  61.753 -55.501  1.00  0.00     0.040 A 
HETATM    9  N   UNL     1     -43.316  63.941 -55.405  1.00  0.00    -0.256 N 
HETATM   10  H   UNL     1     -43.112  64.914 -55.602  1.00  0.00     0.191 HD
HETATM   11  N   UNL     1     -43.846  63.617 -54.219  1.00  0.00    -0.172 NA
HETATM   12  C   UNL     1     -43.984  62.275 -54.249  1.00  0.00     0.099 A 
ENDROOT
BRANCH   1  13
HETATM   13  C   UNL     1     -42.927  59.360 -55.178  1.00  0.00    -0.040 C 
HETATM   14  C   UNL     1     -43.546  58.118 -54.964  1.00  0.00     0.030 C 
HETATM   15  C   UNL     1     -42.912  57.139 -54.191  1.00  0.00     0.048 C 
HETATM   16  C   UNL     1     -41.705  57.426 -53.551  1.00  0.00     0.131 C 
HETATM   17 BR   UNL     1     -43.706  55.419 -54.078  1.00  0.00    -0.048 Br
HETATM   18  C   UNL     1     -41.169  58.718 -53.590  1.00  0.00     0.104 C 
HETATM   19  C   UNL     1     -41.756  59.655 -54.439  1.00  0.00     0.048 C 
BRANCH  16  20
HETATM   20  O   UNL     1     -41.051  56.414 -52.833  1.00  0.00    -0.257 OA
BRANCH  20  21
HETATM   21  C   UNL     1     -41.596  56.187 -51.570  1.00  0.00     0.368 C 
HETATM   22  N   UNL     1     -41.639  54.841 -51.244  1.00  0.00    -0.324 N 
HETATM   23  C   UNL     1     -40.808  53.829 -51.891  1.00  0.00     0.154 C 
HETATM   24  C   UNL     1     -42.163  54.431 -49.945  1.00  0.00     0.154 C 
HETATM   25  C   UNL     1     -39.698  53.387 -50.926  1.00  0.00     0.187 C 
HETATM   26  O   UNL     1     -40.246  52.935 -49.674  1.00  0.00    -0.388 OA
HETATM   27  C   UNL     1     -41.014  53.976 -49.040  1.00  0.00     0.187 C 
HETATM   28  O   UNL     1     -42.002  57.064 -50.812  1.00  0.00    -0.238 OA
ENDBRANCH  20  21
ENDBRANCH  16  20
BRANCH  18  29
HETATM   29  O   UNL     1     -40.061  58.947 -52.819  1.00  0.00    -0.349 OA
BRANCH  29  30
HETATM   30  C   UNL     1     -40.228  59.529 -51.528  1.00  0.00     0.171 C 
HETATM   31  C   UNL     1     -38.964  59.409 -50.694  1.00  0.00     0.034 C 
ENDBRANCH  29  30
ENDBRANCH  18  29
ENDBRANCH   1  13
BRANCH   5  32
HETATM   32  N   UNL     1     -41.465  61.860 -59.144  1.00  0.00    -0.282 NA
HETATM   33  H   UNL     1     -41.113  61.007 -59.572  1.00  0.00     0.126 HD
HETATM   34  H   UNL     1     -41.919  62.483 -59.806  1.00  0.00     0.126 HD
ENDBRANCH   5  32
BRANCH  12  35
HETATM   35  C   UNL     1     -44.455  61.581 -53.048  1.00  0.00    -0.005 A 
HETATM   36  C   UNL     1     -43.708  61.531 -51.870  1.00  0.00     0.016 A 
HETATM   37  C   UNL     1     -44.241  60.922 -50.727  1.00  0.00     0.037 A 
HETATM   38  C   UNL     1     -45.513  60.343 -50.744  1.00  0.00     0.068 A 
HETATM   39  C   UNL     1     -46.252  60.368 -51.923  1.00  0.00     0.037 A 
HETATM   40  C   UNL     1     -45.726  60.981 -53.064  1.00  0.00     0.016 A 
BRANCH  38  41
HETATM   41  O   UNL     1     -45.913  59.785 -49.560  1.00  0.00    -0.356 OA
HETATM   42  C   UNL     1     -45.682  60.548 -48.382  1.00  0.00     0.210 C 
ENDBRANCH  38  41
ENDBRANCH  12  35
TORSDOF 8
ENDMDL
MODEL 6
REMARK VINA RESULT:      -6.7     19.331     22.263
REMARK  8 active torsions:
REMARK  status: ('A' for Active; 'I' for Inactive)
REMARK    1  A    between atoms: C_2  and  O_3 
REMARK    2  A    between atoms: O_3  and  C_4 
REMARK    3  A    between atoms: C_5  and  O_6 
REMARK    4  A    between atoms: O_6  and  C_7 
REMARK       I    between atoms: C_7  and  N_8 
REMARK    5  A    between atoms: C_18  and  C_19 
REMARK    6  A    between atoms: C_23  and  N_24 
REMARK    7  A    between atoms: C_31  and  C_32 
REMARK    8  A    between atoms: C_35  and  O_36 
ROOT
HETATM    1  C   UNL     1     -35.174  37.897 -50.736  1.00  0.00     0.105 C 
HETATM    2  C   UNL     1     -36.249  38.011 -49.650  1.00  0.00     0.067 C 
HETATM    3  C   UNL     1     -37.703  37.838 -50.059  1.00  0.00     0.020 C 
HETATM    4  N   UNL     1     -38.908  37.694 -50.399  1.00  0.00    -0.096 N 
HETATM    5  C   UNL     1     -35.965  38.267 -48.345  1.00  0.00     0.139 C 
HETATM    6  O   UNL     1     -34.650  38.467 -47.904  1.00  0.00    -0.279 OA
HETATM    7  C   UNL     1     -33.717  38.533 -48.843  1.00  0.00     0.175 A 
HETATM    8  C   UNL     1     -33.838  38.322 -50.197  1.00  0.00     0.040 A 
HETATM    9  N   UNL     1     -32.430  38.873 -48.600  1.00  0.00    -0.256 N 
HETATM   10  H   UNL     1     -31.998  39.099 -47.712  1.00  0.00     0.191 HD
HETATM   11  N   UNL     1     -31.692  38.940 -49.716  1.00  0.00    -0.172 NA
HETATM   12  C   UNL     1     -32.535  38.608 -50.716  1.00  0.00     0.099 A 
ENDROOT
BRANCH   1  13
HETATM   13  C   UNL     1     -35.493  38.641 -52.027  1.00  0.00    -0.040 C 
HETATM   14  C   UNL     1     -35.682  40.029 -52.122  1.00  0.00     0.030 C 
HETATM   15  C   UNL     1     -35.766  40.645 -53.375  1.00  0.00     0.048 C 
HETATM   16  C   UNL     1     -35.759  39.871 -54.537  1.00  0.00     0.131 C 
HETATM   17 BR   UNL     1     -35.844  42.539 -53.452  1.00  0.00    -0.048 Br
HETATM   18  C   UNL     1     -35.770  38.473 -54.461  1.00  0.00     0.104 C 
HETATM   19  C   UNL     1     -35.588  37.875 -53.215  1.00  0.00     0.048 C 
BRANCH  16  20
HETATM   20  O   UNL     1     -35.780  40.508 -55.787  1.00  0.00    -0.257 OA
BRANCH  20  21
HETATM   21  C   UNL     1     -37.051  40.568 -56.359  1.00  0.00     0.368 C 
HETATM   22  N   UNL     1     -37.016  40.475 -57.741  1.00  0.00    -0.324 N 
HETATM   23  C   UNL     1     -35.890  39.913 -58.482  1.00  0.00     0.154 C 
HETATM   24  C   UNL     1     -38.264  40.500 -58.496  1.00  0.00     0.154 C 
HETATM   25  C   UNL     1     -36.274  38.528 -59.022  1.00  0.00     0.187 C 
HETATM   26  O   UNL     1     -37.478  38.592 -59.809  1.00  0.00    -0.388 OA
HETATM   27  C   UNL     1     -38.579  39.100 -59.030  1.00  0.00     0.187 C 
HETATM   28  O   UNL     1     -38.099  40.691 -55.731  1.00  0.00    -0.238 OA
ENDBRANCH  20  21
ENDBRANCH  16  20
BRANCH  18  29
HETATM   29  O   UNL     1     -35.907  37.795 -55.642  1.00  0.00    -0.349 OA
BRANCH  29  30
HETATM   30  C   UNL     1     -35.076  36.661 -55.885  1.00  0.00     0.171 C 
HETATM   31  C   UNL     1     -33.844  37.035 -56.692  1.00  0.00     0.034 C 
ENDBRANCH  29  30
ENDBRANCH  18  29
ENDBRANCH   1  13
BRANCH   5  32
HETATM   32  N   UNL     1     -36.886  38.361 -47.327  1.00  0.00    -0.282 NA
HETATM   33  H   UNL     1     -36.834  37.645 -46.606  1.00  0.00     0.126 HD
HETATM   34  H   UNL     1     -36.952  39.303 -46.951  1.00  0.00     0.126 HD
ENDBRANCH   5  32
BRANCH  12  35
HETATM   35  C   UNL     1     -32.059  38.678 -52.100  1.00  0.00    -0.005 A 
HETATM   36  C   UNL     1     -31.543  37.568 -52.771  1.00  0.00     0.016 A 
HETATM   37  C   UNL     1     -31.176  37.672 -54.119  1.00  0.00     0.037 A 
HETATM   38  C   UNL     1     -31.301  38.881 -54.810  1.00  0.00     0.068 A 
HETATM   39  C   UNL     1     -31.791  39.997 -54.138  1.00  0.00     0.037 A 
HETATM   40  C   UNL     1     -32.165  39.895 -52.795  1.00  0.00     0.016 A 
BRANCH  38  41
HETATM   41  O   UNL     1     -30.909  38.844 -56.120  1.00  0.00    -0.356 OA
HETATM   42  C   UNL     1     -29.524  38.639 -56.370  1.00  0.00     0.210 C 
ENDBRANCH  38  41
ENDBRANCH  12  35
TORSDOF 8
ENDMDL
MODEL 7
REMARK VINA RESULT:      -6.6      2.951      7.477
REMARK  8 active torsions:
REMARK  status: ('A' for Active; 'I' for Inactive)
REMARK    1  A    between atoms: C_2  and  O_3 
REMARK    2  A    between atoms: O_3  and  C_4 
REMARK    3  A    between atoms: C_5  and  O_6 
REMARK    4  A    between atoms: O_6  and  C_7 
REMARK       I    between atoms: C_7  and  N_8 
REMARK    5  A    between atoms: C_18  and  C_19 
REMARK    6  A    between atoms: C_23  and  N_24 
REMARK    7  A    between atoms: C_31  and  C_32 
REMARK    8  A    between atoms: C_35  and  O_36 
ROOT
HETATM    1  C   UNL     1     -44.204  61.442 -53.260  1.00  0.00     0.105 C 
HETATM    2  C   UNL     1     -44.913  61.803 -51.950  1.00  0.00     0.067 C 
HETATM    3  C   UNL     1     -44.120  61.710 -50.657  1.00  0.00     0.020 C 
HETATM    4  N   UNL     1     -43.463  61.632 -49.585  1.00  0.00    -0.096 N 
HETATM    5  C   UNL     1     -46.214  62.193 -51.891  1.00  0.00     0.139 C 
HETATM    6  O   UNL     1     -47.012  62.272 -53.040  1.00  0.00    -0.279 OA
HETATM    7  C   UNL     1     -46.475  61.815 -54.163  1.00  0.00     0.175 A 
HETATM    8  C   UNL     1     -45.194  61.368 -54.388  1.00  0.00     0.040 A 
HETATM    9  N   UNL     1     -47.161  61.677 -55.321  1.00  0.00    -0.256 N 
HETATM   10  H   UNL     1     -48.131  61.906 -55.507  1.00  0.00     0.191 HD
HETATM   11  N   UNL     1     -46.426  61.129 -56.297  1.00  0.00    -0.172 NA
HETATM   12  C   UNL     1     -45.210  60.925 -55.749  1.00  0.00     0.099 A 
ENDROOT
BRANCH   1  13
HETATM   13  C   UNL     1     -43.364  60.172 -53.199  1.00  0.00    -0.040 C 
HETATM   14  C   UNL     1     -41.964  60.146 -53.101  1.00  0.00     0.030 C 
HETATM   15  C   UNL     1     -41.297  58.944 -52.844  1.00  0.00     0.048 C 
HETATM   16  C   UNL     1     -42.013  57.747 -52.780  1.00  0.00     0.131 C 
HETATM   17 BR   UNL     1     -39.424  58.991 -52.546  1.00  0.00    -0.048 Br
HETATM   18  C   UNL     1     -43.382  57.720 -53.069  1.00  0.00     0.104 C 
HETATM   19  C   UNL     1     -44.051  58.934 -53.227  1.00  0.00     0.048 C 
BRANCH  16  20
HETATM   20  O   UNL     1     -41.339  56.559 -52.459  1.00  0.00    -0.257 OA
BRANCH  20  21
HETATM   21  C   UNL     1     -41.393  56.239 -51.103  1.00  0.00     0.368 C 
HETATM   22  N   UNL     1     -41.623  54.890 -50.884  1.00  0.00    -0.324 N 
HETATM   23  C   UNL     1     -41.370  53.858 -51.885  1.00  0.00     0.154 C 
HETATM   24  C   UNL     1     -41.687  54.383 -49.518  1.00  0.00     0.154 C 
HETATM   25  C   UNL     1     -40.112  53.067 -51.496  1.00  0.00     0.187 C 
HETATM   26  O   UNL     1     -40.226  52.531 -50.164  1.00  0.00    -0.388 OA
HETATM   27  C   UNL     1     -40.421  53.582 -49.198  1.00  0.00     0.187 C 
HETATM   28  O   UNL     1     -41.256  57.044 -50.184  1.00  0.00    -0.238 OA
ENDBRANCH  20  21
ENDBRANCH  16  20
BRANCH  18  29
HETATM   29  O   UNL     1     -43.976  56.488 -53.122  1.00  0.00    -0.349 OA
BRANCH  29  30
HETATM   30  C   UNL     1     -44.281  55.924 -54.396  1.00  0.00     0.171 C 
HETATM   31  C   UNL     1     -43.469  54.667 -54.659  1.00  0.00     0.034 C 
ENDBRANCH  29  30
ENDBRANCH  18  29
ENDBRANCH   1  13
BRANCH   5  32
HETATM   32  N   UNL     1     -46.895  62.547 -50.748  1.00  0.00    -0.282 NA
HETATM   33  H   UNL     1     -46.714  63.481 -50.388  1.00  0.00     0.126 HD
HETATM   34  H   UNL     1     -47.885  62.323 -50.803  1.00  0.00     0.126 HD
ENDBRANCH   5  32
BRANCH  12  35
HETATM   35  C   UNL     1     -44.181  60.240 -56.536  1.00  0.00    -0.005 A 
HETATM   36  C   UNL     1     -44.339  58.932 -56.997  1.00  0.00     0.016 A 
HETATM   37  C   UNL     1     -43.358  58.353 -57.812  1.00  0.00     0.037 A 
HETATM   38  C   UNL     1     -42.204  59.059 -58.165  1.00  0.00     0.068 A 
HETATM   39  C   UNL     1     -42.030  60.354 -57.688  1.00  0.00     0.037 A 
HETATM   40  C   UNL     1     -43.011  60.938 -56.880  1.00  0.00     0.016 A 
BRANCH  38  41
HETATM   41  O   UNL     1     -41.329  58.377 -58.967  1.00  0.00    -0.356 OA
HETATM   42  C   UNL     1     -41.893  57.608 -60.023  1.00  0.00     0.210 C 
ENDBRANCH  38  41
ENDBRANCH  12  35
TORSDOF 8
ENDMDL
MODEL 8
REMARK VINA RESULT:      -6.3      2.541      3.862
REMARK  8 active torsions:
REMARK  status: ('A' for Active; 'I' for Inactive)
REMARK    1  A    between atoms: C_2  and  O_3 
REMARK    2  A    between atoms: O_3  and  C_4 
REMARK    3  A    between atoms: C_5  and  O_6 
REMARK    4  A    between atoms: O_6  and  C_7 
REMARK       I    between atoms: C_7  and  N_8 
REMARK    5  A    between atoms: C_18  and  C_19 
REMARK    6  A    between atoms: C_23  and  N_24 
REMARK    7  A    between atoms: C_31  and  C_32 
REMARK    8  A    between atoms: C_35  and  O_36 
ROOT
HETATM    1  C   UNL     1     -43.589  60.093 -55.508  1.00  0.00     0.105 C 
HETATM    2  C   UNL     1     -44.308  60.874 -56.612  1.00  0.00     0.067 C 
HETATM    3  C   UNL     1     -44.521  62.366 -56.413  1.00  0.00     0.020 C 
HETATM    4  N   UNL     1     -44.697  63.603 -56.247  1.00  0.00    -0.096 N 
HETATM    5  C   UNL     1     -44.770  60.297 -57.753  1.00  0.00     0.139 C 
HETATM    6  O   UNL     1     -44.634  58.922 -57.989  1.00  0.00    -0.279 OA
HETATM    7  C   UNL     1     -44.161  58.196 -56.986  1.00  0.00     0.175 A 
HETATM    8  C   UNL     1     -43.676  58.616 -55.769  1.00  0.00     0.040 A 
HETATM    9  N   UNL     1     -44.115  56.844 -56.995  1.00  0.00    -0.256 N 
HETATM   10  H   UNL     1     -44.399  56.211 -57.735  1.00  0.00     0.191 HD
HETATM   11  N   UNL     1     -43.663  56.333 -55.843  1.00  0.00    -0.172 NA
HETATM   12  C   UNL     1     -43.388  57.402 -55.067  1.00  0.00     0.099 A 
ENDROOT
BRANCH   1  13
HETATM   13  C   UNL     1     -44.055  60.416 -54.093  1.00  0.00    -0.040 C 
HETATM   14  C   UNL     1     -43.201  60.597 -52.994  1.00  0.00     0.030 C 
HETATM   15  C   UNL     1     -43.703  61.092 -51.785  1.00  0.00     0.048 C 
HETATM   16  C   UNL     1     -45.073  61.316 -51.636  1.00  0.00     0.131 C 
HETATM   17 BR   UNL     1     -42.480  61.486 -50.389  1.00  0.00    -0.048 Br
HETATM   18  C   UNL     1     -45.967  60.957 -52.651  1.00  0.00     0.104 C 
HETATM   19  C   UNL     1     -45.448  60.558 -53.883  1.00  0.00     0.048 C 
BRANCH  16  20
HETATM   20  O   UNL     1     -45.552  61.872 -50.441  1.00  0.00    -0.257 OA
BRANCH  20  21
HETATM   21  C   UNL     1     -45.682  60.943 -49.409  1.00  0.00     0.368 C 
HETATM   22  N   UNL     1     -45.497  61.510 -48.158  1.00  0.00    -0.324 N 
HETATM   23  C   UNL     1     -45.626  62.940 -47.895  1.00  0.00     0.154 C 
HETATM   24  C   UNL     1     -45.619  60.678 -46.966  1.00  0.00     0.154 C 
HETATM   25  C   UNL     1     -46.933  63.203 -47.131  1.00  0.00     0.187 C 
HETATM   26  O   UNL     1     -47.001  62.411 -45.931  1.00  0.00    -0.388 OA
HETATM   27  C   UNL     1     -46.925  61.004 -46.234  1.00  0.00     0.187 C 
HETATM   28  O   UNL     1     -45.930  59.750 -49.564  1.00  0.00    -0.238 OA
ENDBRANCH  20  21
ENDBRANCH  16  20
BRANCH  18  29
HETATM   29  O   UNL     1     -47.301  61.080 -52.367  1.00  0.00    -0.349 OA
BRANCH  29  30
HETATM   30  C   UNL     1     -47.970  62.291 -52.713  1.00  0.00     0.171 C 
HETATM   31  C   UNL     1     -49.428  62.043 -53.061  1.00  0.00     0.034 C 
ENDBRANCH  29  30
ENDBRANCH  18  29
ENDBRANCH   1  13
BRANCH   5  32
HETATM   32  N   UNL     1     -45.404  60.951 -58.784  1.00  0.00    -0.282 NA
HETATM   33  H   UNL     1     -45.148  60.662 -59.726  1.00  0.00     0.126 HD
HETATM   34  H   UNL     1     -46.409  61.013 -58.644  1.00  0.00     0.126 HD
ENDBRANCH   5  32
BRANCH  12  35
HETATM   35  C   UNL     1     -42.958  57.186 -53.684  1.00  0.00    -0.005 A 
HETATM   36  C   UNL     1     -43.859  56.918 -52.653  1.00  0.00     0.016 A 
HETATM   37  C   UNL     1     -43.387  56.640 -51.363  1.00  0.00     0.037 A 
HETATM   38  C   UNL     1     -42.019  56.642 -51.079  1.00  0.00     0.068 A 
HETATM   39  C   UNL     1     -41.116  56.933 -52.098  1.00  0.00     0.037 A 
HETATM   40  C   UNL     1     -41.584  57.203 -53.388  1.00  0.00     0.016 A 
BRANCH  38  41
HETATM   41  O   UNL     1     -41.694  56.352 -49.782  1.00  0.00    -0.356 OA
HETATM   42  C   UNL     1     -41.388  54.995 -49.485  1.00  0.00     0.210 C 
ENDBRANCH  38  41
ENDBRANCH  12  35
TORSDOF 8
ENDMDL
MODEL 9
REMARK VINA RESULT:      -6.3      3.487      8.580
REMARK  8 active torsions:
REMARK  status: ('A' for Active; 'I' for Inactive)
REMARK    1  A    between atoms: C_2  and  O_3 
REMARK    2  A    between atoms: O_3  and  C_4 
REMARK    3  A    between atoms: C_5  and  O_6 
REMARK    4  A    between atoms: O_6  and  C_7 
REMARK       I    between atoms: C_7  and  N_8 
REMARK    5  A    between atoms: C_18  and  C_19 
REMARK    6  A    between atoms: C_23  and  N_24 
REMARK    7  A    between atoms: C_31  and  C_32 
REMARK    8  A    between atoms: C_35  and  O_36 
ROOT
HETATM    1  C   UNL     1     -44.638  58.611 -53.729  1.00  0.00     0.105 C 
HETATM    2  C   UNL     1     -44.889  59.361 -52.417  1.00  0.00     0.067 C 
HETATM    3  C   UNL     1     -46.096  60.282 -52.337  1.00  0.00     0.020 C 
HETATM    4  N   UNL     1     -47.096  61.047 -52.272  1.00  0.00    -0.096 N 
HETATM    5  C   UNL     1     -44.083  59.247 -51.328  1.00  0.00     0.139 C 
HETATM    6  O   UNL     1     -42.938  58.439 -51.341  1.00  0.00    -0.279 OA
HETATM    7  C   UNL     1     -42.608  57.904 -52.509  1.00  0.00     0.175 A 
HETATM    8  C   UNL     1     -43.295  57.941 -53.700  1.00  0.00     0.040 A 
HETATM    9  N   UNL     1     -41.455  57.231 -52.726  1.00  0.00    -0.256 N 
HETATM   10  H   UNL     1     -40.715  57.023 -52.065  1.00  0.00     0.191 HD
HETATM   11  N   UNL     1     -41.312  56.847 -54.001  1.00  0.00    -0.172 NA
HETATM   12  C   UNL     1     -42.429  57.274 -54.625  1.00  0.00     0.099 A 
ENDROOT
BRANCH   1  13
HETATM   13  C   UNL     1     -44.788  59.460 -54.985  1.00  0.00    -0.040 C 
HETATM   14  C   UNL     1     -44.315  60.776 -55.119  1.00  0.00     0.030 C 
HETATM   15  C   UNL     1     -44.314  61.401 -56.371  1.00  0.00     0.048 C 
HETATM   16  C   UNL     1     -44.872  60.754 -57.476  1.00  0.00     0.131 C 
HETATM   17 BR   UNL     1     -43.504  63.109 -56.532  1.00  0.00    -0.048 Br
HETATM   18  C   UNL     1     -45.525  59.525 -57.326  1.00  0.00     0.104 C 
HETATM   19  C   UNL     1     -45.434  58.870 -56.098  1.00  0.00     0.048 C 
BRANCH  16  20
HETATM   20  O   UNL     1     -44.807  61.367 -58.736  1.00  0.00    -0.257 OA
BRANCH  20  21
HETATM   21  C   UNL     1     -43.639  61.072 -59.438  1.00  0.00     0.368 C 
HETATM   22  N   UNL     1     -43.890  60.448 -60.649  1.00  0.00    -0.324 N 
HETATM   23  C   UNL     1     -45.177  60.512 -61.336  1.00  0.00     0.154 C 
HETATM   24  C   UNL     1     -42.775  60.088 -61.519  1.00  0.00     0.154 C 
HETATM   25  C   UNL     1     -45.061  61.444 -62.552  1.00  0.00     0.187 C 
HETATM   26  O   UNL     1     -43.989  61.032 -63.421  1.00  0.00    -0.388 OA
HETATM   27  C   UNL     1     -42.728  61.033 -62.724  1.00  0.00     0.187 C 
HETATM   28  O   UNL     1     -42.501  61.324 -59.047  1.00  0.00    -0.238 OA
ENDBRANCH  20  21
ENDBRANCH  16  20
BRANCH  18  29
HETATM   29  O   UNL     1     -46.166  59.031 -58.430  1.00  0.00    -0.349 OA
BRANCH  29  30
HETATM   30  C   UNL     1     -46.552  57.658 -58.446  1.00  0.00     0.171 C 
HETATM   31  C   UNL     1     -46.984  57.216 -59.834  1.00  0.00     0.034 C 
ENDBRANCH  29  30
ENDBRANCH  18  29
ENDBRANCH   1  13
BRANCH   5  32
HETATM   32  N   UNL     1     -44.271  59.880 -50.120  1.00  0.00    -0.282 NA
HETATM   33  H   UNL     1     -45.196  60.269 -49.955  1.00  0.00     0.126 HD
HETATM   34  H   UNL     1     -43.920  59.332 -49.338  1.00  0.00     0.126 HD
ENDBRANCH   5  32
BRANCH  12  35
HETATM   35  C   UNL     1     -42.546  57.095 -56.074  1.00  0.00    -0.005 A 
HETATM   36  C   UNL     1     -43.123  55.959 -56.644  1.00  0.00     0.016 A 
HETATM   37  C   UNL     1     -43.282  55.875 -58.034  1.00  0.00     0.037 A 
HETATM   38  C   UNL     1     -42.856  56.909 -58.873  1.00  0.00     0.068 A 
HETATM   39  C   UNL     1     -42.257  58.033 -58.311  1.00  0.00     0.037 A 
HETATM   40  C   UNL     1     -42.104  58.123 -56.924  1.00  0.00     0.016 A 
BRANCH  38  41
HETATM   41  O   UNL     1     -43.073  56.700 -60.207  1.00  0.00    -0.356 OA
HETATM   42  C   UNL     1     -43.985  55.665 -60.555  1.00  0.00     0.210 C 
ENDBRANCH  38  41
ENDBRANCH  12  35
TORSDOF 8
ENDMDL
MODEL 10
REMARK VINA RESULT:      -6.3      2.643      7.473
REMARK  8 active torsions:
REMARK  status: ('A' for Active; 'I' for Inactive)
REMARK    1  A    between atoms: C_2  and  O_3 
REMARK    2  A    between atoms: O_3  and  C_4 
REMARK    3  A    between atoms: C_5  and  O_6 
REMARK    4  A    between atoms: O_6  and  C_7 
REMARK       I    between atoms: C_7  and  N_8 
REMARK    5  A    between atoms: C_18  and  C_19 
REMARK    6  A    between atoms: C_23  and  N_24 
REMARK    7  A    between atoms: C_31  and  C_32 
REMARK    8  A    between atoms: C_35  and  O_36 
ROOT
HETATM    1  C   UNL     1     -45.043  62.162 -51.703  1.00  0.00     0.105 C 
HETATM    2  C   UNL     1     -45.800  62.594 -50.442  1.00  0.00     0.067 C 
HETATM    3  C   UNL     1     -45.056  62.569 -49.117  1.00  0.00     0.020 C 
HETATM    4  N   UNL     1     -44.439  62.549 -48.017  1.00  0.00    -0.096 N 
HETATM    5  C   UNL     1     -47.101  62.988 -50.452  1.00  0.00     0.139 C 
HETATM    6  O   UNL     1     -47.855  63.006 -51.633  1.00  0.00    -0.279 OA
HETATM    7  C   UNL     1     -47.278  62.488 -52.709  1.00  0.00     0.175 A 
HETATM    8  C   UNL     1     -45.990  62.029 -52.861  1.00  0.00     0.040 A 
HETATM    9  N   UNL     1     -47.920  62.289 -53.883  1.00  0.00    -0.256 N 
HETATM   10  H   UNL     1     -48.882  62.509 -54.118  1.00  0.00     0.191 HD
HETATM   11  N   UNL     1     -47.150  61.689 -54.799  1.00  0.00    -0.172 NA
HETATM   12  C   UNL     1     -45.956  61.513 -54.197  1.00  0.00     0.099 A 
ENDROOT
BRANCH   1  13
HETATM   13  C   UNL     1     -44.210  60.897 -51.542  1.00  0.00    -0.040 C 
HETATM   14  C   UNL     1     -44.741  59.607 -51.377  1.00  0.00     0.030 C 
HETATM   15  C   UNL     1     -43.906  58.487 -51.445  1.00  0.00     0.048 C 
HETATM   16  C   UNL     1     -42.526  58.650 -51.581  1.00  0.00     0.131 C 
HETATM   17 BR   UNL     1     -44.696  56.763 -51.393  1.00  0.00    -0.048 Br
HETATM   18  C   UNL     1     -41.954  59.927 -51.550  1.00  0.00     0.104 C 
HETATM   19  C   UNL     1     -42.801  61.035 -51.581  1.00  0.00     0.048 C 
BRANCH  16  20
HETATM   20  O   UNL     1     -41.710  57.516 -51.711  1.00  0.00    -0.257 OA
BRANCH  20  21
HETATM   21  C   UNL     1     -41.386  57.214 -53.033  1.00  0.00     0.368 C 
HETATM   22  N   UNL     1     -41.008  55.891 -53.198  1.00  0.00    -0.324 N 
HETATM   23  C   UNL     1     -41.351  54.832 -52.252  1.00  0.00     0.154 C 
HETATM   24  C   UNL     1     -40.656  55.403 -54.527  1.00  0.00     0.154 C 
HETATM   25  C   UNL     1     -42.448  53.943 -52.857  1.00  0.00     0.187 C 
HETATM   26  O   UNL     1     -42.051  53.430 -54.143  1.00  0.00    -0.388 OA
HETATM   27  C   UNL     1     -41.773  54.502 -55.064  1.00  0.00     0.187 C 
HETATM   28  O   UNL     1     -41.421  58.012 -53.966  1.00  0.00    -0.238 OA
ENDBRANCH  20  21
ENDBRANCH  16  20
BRANCH  18  29
HETATM   29  O   UNL     1     -40.587  59.988 -51.546  1.00  0.00    -0.349 OA
BRANCH  29  30
HETATM   30  C   UNL     1     -39.894  59.835 -50.309  1.00  0.00     0.171 C 
HETATM   31  C   UNL     1     -38.434  59.474 -50.528  1.00  0.00     0.034 C 
ENDBRANCH  29  30
ENDBRANCH  18  29
ENDBRANCH   1  13
BRANCH   5  32
HETATM   32  N   UNL     1     -47.823  63.403 -49.357  1.00  0.00    -0.282 NA
HETATM   33  H   UNL     1     -48.704  62.923 -49.190  1.00  0.00     0.126 HD
HETATM   34  H   UNL     1     -47.247  63.485 -48.523  1.00  0.00     0.126 HD
ENDBRANCH   5  32
BRANCH  12  35
HETATM   35  C   UNL     1     -44.901  60.786 -54.906  1.00  0.00    -0.005 A 
HETATM   36  C   UNL     1     -45.030  59.445 -55.269  1.00  0.00     0.016 A 
HETATM   37  C   UNL     1     -44.023  58.820 -56.017  1.00  0.00     0.037 A 
HETATM   38  C   UNL     1     -42.871  59.514 -56.397  1.00  0.00     0.068 A 
HETATM   39  C   UNL     1     -42.726  60.845 -56.016  1.00  0.00     0.037 A 
HETATM   40  C   UNL     1     -43.732  61.473 -55.276  1.00  0.00     0.016 A 
BRANCH  38  41
HETATM   41  O   UNL     1     -41.969  58.788 -57.126  1.00  0.00    -0.356 OA
HETATM   42  C   UNL     1     -42.373  57.485 -57.529  1.00  0.00     0.210 C 
ENDBRANCH  38  41
ENDBRANCH  12  35
TORSDOF 8
ENDMDL
