MODEL 1
REMARK VINA RESULT:      -9.6      0.000      0.000
REMARK  9 active torsions:
REMARK  status: ('A' for Active; 'I' for Inactive)
REMARK    1  A    between atoms: C_4  and  C_5 
REMARK    2  A    between atoms: C_16  and  C_17 
REMARK    3  A    between atoms: C_20  and  C_21 
REMARK    4  A    between atoms: C_21  and  N_22 
REMARK    5  A    between atoms: N_22  and  C_23 
REMARK    6  A    between atoms: C_23  and  N_24 
REMARK    7  A    between atoms: N_24  and  C_25 
REMARK    8  A    between atoms: C_27  and  C_28 
REMARK    9  A    between atoms: C_28  and  O_29 
ROOT
HETATM    1  C   UNL     1     -43.561  58.552 -51.400  1.00  0.00     0.067 C 
HETATM    2  C   UNL     1     -45.051  58.566 -51.781  1.00  0.00     0.001 C 
HETATM    3  C   UNL     1     -45.315  59.443 -53.021  1.00  0.00     0.040 C 
HETATM    4  C   UNL     1     -44.961  60.918 -52.769  1.00  0.00     0.206 C 
HETATM    5  N   UNL     1     -44.205  60.969 -51.444  1.00  0.00    -0.065 N 
HETATM    6  H   UNL     1     -43.847  61.922 -51.293  1.00  0.00     0.280 HD
HETATM    7  C   UNL     1     -43.020  60.002 -51.421  1.00  0.00     0.246 C 
HETATM    8  C   UNL     1     -45.794  59.260 -50.608  1.00  0.00     0.033 C 
HETATM    9  C   UNL     1     -45.165  60.631 -50.310  1.00  0.00     0.236 C 
ENDROOT
BRANCH   4  10
HETATM   10  C   UNL     1     -44.174  61.571 -53.928  1.00  0.00     0.155 C 
BRANCH  10  11
HETATM   11  N   UNL     1     -44.739  61.238 -55.235  1.00  0.00    -0.365 N 
HETATM   12  H   UNL     1     -45.564  61.755 -55.525  1.00  0.00     0.161 HD
BRANCH  11  13
HETATM   13  C   UNL     1     -44.059  60.717 -56.302  1.00  0.00     0.172 C 
HETATM   14  S   UNL     1     -42.700  61.390 -56.999  1.00  0.00    -0.041 SA
BRANCH  13  15
HETATM   15  N   UNL     1     -44.555  59.569 -56.853  1.00  0.00    -0.333 N 
HETATM   16  H   UNL     1     -45.433  59.720 -57.345  1.00  0.00     0.168 HD
BRANCH  15  17
HETATM   17  C   UNL     1     -44.008  58.273 -56.988  1.00  0.00     0.035 A 
HETATM   18  C   UNL     1     -43.762  57.653 -58.213  1.00  0.00     0.047 A 
HETATM   19  C   UNL     1     -43.232  56.354 -58.278  1.00  0.00     0.041 A 
HETATM   20  C   UNL     1     -42.975  55.654 -57.097  1.00  0.00     0.018 A 
HETATM   21  C   UNL     1     -43.251  56.252 -55.867  1.00  0.00     0.003 A 
HETATM   22  C   UNL     1     -43.766  57.551 -55.815  1.00  0.00     0.029 A 
BRANCH  19  23
HETATM   23  C   UNL     1     -42.965  55.788 -59.628  1.00  0.00     0.293 C 
HETATM   24  O   UNL     1     -42.064  56.195 -60.350  1.00  0.00    -0.259 OA
BRANCH  23  25
HETATM   25  O   UNL     1     -43.840  54.800 -59.920  1.00  0.00    -0.323 OA
HETATM   26  C   UNL     1     -44.888  55.183 -60.813  1.00  0.00     0.213 C 
ENDBRANCH  23  25
ENDBRANCH  19  23
ENDBRANCH  15  17
ENDBRANCH  13  15
ENDBRANCH  11  13
ENDBRANCH  10  11
ENDBRANCH   4  10
BRANCH   1  27
HETATM   27  C   UNL     1     -42.591  57.599 -52.041  1.00  0.00     0.038 C 
HETATM   28  N   UNL     1     -41.587  57.783 -52.964  1.00  0.00    -0.277 N 
HETATM   29  C   UNL     1     -41.225  58.924 -53.770  1.00  0.00     0.179 C 
HETATM   30  N   UNL     1     -40.801  56.702 -53.106  1.00  0.00    -0.172 NA
HETATM   31  C   UNL     1     -41.386  55.727 -52.405  1.00  0.00     0.089 C 
HETATM   32  C   UNL     1     -42.525  56.242 -51.747  1.00  0.00     0.061 C 
BRANCH  31  33
HETATM   33  C   UNL     1     -40.831  54.378 -52.311  1.00  0.00    -0.005 A 
HETATM   34  C   UNL     1     -40.791  53.540 -53.435  1.00  0.00     0.026 A 
HETATM   35  C   UNL     1     -40.349  52.211 -53.337  1.00  0.00    -0.025 A 
HETATM   36  C   UNL     1     -39.926  51.711 -52.085  1.00  0.00    -0.026 A 
HETATM   37  C   UNL     1     -40.329  51.362 -54.456  1.00  0.00     0.012 A 
HETATM   38  C   UNL     1     -39.935  52.562 -50.970  1.00  0.00     0.013 A 
HETATM   39  C   UNL     1     -39.510  50.375 -51.983  1.00  0.00     0.012 A 
HETATM   40  C   UNL     1     -40.381  53.882 -51.082  1.00  0.00     0.014 A 
HETATM   41  C   UNL     1     -39.509  49.541 -53.103  1.00  0.00     0.001 A 
HETATM   42  C   UNL     1     -39.914  50.035 -54.338  1.00  0.00     0.001 A 
ENDBRANCH  31  33
ENDBRANCH   1  27
TORSDOF 9
ENDMDL
MODEL 2
REMARK VINA RESULT:      -9.4      2.069      3.095
REMARK  9 active torsions:
REMARK  status: ('A' for Active; 'I' for Inactive)
REMARK    1  A    between atoms: C_4  and  C_5 
REMARK    2  A    between atoms: C_16  and  C_17 
REMARK    3  A    between atoms: C_20  and  C_21 
REMARK    4  A    between atoms: C_21  and  N_22 
REMARK    5  A    between atoms: N_22  and  C_23 
REMARK    6  A    between atoms: C_23  and  N_24 
REMARK    7  A    between atoms: N_24  and  C_25 
REMARK    8  A    between atoms: C_27  and  C_28 
REMARK    9  A    between atoms: C_28  and  O_29 
ROOT
HETATM    1  C   UNL     1     -43.715  58.158 -54.044  1.00  0.00     0.067 C 
HETATM    2  C   UNL     1     -44.279  57.639 -55.378  1.00  0.00     0.001 C 
HETATM    3  C   UNL     1     -43.382  58.031 -56.568  1.00  0.00     0.040 C 
HETATM    4  C   UNL     1     -43.294  59.556 -56.746  1.00  0.00     0.206 C 
HETATM    5  N   UNL     1     -43.919  60.181 -55.502  1.00  0.00    -0.065 N 
HETATM    6  H   UNL     1     -43.777  61.201 -55.525  1.00  0.00     0.280 HD
HETATM    7  C   UNL     1     -43.299  59.639 -54.213  1.00  0.00     0.246 C 
HETATM    8  C   UNL     1     -45.624  58.384 -55.600  1.00  0.00     0.033 C 
HETATM    9  C   UNL     1     -45.418  59.905 -55.505  1.00  0.00     0.236 C 
ENDROOT
BRANCH   4  10
HETATM   10  C   UNL     1     -41.859  60.065 -57.010  1.00  0.00     0.155 C 
BRANCH  10  11
HETATM   11  N   UNL     1     -41.414  59.780 -58.374  1.00  0.00    -0.365 N 
HETATM   12  H   UNL     1     -40.848  58.947 -58.508  1.00  0.00     0.161 HD
BRANCH  11  13
HETATM   13  C   UNL     1     -42.039  60.167 -59.528  1.00  0.00     0.172 C 
HETATM   14  S   UNL     1     -42.341  61.748 -59.972  1.00  0.00    -0.041 SA
BRANCH  13  15
HETATM   15  N   UNL     1     -42.471  59.177 -60.363  1.00  0.00    -0.333 N 
HETATM   16  H   UNL     1     -42.072  59.253 -61.297  1.00  0.00     0.168 HD
BRANCH  15  17
HETATM   17  C   UNL     1     -43.235  58.011 -60.132  1.00  0.00     0.035 A 
HETATM   18  C   UNL     1     -44.611  58.011 -59.909  1.00  0.00     0.047 A 
HETATM   19  C   UNL     1     -45.310  56.817 -59.667  1.00  0.00     0.041 A 
HETATM   20  C   UNL     1     -44.612  55.608 -59.617  1.00  0.00     0.018 A 
HETATM   21  C   UNL     1     -43.230  55.602 -59.804  1.00  0.00     0.003 A 
HETATM   22  C   UNL     1     -42.547  56.796 -60.056  1.00  0.00     0.029 A 
BRANCH  19  23
HETATM   23  C   UNL     1     -46.783  56.909 -59.479  1.00  0.00     0.293 C 
HETATM   24  O   UNL     1     -47.301  57.676 -58.678  1.00  0.00    -0.259 OA
BRANCH  23  25
HETATM   25  O   UNL     1     -47.430  56.047 -60.295  1.00  0.00    -0.323 OA
HETATM   26  C   UNL     1     -47.756  56.580 -61.580  1.00  0.00     0.213 C 
ENDBRANCH  23  25
ENDBRANCH  19  23
ENDBRANCH  15  17
ENDBRANCH  13  15
ENDBRANCH  11  13
ENDBRANCH  10  11
ENDBRANCH   4  10
BRANCH   1  27
HETATM   27  C   UNL     1     -42.682  57.386 -53.270  1.00  0.00     0.038 C 
HETATM   28  N   UNL     1     -41.956  57.688 -52.141  1.00  0.00    -0.277 N 
HETATM   29  C   UNL     1     -41.803  58.918 -51.402  1.00  0.00     0.179 C 
HETATM   30  N   UNL     1     -41.301  56.627 -51.640  1.00  0.00    -0.172 NA
HETATM   31  C   UNL     1     -41.445  55.648 -52.538  1.00  0.00     0.089 C 
HETATM   32  C   UNL     1     -42.281  56.094 -53.586  1.00  0.00     0.061 C 
BRANCH  31  33
HETATM   33  C   UNL     1     -40.868  54.317 -52.357  1.00  0.00    -0.005 A 
HETATM   34  C   UNL     1     -40.745  53.437 -53.443  1.00  0.00     0.026 A 
HETATM   35  C   UNL     1     -40.281  52.123 -53.265  1.00  0.00    -0.025 A 
HETATM   36  C   UNL     1     -39.920  51.684 -51.972  1.00  0.00    -0.026 A 
HETATM   37  C   UNL     1     -40.178  51.232 -54.346  1.00  0.00     0.012 A 
HETATM   38  C   UNL     1     -40.011  52.578 -50.895  1.00  0.00     0.013 A 
HETATM   39  C   UNL     1     -39.482  50.364 -51.792  1.00  0.00     0.012 A 
HETATM   40  C   UNL     1     -40.478  53.881 -51.086  1.00  0.00     0.014 A 
HETATM   41  C   UNL     1     -39.398  49.486 -52.876  1.00  0.00     0.001 A 
HETATM   42  C   UNL     1     -39.741  49.921 -54.151  1.00  0.00     0.001 A 
ENDBRANCH  31  33
ENDBRANCH   1  27
TORSDOF 9
ENDMDL
MODEL 3
REMARK VINA RESULT:      -9.3      3.333      5.883
REMARK  9 active torsions:
REMARK  status: ('A' for Active; 'I' for Inactive)
REMARK    1  A    between atoms: C_4  and  C_5 
REMARK    2  A    between atoms: C_16  and  C_17 
REMARK    3  A    between atoms: C_20  and  C_21 
REMARK    4  A    between atoms: C_21  and  N_22 
REMARK    5  A    between atoms: N_22  and  C_23 
REMARK    6  A    between atoms: C_23  and  N_24 
REMARK    7  A    between atoms: N_24  and  C_25 
REMARK    8  A    between atoms: C_27  and  C_28 
REMARK    9  A    between atoms: C_28  and  O_29 
ROOT
HETATM    1  C   UNL     1     -44.397  58.509 -56.030  1.00  0.00     0.067 C 
HETATM    2  C   UNL     1     -43.663  59.847 -56.226  1.00  0.00     0.001 C 
HETATM    3  C   UNL     1     -43.054  60.363 -54.907  1.00  0.00     0.040 C 
HETATM    4  C   UNL     1     -44.133  60.658 -53.851  1.00  0.00     0.206 C 
HETATM    5  N   UNL     1     -45.441  60.078 -54.384  1.00  0.00    -0.065 N 
HETATM    6  H   UNL     1     -46.166  60.150 -53.657  1.00  0.00     0.280 HD
HETATM    7  C   UNL     1     -45.299  58.606 -54.776  1.00  0.00     0.246 C 
HETATM    8  C   UNL     1     -44.748  60.884 -56.624  1.00  0.00     0.033 C 
HETATM    9  C   UNL     1     -45.889  60.890 -55.593  1.00  0.00     0.236 C 
ENDROOT
BRANCH   4  10
HETATM   10  C   UNL     1     -43.779  60.130 -52.442  1.00  0.00     0.155 C 
BRANCH  10  11
HETATM   11  N   UNL     1     -42.345  60.213 -52.166  1.00  0.00    -0.365 N 
HETATM   12  H   UNL     1     -42.001  61.086 -51.779  1.00  0.00     0.161 HD
BRANCH  11  13
HETATM   13  C   UNL     1     -41.513  59.164 -51.885  1.00  0.00     0.172 C 
HETATM   14  S   UNL     1     -40.222  58.682 -52.828  1.00  0.00    -0.041 SA
BRANCH  13  15
HETATM   15  N   UNL     1     -41.782  58.441 -50.757  1.00  0.00    -0.333 N 
HETATM   16  H   UNL     1     -41.801  59.020 -49.919  1.00  0.00     0.168 HD
BRANCH  15  17
HETATM   17  C   UNL     1     -42.175  57.098 -50.566  1.00  0.00     0.035 A 
HETATM   18  C   UNL     1     -41.423  56.157 -49.863  1.00  0.00     0.047 A 
HETATM   19  C   UNL     1     -41.863  54.831 -49.723  1.00  0.00     0.041 A 
HETATM   20  C   UNL     1     -43.059  54.434 -50.326  1.00  0.00     0.018 A 
HETATM   21  C   UNL     1     -43.800  55.358 -51.062  1.00  0.00     0.003 A 
HETATM   22  C   UNL     1     -43.359  56.680 -51.183  1.00  0.00     0.029 A 
BRANCH  19  23
HETATM   23  C   UNL     1     -41.015  53.907 -48.923  1.00  0.00     0.293 C 
HETATM   24  O   UNL     1     -40.704  52.789 -49.313  1.00  0.00    -0.259 OA
BRANCH  23  25
HETATM   25  O   UNL     1     -40.663  54.470 -47.746  1.00  0.00    -0.323 OA
HETATM   26  C   UNL     1     -39.540  53.857 -47.109  1.00  0.00     0.213 C 
ENDBRANCH  23  25
ENDBRANCH  19  23
ENDBRANCH  15  17
ENDBRANCH  13  15
ENDBRANCH  11  13
ENDBRANCH  10  11
ENDBRANCH   4  10
BRANCH   1  27
HETATM   27  C   UNL     1     -43.668  57.195 -56.077  1.00  0.00     0.038 C 
HETATM   28  N   UNL     1     -43.282  56.390 -57.124  1.00  0.00    -0.277 N 
HETATM   29  C   UNL     1     -43.590  56.437 -58.533  1.00  0.00     0.179 C 
HETATM   30  N   UNL     1     -42.447  55.405 -56.748  1.00  0.00    -0.172 NA
HETATM   31  C   UNL     1     -42.414  55.442 -55.413  1.00  0.00     0.089 C 
HETATM   32  C   UNL     1     -43.188  56.531 -54.955  1.00  0.00     0.061 C 
BRANCH  31  33
HETATM   33  C   UNL     1     -41.611  54.516 -54.616  1.00  0.00    -0.005 A 
HETATM   34  C   UNL     1     -41.475  53.173 -54.999  1.00  0.00     0.026 A 
HETATM   35  C   UNL     1     -40.786  52.253 -54.193  1.00  0.00    -0.025 A 
HETATM   36  C   UNL     1     -40.209  52.689 -52.979  1.00  0.00    -0.026 A 
HETATM   37  C   UNL     1     -40.668  50.902 -54.562  1.00  0.00     0.012 A 
HETATM   38  C   UNL     1     -40.317  54.040 -52.617  1.00  0.00     0.013 A 
HETATM   39  C   UNL     1     -39.545  51.763 -52.162  1.00  0.00     0.012 A 
HETATM   40  C   UNL     1     -41.009  54.944 -53.427  1.00  0.00     0.014 A 
HETATM   41  C   UNL     1     -39.447  50.421 -52.538  1.00  0.00     0.001 A 
HETATM   42  C   UNL     1     -40.005  49.993 -53.738  1.00  0.00     0.001 A 
ENDBRANCH  31  33
ENDBRANCH   1  27
TORSDOF 9
ENDMDL
MODEL 4
REMARK VINA RESULT:      -9.3      2.260      3.408
REMARK  9 active torsions:
REMARK  status: ('A' for Active; 'I' for Inactive)
REMARK    1  A    between atoms: C_4  and  C_5 
REMARK    2  A    between atoms: C_16  and  C_17 
REMARK    3  A    between atoms: C_20  and  C_21 
REMARK    4  A    between atoms: C_21  and  N_22 
REMARK    5  A    between atoms: N_22  and  C_23 
REMARK    6  A    between atoms: C_23  and  N_24 
REMARK    7  A    between atoms: N_24  and  C_25 
REMARK    8  A    between atoms: C_27  and  C_28 
REMARK    9  A    between atoms: C_28  and  O_29 
ROOT
HETATM    1  C   UNL     1     -42.426  59.021 -53.286  1.00  0.00     0.067 C 
HETATM    2  C   UNL     1     -43.715  59.566 -52.646  1.00  0.00     0.001 C 
HETATM    3  C   UNL     1     -44.969  58.855 -53.192  1.00  0.00     0.040 C 
HETATM    4  C   UNL     1     -45.151  59.088 -54.701  1.00  0.00     0.206 C 
HETATM    5  N   UNL     1     -43.863  59.734 -55.206  1.00  0.00    -0.065 N 
HETATM    6  H   UNL     1     -43.895  59.801 -56.233  1.00  0.00     0.280 HD
HETATM    7  C   UNL     1     -42.624  58.924 -54.817  1.00  0.00     0.246 C 
HETATM    8  C   UNL     1     -43.836  61.045 -53.103  1.00  0.00     0.033 C 
HETATM    9  C   UNL     1     -43.755  61.142 -54.635  1.00  0.00     0.236 C 
ENDROOT
BRANCH   4  10
HETATM   10  C   UNL     1     -45.521  57.808 -55.484  1.00  0.00     0.155 C 
BRANCH  10  11
HETATM   11  N   UNL     1     -46.642  58.023 -56.397  1.00  0.00    -0.365 N 
HETATM   12  H   UNL     1     -47.472  58.462 -56.010  1.00  0.00     0.161 HD
BRANCH  11  13
HETATM   13  C   UNL     1     -46.564  58.179 -57.754  1.00  0.00     0.172 C 
HETATM   14  S   UNL     1     -47.491  59.235 -58.655  1.00  0.00    -0.041 SA
BRANCH  13  15
HETATM   15  N   UNL     1     -45.674  57.386 -58.421  1.00  0.00    -0.333 N 
HETATM   16  H   UNL     1     -46.098  56.524 -58.759  1.00  0.00     0.168 HD
BRANCH  15  17
HETATM   17  C   UNL     1     -44.344  57.605 -58.844  1.00  0.00     0.035 A 
HETATM   18  C   UNL     1     -43.626  58.773 -58.587  1.00  0.00     0.047 A 
HETATM   19  C   UNL     1     -42.311  58.936 -59.051  1.00  0.00     0.041 A 
HETATM   20  C   UNL     1     -41.717  57.925 -59.811  1.00  0.00     0.018 A 
HETATM   21  C   UNL     1     -42.440  56.768 -60.103  1.00  0.00     0.003 A 
HETATM   22  C   UNL     1     -43.744  56.612 -59.624  1.00  0.00     0.029 A 
BRANCH  19  23
HETATM   23  C   UNL     1     -41.609  60.199 -58.695  1.00  0.00     0.293 C 
HETATM   24  O   UNL     1     -41.119  60.395 -57.591  1.00  0.00    -0.259 OA
BRANCH  23  25
HETATM   25  O   UNL     1     -41.602  61.059 -59.738  1.00  0.00    -0.323 OA
HETATM   26  C   UNL     1     -42.528  62.140 -59.619  1.00  0.00     0.213 C 
ENDBRANCH  23  25
ENDBRANCH  19  23
ENDBRANCH  15  17
ENDBRANCH  13  15
ENDBRANCH  11  13
ENDBRANCH  10  11
ENDBRANCH   4  10
BRANCH   1  27
HETATM   27  C   UNL     1     -41.733  57.801 -52.746  1.00  0.00     0.038 C 
HETATM   28  N   UNL     1     -41.203  57.510 -51.510  1.00  0.00    -0.277 N 
HETATM   29  C   UNL     1     -40.971  58.336 -50.349  1.00  0.00     0.179 C 
HETATM   30  N   UNL     1     -40.871  56.215 -51.374  1.00  0.00    -0.172 NA
HETATM   31  C   UNL     1     -41.015  55.669 -52.585  1.00  0.00     0.089 C 
HETATM   32  C   UNL     1     -41.526  56.638 -53.477  1.00  0.00     0.061 C 
BRANCH  31  33
HETATM   33  C   UNL     1     -40.746  54.258 -52.854  1.00  0.00    -0.005 A 
HETATM   34  C   UNL     1     -40.486  53.366 -51.803  1.00  0.00     0.026 A 
HETATM   35  C   UNL     1     -40.133  52.029 -52.053  1.00  0.00    -0.025 A 
HETATM   36  C   UNL     1     -40.048  51.572 -53.387  1.00  0.00    -0.026 A 
HETATM   37  C   UNL     1     -39.850  51.139 -51.003  1.00  0.00     0.012 A 
HETATM   38  C   UNL     1     -40.342  52.459 -54.434  1.00  0.00     0.013 A 
HETATM   39  C   UNL     1     -39.668  50.245 -53.636  1.00  0.00     0.012 A 
HETATM   40  C   UNL     1     -40.689  53.786 -54.170  1.00  0.00     0.014 A 
HETATM   41  C   UNL     1     -39.378  49.377 -52.582  1.00  0.00     0.001 A 
HETATM   42  C   UNL     1     -39.473  49.822 -51.267  1.00  0.00     0.001 A 
ENDBRANCH  31  33
ENDBRANCH   1  27
TORSDOF 9
ENDMDL
MODEL 5
REMARK VINA RESULT:      -9.2      3.024      5.664
REMARK  9 active torsions:
REMARK  status: ('A' for Active; 'I' for Inactive)
REMARK    1  A    between atoms: C_4  and  C_5 
REMARK    2  A    between atoms: C_16  and  C_17 
REMARK    3  A    between atoms: C_20  and  C_21 
REMARK    4  A    between atoms: C_21  and  N_22 
REMARK    5  A    between atoms: N_22  and  C_23 
REMARK    6  A    between atoms: C_23  and  N_24 
REMARK    7  A    between atoms: N_24  and  C_25 
REMARK    8  A    between atoms: C_27  and  C_28 
REMARK    9  A    between atoms: C_28  and  O_29 
ROOT
HETATM    1  C   UNL     1     -42.785  58.570 -57.713  1.00  0.00     0.067 C 
HETATM    2  C   UNL     1     -42.096  59.759 -57.022  1.00  0.00     0.001 C 
HETATM    3  C   UNL     1     -42.975  60.361 -55.907  1.00  0.00     0.040 C 
HETATM    4  C   UNL     1     -44.290  60.936 -56.459  1.00  0.00     0.206 C 
HETATM    5  N   UNL     1     -44.400  60.470 -57.909  1.00  0.00    -0.065 N 
HETATM    6  H   UNL     1     -45.323  60.735 -58.283  1.00  0.00     0.280 HD
HETATM    7  C   UNL     1     -44.248  58.953 -58.038  1.00  0.00     0.246 C 
HETATM    8  C   UNL     1     -41.961  60.870 -58.099  1.00  0.00     0.033 C 
HETATM    9  C   UNL     1     -43.328  61.166 -58.738  1.00  0.00     0.236 C 
ENDROOT
BRANCH   4  10
HETATM   10  C   UNL     1     -45.531  60.558 -55.618  1.00  0.00     0.155 C 
BRANCH  10  11
HETATM   11  N   UNL     1     -45.413  61.004 -54.230  1.00  0.00    -0.365 N 
HETATM   12  H   UNL     1     -45.669  61.967 -54.033  1.00  0.00     0.161 HD
BRANCH  11  13
HETATM   13  C   UNL     1     -45.491  60.214 -53.116  1.00  0.00     0.172 C 
HETATM   14  S   UNL     1     -46.304  60.609 -51.713  1.00  0.00    -0.041 SA
BRANCH  13  15
HETATM   15  N   UNL     1     -44.825  59.022 -53.151  1.00  0.00    -0.333 N 
HETATM   16  H   UNL     1     -45.099  58.446 -53.945  1.00  0.00     0.168 HD
BRANCH  15  17
HETATM   17  C   UNL     1     -43.746  58.519 -52.391  1.00  0.00     0.035 A 
HETATM   18  C   UNL     1     -42.446  59.021 -52.454  1.00  0.00     0.047 A 
HETATM   19  C   UNL     1     -41.412  58.464 -51.683  1.00  0.00     0.041 A 
HETATM   20  C   UNL     1     -41.680  57.367 -50.860  1.00  0.00     0.018 A 
HETATM   21  C   UNL     1     -42.969  56.835 -50.818  1.00  0.00     0.003 A 
HETATM   22  C   UNL     1     -43.993  57.407 -51.580  1.00  0.00     0.029 A 
BRANCH  19  23
HETATM   23  C   UNL     1     -40.066  59.089 -51.785  1.00  0.00     0.293 C 
HETATM   24  O   UNL     1     -39.446  59.157 -52.838  1.00  0.00    -0.259 OA
BRANCH  23  25
HETATM   25  O   UNL     1     -39.653  59.546 -50.582  1.00  0.00    -0.323 OA
HETATM   26  C   UNL     1     -38.235  59.532 -50.399  1.00  0.00     0.213 C 
ENDBRANCH  23  25
ENDBRANCH  19  23
ENDBRANCH  15  17
ENDBRANCH  13  15
ENDBRANCH  11  13
ENDBRANCH  10  11
ENDBRANCH   4  10
BRANCH   1  27
HETATM   27  C   UNL     1     -42.697  57.176 -57.157  1.00  0.00     0.038 C 
HETATM   28  N   UNL     1     -43.093  55.956 -57.655  1.00  0.00    -0.277 N 
HETATM   29  C   UNL     1     -43.887  55.604 -58.808  1.00  0.00     0.179 C 
HETATM   30  N   UNL     1     -42.624  54.920 -56.938  1.00  0.00    -0.172 NA
HETATM   31  C   UNL     1     -42.057  55.451 -55.852  1.00  0.00     0.089 C 
HETATM   32  C   UNL     1     -42.107  56.860 -55.939  1.00  0.00     0.061 C 
BRANCH  31  33
HETATM   33  C   UNL     1     -41.425  54.640 -54.812  1.00  0.00    -0.005 A 
HETATM   34  C   UNL     1     -40.995  53.334 -55.086  1.00  0.00     0.026 A 
HETATM   35  C   UNL     1     -40.474  52.512 -54.073  1.00  0.00    -0.025 A 
HETATM   36  C   UNL     1     -40.372  53.014 -52.756  1.00  0.00    -0.026 A 
HETATM   37  C   UNL     1     -40.064  51.195 -54.339  1.00  0.00     0.012 A 
HETATM   38  C   UNL     1     -40.771  54.333 -52.493  1.00  0.00     0.013 A 
HETATM   39  C   UNL     1     -39.877  52.183 -51.740  1.00  0.00     0.012 A 
HETATM   40  C   UNL     1     -41.291  55.138 -53.511  1.00  0.00     0.014 A 
HETATM   41  C   UNL     1     -39.485  50.872 -52.019  1.00  0.00     0.001 A 
HETATM   42  C   UNL     1     -39.574  50.380 -53.317  1.00  0.00     0.001 A 
ENDBRANCH  31  33
ENDBRANCH   1  27
TORSDOF 9
ENDMDL
MODEL 6
REMARK VINA RESULT:      -9.2      3.177      6.378
REMARK  9 active torsions:
REMARK  status: ('A' for Active; 'I' for Inactive)
REMARK    1  A    between atoms: C_4  and  C_5 
REMARK    2  A    between atoms: C_16  and  C_17 
REMARK    3  A    between atoms: C_20  and  C_21 
REMARK    4  A    between atoms: C_21  and  N_22 
REMARK    5  A    between atoms: N_22  and  C_23 
REMARK    6  A    between atoms: C_23  and  N_24 
REMARK    7  A    between atoms: N_24  and  C_25 
REMARK    8  A    between atoms: C_27  and  C_28 
REMARK    9  A    between atoms: C_28  and  O_29 
ROOT
HETATM    1  C   UNL     1     -43.201  58.256 -59.473  1.00  0.00     0.067 C 
HETATM    2  C   UNL     1     -42.209  59.425 -59.344  1.00  0.00     0.001 C 
HETATM    3  C   UNL     1     -42.718  60.500 -58.364  1.00  0.00     0.040 C 
HETATM    4  C   UNL     1     -44.027  61.147 -58.847  1.00  0.00     0.206 C 
HETATM    5  N   UNL     1     -44.528  60.305 -60.018  1.00  0.00    -0.065 N 
HETATM    6  H   UNL     1     -45.462  60.634 -60.299  1.00  0.00     0.280 HD
HETATM    7  C   UNL     1     -44.629  58.822 -59.658  1.00  0.00     0.246 C 
HETATM    8  C   UNL     1     -42.163  60.111 -60.736  1.00  0.00     0.033 C 
HETATM    9  C   UNL     1     -43.581  60.482 -61.199  1.00  0.00     0.236 C 
ENDROOT
BRANCH   4  10
HETATM   10  C   UNL     1     -45.086  61.305 -57.733  1.00  0.00     0.155 C 
BRANCH  10  11
HETATM   11  N   UNL     1     -45.136  60.141 -56.849  1.00  0.00    -0.365 N 
HETATM   12  H   UNL     1     -44.764  59.270 -57.216  1.00  0.00     0.161 HD
BRANCH  11  13
HETATM   13  C   UNL     1     -45.142  60.162 -55.481  1.00  0.00     0.172 C 
HETATM   14  S   UNL     1     -45.403  61.517 -54.542  1.00  0.00    -0.041 SA
BRANCH  13  15
HETATM   15  N   UNL     1     -44.887  58.982 -54.841  1.00  0.00    -0.333 N 
HETATM   16  H   UNL     1     -45.212  58.174 -55.368  1.00  0.00     0.168 HD
BRANCH  15  17
HETATM   17  C   UNL     1     -44.140  58.680 -53.680  1.00  0.00     0.035 A 
HETATM   18  C   UNL     1     -42.758  58.841 -53.577  1.00  0.00     0.047 A 
HETATM   19  C   UNL     1     -42.072  58.505 -52.399  1.00  0.00     0.041 A 
HETATM   20  C   UNL     1     -42.777  57.969 -51.319  1.00  0.00     0.018 A 
HETATM   21  C   UNL     1     -44.154  57.772 -51.425  1.00  0.00     0.003 A 
HETATM   22  C   UNL     1     -44.829  58.122 -52.598  1.00  0.00     0.029 A 
BRANCH  19  23
HETATM   23  C   UNL     1     -40.604  58.747 -52.367  1.00  0.00     0.293 C 
HETATM   24  O   UNL     1     -39.974  59.128 -53.345  1.00  0.00    -0.259 OA
BRANCH  23  25
HETATM   25  O   UNL     1     -40.098  58.486 -51.141  1.00  0.00    -0.323 OA
HETATM   26  C   UNL     1     -39.143  59.444 -50.679  1.00  0.00     0.213 C 
ENDBRANCH  23  25
ENDBRANCH  19  23
ENDBRANCH  15  17
ENDBRANCH  13  15
ENDBRANCH  11  13
ENDBRANCH  10  11
ENDBRANCH   4  10
BRANCH   1  27
HETATM   27  C   UNL     1     -43.191  57.103 -58.507  1.00  0.00     0.038 C 
HETATM   28  N   UNL     1     -43.482  55.767 -58.659  1.00  0.00    -0.277 N 
HETATM   29  C   UNL     1     -44.064  55.033 -59.757  1.00  0.00     0.179 C 
HETATM   30  N   UNL     1     -43.129  55.029 -57.593  1.00  0.00    -0.172 NA
HETATM   31  C   UNL     1     -42.761  55.900 -56.649  1.00  0.00     0.089 C 
HETATM   32  C   UNL     1     -42.814  57.210 -57.174  1.00  0.00     0.061 C 
BRANCH  31  33
HETATM   33  C   UNL     1     -42.306  55.484 -55.323  1.00  0.00    -0.005 A 
HETATM   34  C   UNL     1     -43.223  55.043 -54.357  1.00  0.00     0.026 A 
HETATM   35  C   UNL     1     -42.811  54.732 -53.051  1.00  0.00    -0.025 A 
HETATM   36  C   UNL     1     -41.447  54.853 -52.706  1.00  0.00    -0.026 A 
HETATM   37  C   UNL     1     -43.730  54.312 -52.075  1.00  0.00     0.012 A 
HETATM   38  C   UNL     1     -40.527  55.261 -53.685  1.00  0.00     0.013 A 
HETATM   39  C   UNL     1     -41.041  54.568 -51.395  1.00  0.00     0.012 A 
HETATM   40  C   UNL     1     -40.953  55.571 -54.979  1.00  0.00     0.014 A 
HETATM   41  C   UNL     1     -41.969  54.164 -50.433  1.00  0.00     0.001 A 
HETATM   42  C   UNL     1     -43.311  54.033 -50.774  1.00  0.00     0.001 A 
ENDBRANCH  31  33
ENDBRANCH   1  27
TORSDOF 9
ENDMDL
MODEL 7
REMARK VINA RESULT:      -9.2      2.331      3.529
REMARK  9 active torsions:
REMARK  status: ('A' for Active; 'I' for Inactive)
REMARK    1  A    between atoms: C_4  and  C_5 
REMARK    2  A    between atoms: C_16  and  C_17 
REMARK    3  A    between atoms: C_20  and  C_21 
REMARK    4  A    between atoms: C_21  and  N_22 
REMARK    5  A    between atoms: N_22  and  C_23 
REMARK    6  A    between atoms: C_23  and  N_24 
REMARK    7  A    between atoms: N_24  and  C_25 
REMARK    8  A    between atoms: C_27  and  C_28 
REMARK    9  A    between atoms: C_28  and  O_29 
ROOT
HETATM    1  C   UNL     1     -42.912  59.146 -53.131  1.00  0.00     0.067 C 
HETATM    2  C   UNL     1     -44.174  59.571 -53.901  1.00  0.00     0.001 C 
HETATM    3  C   UNL     1     -44.139  59.089 -55.365  1.00  0.00     0.040 C 
HETATM    4  C   UNL     1     -42.972  59.713 -56.148  1.00  0.00     0.206 C 
HETATM    5  N   UNL     1     -42.071  60.400 -55.125  1.00  0.00    -0.065 N 
HETATM    6  H   UNL     1     -41.216  60.731 -55.592  1.00  0.00     0.280 HD
HETATM    7  C   UNL     1     -41.665  59.456 -53.992  1.00  0.00     0.246 C 
HETATM    8  C   UNL     1     -44.140  61.122 -53.966  1.00  0.00     0.033 C 
HETATM    9  C   UNL     1     -42.803  61.607 -54.550  1.00  0.00     0.236 C 
ENDROOT
BRANCH   4  10
HETATM   10  C   UNL     1     -42.206  58.697 -57.027  1.00  0.00     0.155 C 
BRANCH  10  11
HETATM   11  N   UNL     1     -42.087  57.389 -56.383  1.00  0.00    -0.365 N 
HETATM   12  H   UNL     1     -41.922  57.383 -55.381  1.00  0.00     0.161 HD
BRANCH  11  13
HETATM   13  C   UNL     1     -42.646  56.218 -56.818  1.00  0.00     0.172 C 
HETATM   14  S   UNL     1     -43.167  54.977 -55.832  1.00  0.00    -0.041 SA
BRANCH  13  15
HETATM   15  N   UNL     1     -42.758  56.048 -58.169  1.00  0.00    -0.333 N 
HETATM   16  H   UNL     1     -41.879  55.769 -58.601  1.00  0.00     0.168 HD
BRANCH  15  17
HETATM   17  C   UNL     1     -43.877  56.043 -59.032  1.00  0.00     0.035 A 
HETATM   18  C   UNL     1     -44.860  57.032 -59.040  1.00  0.00     0.047 A 
HETATM   19  C   UNL     1     -45.958  56.960 -59.912  1.00  0.00     0.041 A 
HETATM   20  C   UNL     1     -46.088  55.863 -60.768  1.00  0.00     0.018 A 
HETATM   21  C   UNL     1     -45.128  54.851 -60.743  1.00  0.00     0.003 A 
HETATM   22  C   UNL     1     -44.032  54.941 -59.879  1.00  0.00     0.029 A 
BRANCH  19  23
HETATM   23  C   UNL     1     -46.938  58.079 -59.878  1.00  0.00     0.293 C 
HETATM   24  O   UNL     1     -47.241  58.724 -60.874  1.00  0.00    -0.259 OA
BRANCH  23  25
HETATM   25  O   UNL     1     -47.415  58.266 -58.627  1.00  0.00    -0.323 OA
HETATM   26  C   UNL     1     -47.421  59.628 -58.194  1.00  0.00     0.213 C 
ENDBRANCH  23  25
ENDBRANCH  19  23
ENDBRANCH  15  17
ENDBRANCH  13  15
ENDBRANCH  11  13
ENDBRANCH  10  11
ENDBRANCH   4  10
BRANCH   1  27
HETATM   27  C   UNL     1     -42.803  57.794 -52.480  1.00  0.00     0.038 C 
HETATM   28  N   UNL     1     -43.652  57.095 -51.654  1.00  0.00    -0.277 N 
HETATM   29  C   UNL     1     -44.869  57.485 -50.981  1.00  0.00     0.179 C 
HETATM   30  N   UNL     1     -43.276  55.817 -51.475  1.00  0.00    -0.172 NA
HETATM   31  C   UNL     1     -42.072  55.706 -52.041  1.00  0.00     0.089 C 
HETATM   32  C   UNL     1     -41.729  56.930 -52.657  1.00  0.00     0.061 C 
BRANCH  31  33
HETATM   33  C   UNL     1     -41.317  54.454 -52.056  1.00  0.00    -0.005 A 
HETATM   34  C   UNL     1     -41.243  53.677 -53.222  1.00  0.00     0.026 A 
HETATM   35  C   UNL     1     -40.602  52.427 -53.224  1.00  0.00    -0.025 A 
HETATM   36  C   UNL     1     -40.010  51.949 -52.033  1.00  0.00    -0.026 A 
HETATM   37  C   UNL     1     -40.546  51.636 -54.383  1.00  0.00     0.012 A 
HETATM   38  C   UNL     1     -40.056  52.746 -50.878  1.00  0.00     0.013 A 
HETATM   39  C   UNL     1     -39.394  50.690 -52.029  1.00  0.00     0.012 A 
HETATM   40  C   UNL     1     -40.701  53.985 -50.891  1.00  0.00     0.014 A 
HETATM   41  C   UNL     1     -39.358  49.910 -53.187  1.00  0.00     0.001 A 
HETATM   42  C   UNL     1     -39.930  50.384 -54.363  1.00  0.00     0.001 A 
ENDBRANCH  31  33
ENDBRANCH   1  27
TORSDOF 9
ENDMDL
MODEL 8
REMARK VINA RESULT:      -9.2      2.752      5.711
REMARK  9 active torsions:
REMARK  status: ('A' for Active; 'I' for Inactive)
REMARK    1  A    between atoms: C_4  and  C_5 
REMARK    2  A    between atoms: C_16  and  C_17 
REMARK    3  A    between atoms: C_20  and  C_21 
REMARK    4  A    between atoms: C_21  and  N_22 
REMARK    5  A    between atoms: N_22  and  C_23 
REMARK    6  A    between atoms: C_23  and  N_24 
REMARK    7  A    between atoms: N_24  and  C_25 
REMARK    8  A    between atoms: C_27  and  C_28 
REMARK    9  A    between atoms: C_28  and  O_29 
ROOT
HETATM    1  C   UNL     1     -43.639  57.045 -57.867  1.00  0.00     0.067 C 
HETATM    2  C   UNL     1     -42.504  57.232 -58.888  1.00  0.00     0.001 C 
HETATM    3  C   UNL     1     -41.832  58.613 -58.749  1.00  0.00     0.040 C 
HETATM    4  C   UNL     1     -42.812  59.762 -59.036  1.00  0.00     0.206 C 
HETATM    5  N   UNL     1     -44.207  59.145 -59.102  1.00  0.00    -0.065 N 
HETATM    6  H   UNL     1     -44.908  59.895 -59.177  1.00  0.00     0.280 HD
HETATM    7  C   UNL     1     -44.526  58.312 -57.859  1.00  0.00     0.246 C 
HETATM    8  C   UNL     1     -43.174  57.229 -60.289  1.00  0.00     0.033 C 
HETATM    9  C   UNL     1     -44.306  58.269 -60.345  1.00  0.00     0.236 C 
ENDROOT
BRANCH   4  10
HETATM   10  C   UNL     1     -42.722  60.920 -58.016  1.00  0.00     0.155 C 
BRANCH  10  11
HETATM   11  N   UNL     1     -42.243  60.470 -56.710  1.00  0.00    -0.365 N 
HETATM   12  H   UNL     1     -41.281  60.150 -56.658  1.00  0.00     0.161 HD
BRANCH  11  13
HETATM   13  C   UNL     1     -42.717  60.871 -55.491  1.00  0.00     0.172 C 
HETATM   14  S   UNL     1     -44.152  61.686 -55.239  1.00  0.00    -0.041 SA
BRANCH  13  15
HETATM   15  N   UNL     1     -41.936  60.606 -54.402  1.00  0.00    -0.333 N 
HETATM   16  H   UNL     1     -41.196  61.294 -54.276  1.00  0.00     0.168 HD
BRANCH  15  17
HETATM   17  C   UNL     1     -42.056  59.658 -53.362  1.00  0.00     0.035 A 
HETATM   18  C   UNL     1     -43.263  59.317 -52.751  1.00  0.00     0.047 A 
HETATM   19  C   UNL     1     -43.312  58.378 -51.708  1.00  0.00     0.041 A 
HETATM   20  C   UNL     1     -42.128  57.794 -51.250  1.00  0.00     0.018 A 
HETATM   21  C   UNL     1     -40.912  58.155 -51.830  1.00  0.00     0.003 A 
HETATM   22  C   UNL     1     -40.877  59.081 -52.877  1.00  0.00     0.029 A 
BRANCH  19  23
HETATM   23  C   UNL     1     -44.648  58.048 -51.143  1.00  0.00     0.293 C 
HETATM   24  O   UNL     1     -44.925  56.940 -50.703  1.00  0.00    -0.259 OA
BRANCH  23  25
HETATM   25  O   UNL     1     -45.473  59.118 -51.195  1.00  0.00    -0.323 OA
HETATM   26  C   UNL     1     -45.525  59.884 -49.990  1.00  0.00     0.213 C 
ENDBRANCH  23  25
ENDBRANCH  19  23
ENDBRANCH  15  17
ENDBRANCH  13  15
ENDBRANCH  11  13
ENDBRANCH  10  11
ENDBRANCH   4  10
BRANCH   1  27
HETATM   27  C   UNL     1     -43.370  56.557 -56.470  1.00  0.00     0.038 C 
HETATM   28  N   UNL     1     -44.046  56.732 -55.284  1.00  0.00    -0.277 N 
HETATM   29  C   UNL     1     -45.155  57.586 -54.931  1.00  0.00     0.179 C 
HETATM   30  N   UNL     1     -43.591  55.937 -54.300  1.00  0.00    -0.172 NA
HETATM   31  C   UNL     1     -42.490  55.353 -54.778  1.00  0.00     0.089 C 
HETATM   32  C   UNL     1     -42.302  55.738 -56.124  1.00  0.00     0.061 C 
BRANCH  31  33
HETATM   33  C   UNL     1     -41.694  54.406 -53.999  1.00  0.00    -0.005 A 
HETATM   34  C   UNL     1     -41.325  53.166 -54.540  1.00  0.00     0.026 A 
HETATM   35  C   UNL     1     -40.643  52.209 -53.770  1.00  0.00    -0.025 A 
HETATM   36  C   UNL     1     -40.313  52.506 -52.429  1.00  0.00    -0.026 A 
HETATM   37  C   UNL     1     -40.292  50.957 -54.302  1.00  0.00     0.012 A 
HETATM   38  C   UNL     1     -40.653  53.761 -51.902  1.00  0.00     0.013 A 
HETATM   39  C   UNL     1     -39.656  51.540 -51.653  1.00  0.00     0.012 A 
HETATM   40  C   UNL     1     -41.335  54.701 -52.679  1.00  0.00     0.014 A 
HETATM   41  C   UNL     1     -39.325  50.295 -52.193  1.00  0.00     0.001 A 
HETATM   42  C   UNL     1     -39.639  50.006 -53.517  1.00  0.00     0.001 A 
ENDBRANCH  31  33
ENDBRANCH   1  27
TORSDOF 9
ENDMDL
MODEL 9
REMARK VINA RESULT:      -9.1      3.067      6.481
REMARK  9 active torsions:
REMARK  status: ('A' for Active; 'I' for Inactive)
REMARK    1  A    between atoms: C_4  and  C_5 
REMARK    2  A    between atoms: C_16  and  C_17 
REMARK    3  A    between atoms: C_20  and  C_21 
REMARK    4  A    between atoms: C_21  and  N_22 
REMARK    5  A    between atoms: N_22  and  C_23 
REMARK    6  A    between atoms: C_23  and  N_24 
REMARK    7  A    between atoms: N_24  and  C_25 
REMARK    8  A    between atoms: C_27  and  C_28 
REMARK    9  A    between atoms: C_28  and  O_29 
ROOT
HETATM    1  C   UNL     1     -43.280  57.997 -59.731  1.00  0.00     0.067 C 
HETATM    2  C   UNL     1     -42.078  58.956 -59.766  1.00  0.00     0.001 C 
HETATM    3  C   UNL     1     -42.204  60.070 -58.708  1.00  0.00     0.040 C 
HETATM    4  C   UNL     1     -43.429  60.966 -58.959  1.00  0.00     0.206 C 
HETATM    5  N   UNL     1     -44.267  60.276 -60.032  1.00  0.00    -0.065 N 
HETATM    6  H   UNL     1     -45.156  60.783 -60.148  1.00  0.00     0.280 HD
HETATM    7  C   UNL     1     -44.586  58.825 -59.668  1.00  0.00     0.246 C 
HETATM    8  C   UNL     1     -42.134  59.673 -61.142  1.00  0.00     0.033 C 
HETATM    9  C   UNL     1     -43.513  60.319 -61.356  1.00  0.00     0.236 C 
ENDROOT
BRANCH   4  10
HETATM   10  C   UNL     1     -44.239  61.276 -57.680  1.00  0.00     0.155 C 
BRANCH  10  11
HETATM   11  N   UNL     1     -43.664  60.641 -56.494  1.00  0.00    -0.365 N 
HETATM   12  H   UNL     1     -43.290  59.704 -56.610  1.00  0.00     0.161 HD
BRANCH  11  13
HETATM   13  C   UNL     1     -43.118  61.282 -55.416  1.00  0.00     0.172 C 
HETATM   14  S   UNL     1     -43.525  62.818 -54.903  1.00  0.00    -0.041 SA
BRANCH  13  15
HETATM   15  N   UNL     1     -42.143  60.619 -54.727  1.00  0.00    -0.333 N 
HETATM   16  H   UNL     1     -41.222  61.034 -54.856  1.00  0.00     0.168 HD
BRANCH  15  17
HETATM   17  C   UNL     1     -42.202  59.577 -53.774  1.00  0.00     0.035 A 
HETATM   18  C   UNL     1     -43.326  59.290 -53.000  1.00  0.00     0.047 A 
HETATM   19  C   UNL     1     -43.314  58.250 -52.056  1.00  0.00     0.041 A 
HETATM   20  C   UNL     1     -42.146  57.507 -51.863  1.00  0.00     0.018 A 
HETATM   21  C   UNL     1     -41.006  57.810 -52.607  1.00  0.00     0.003 A 
HETATM   22  C   UNL     1     -41.034  58.840 -53.553  1.00  0.00     0.029 A 
BRANCH  19  23
HETATM   23  C   UNL     1     -44.571  57.990 -51.304  1.00  0.00     0.293 C 
HETATM   24  O   UNL     1     -44.766  56.956 -50.679  1.00  0.00    -0.259 OA
BRANCH  23  25
HETATM   25  O   UNL     1     -45.428  59.030 -51.420  1.00  0.00    -0.323 OA
HETATM   26  C   UNL     1     -45.599  59.791 -50.222  1.00  0.00     0.213 C 
ENDBRANCH  23  25
ENDBRANCH  19  23
ENDBRANCH  15  17
ENDBRANCH  13  15
ENDBRANCH  11  13
ENDBRANCH  10  11
ENDBRANCH   4  10
BRANCH   1  27
HETATM   27  C   UNL     1     -43.329  56.827 -58.787  1.00  0.00     0.038 C 
HETATM   28  N   UNL     1     -43.845  55.558 -58.914  1.00  0.00    -0.277 N 
HETATM   29  C   UNL     1     -44.672  54.958 -59.933  1.00  0.00     0.179 C 
HETATM   30  N   UNL     1     -43.479  54.741 -57.911  1.00  0.00    -0.172 NA
HETATM   31  C   UNL     1     -42.860  55.514 -57.015  1.00  0.00     0.089 C 
HETATM   32  C   UNL     1     -42.771  56.832 -57.514  1.00  0.00     0.061 C 
BRANCH  31  33
HETATM   33  C   UNL     1     -42.310  54.991 -55.765  1.00  0.00    -0.005 A 
HETATM   34  C   UNL     1     -43.130  54.814 -54.641  1.00  0.00     0.026 A 
HETATM   35  C   UNL     1     -42.596  54.403 -53.408  1.00  0.00    -0.025 A 
HETATM   36  C   UNL     1     -41.210  54.153 -53.301  1.00  0.00    -0.026 A 
HETATM   37  C   UNL     1     -43.411  54.247 -52.274  1.00  0.00     0.012 A 
HETATM   38  C   UNL     1     -40.398  54.298 -54.437  1.00  0.00     0.013 A 
HETATM   39  C   UNL     1     -40.674  53.769 -52.063  1.00  0.00     0.012 A 
HETATM   40  C   UNL     1     -40.943  54.711 -55.656  1.00  0.00     0.014 A 
HETATM   41  C   UNL     1     -41.496  53.631 -50.943  1.00  0.00     0.001 A 
HETATM   42  C   UNL     1     -42.862  53.865 -51.049  1.00  0.00     0.001 A 
ENDBRANCH  31  33
ENDBRANCH   1  27
TORSDOF 9
ENDMDL
MODEL 10
REMARK VINA RESULT:      -9.0      1.718      2.435
REMARK  9 active torsions:
REMARK  status: ('A' for Active; 'I' for Inactive)
REMARK    1  A    between atoms: C_4  and  C_5 
REMARK    2  A    between atoms: C_16  and  C_17 
REMARK    3  A    between atoms: C_20  and  C_21 
REMARK    4  A    between atoms: C_21  and  N_22 
REMARK    5  A    between atoms: N_22  and  C_23 
REMARK    6  A    between atoms: C_23  and  N_24 
REMARK    7  A    between atoms: N_24  and  C_25 
REMARK    8  A    between atoms: C_27  and  C_28 
REMARK    9  A    between atoms: C_28  and  O_29 
ROOT
HETATM    1  C   UNL     1     -42.791  59.076 -52.954  1.00  0.00     0.067 C 
HETATM    2  C   UNL     1     -44.193  59.356 -52.387  1.00  0.00     0.001 C 
HETATM    3  C   UNL     1     -45.209  59.671 -53.503  1.00  0.00     0.040 C 
HETATM    4  C   UNL     1     -44.836  60.947 -54.277  1.00  0.00     0.206 C 
HETATM    5  N   UNL     1     -43.422  61.327 -53.845  1.00  0.00    -0.065 N 
HETATM    6  H   UNL     1     -43.088  62.109 -54.425  1.00  0.00     0.280 HD
HETATM    7  C   UNL     1     -42.442  60.162 -53.999  1.00  0.00     0.246 C 
HETATM    8  C   UNL     1     -44.071  60.658 -51.548  1.00  0.00     0.033 C 
HETATM    9  C   UNL     1     -43.451  61.784 -52.392  1.00  0.00     0.236 C 
ENDROOT
BRANCH   4  10
HETATM   10  C   UNL     1     -44.971  60.801 -55.810  1.00  0.00     0.155 C 
BRANCH  10  11
HETATM   11  N   UNL     1     -46.037  59.872 -56.185  1.00  0.00    -0.365 N 
HETATM   12  H   UNL     1     -46.649  59.551 -55.441  1.00  0.00     0.161 HD
BRANCH  11  13
HETATM   13  C   UNL     1     -46.626  59.769 -57.415  1.00  0.00     0.172 C 
HETATM   14  S   UNL     1     -47.126  61.057 -58.352  1.00  0.00    -0.041 SA
BRANCH  13  15
HETATM   15  N   UNL     1     -46.844  58.509 -57.896  1.00  0.00    -0.333 N 
HETATM   16  H   UNL     1     -47.758  58.145 -57.634  1.00  0.00     0.168 HD
BRANCH  15  17
HETATM   17  C   UNL     1     -46.112  57.700 -58.793  1.00  0.00     0.035 A 
HETATM   18  C   UNL     1     -44.732  57.788 -58.975  1.00  0.00     0.047 A 
HETATM   19  C   UNL     1     -44.065  56.965 -59.896  1.00  0.00     0.041 A 
HETATM   20  C   UNL     1     -44.797  56.060 -60.669  1.00  0.00     0.018 A 
HETATM   21  C   UNL     1     -46.182  55.989 -60.520  1.00  0.00     0.003 A 
HETATM   22  C   UNL     1     -46.834  56.805 -59.590  1.00  0.00     0.029 A 
BRANCH  19  23
HETATM   23  C   UNL     1     -42.586  57.102 -59.995  1.00  0.00     0.293 C 
HETATM   24  O   UNL     1     -41.855  56.169 -60.303  1.00  0.00    -0.259 OA
BRANCH  23  25
HETATM   25  O   UNL     1     -42.196  58.362 -59.700  1.00  0.00    -0.323 OA
HETATM   26  C   UNL     1     -41.957  59.189 -60.841  1.00  0.00     0.213 C 
ENDBRANCH  23  25
ENDBRANCH  19  23
ENDBRANCH  15  17
ENDBRANCH  13  15
ENDBRANCH  11  13
ENDBRANCH  10  11
ENDBRANCH   4  10
BRANCH   1  27
HETATM   27  C   UNL     1     -42.394  57.708 -53.435  1.00  0.00     0.038 C 
HETATM   28  N   UNL     1     -42.260  57.175 -54.697  1.00  0.00    -0.277 N 
HETATM   29  C   UNL     1     -42.620  57.688 -55.997  1.00  0.00     0.179 C 
HETATM   30  N   UNL     1     -41.662  55.971 -54.696  1.00  0.00    -0.172 NA
HETATM   31  C   UNL     1     -41.553  55.615 -53.413  1.00  0.00     0.089 C 
HETATM   32  C   UNL     1     -42.026  56.665 -52.595  1.00  0.00     0.061 C 
BRANCH  31  33
HETATM   33  C   UNL     1     -40.950  54.352 -52.991  1.00  0.00    -0.005 A 
HETATM   34  C   UNL     1     -40.777  53.301 -53.903  1.00  0.00     0.026 A 
HETATM   35  C   UNL     1     -40.286  52.051 -53.489  1.00  0.00    -0.025 A 
HETATM   36  C   UNL     1     -39.951  51.853 -52.131  1.00  0.00    -0.026 A 
HETATM   37  C   UNL     1     -40.134  50.990 -54.396  1.00  0.00     0.012 A 
HETATM   38  C   UNL     1     -40.093  52.917 -51.228  1.00  0.00     0.013 A 
HETATM   39  C   UNL     1     -39.488  50.597 -51.714  1.00  0.00     0.012 A 
HETATM   40  C   UNL     1     -40.585  54.154 -51.654  1.00  0.00     0.014 A 
HETATM   41  C   UNL     1     -39.354  49.548 -52.626  1.00  0.00     0.001 A 
HETATM   42  C   UNL     1     -39.672  49.745 -53.966  1.00  0.00     0.001 A 
ENDBRANCH  31  33
ENDBRANCH   1  27
TORSDOF 9
ENDMDL
