MODEL 1
REMARK VINA RESULT:      -7.6      0.000      0.000
REMARK  6 active torsions:
REMARK  status: ('A' for Active; 'I' for Inactive)
REMARK    1  A    between atoms: C_2  and  O_3 
REMARK    2  A    between atoms: O_3  and  C_4 
REMARK    3  A    between atoms: C_7  and  N_8 
REMARK    4  A    between atoms: C_9  and  O_10 
REMARK    5  A    between atoms: C_9  and  C_11 
REMARK       I    between atoms: C_11  and  N_12 
REMARK    6  A    between atoms: N_12  and  C_13 
ROOT
HETATM    1  N   UNL     1     -42.837  56.738 -54.840  1.00  0.00    -0.254 N 
HETATM    2  C   UNL     1     -41.659  56.547 -53.983  1.00  0.00     0.256 C 
HETATM    3  C   UNL     1     -41.969  55.540 -52.898  1.00  0.00     0.035 A 
HETATM    4  C   UNL     1     -43.233  55.641 -52.320  1.00  0.00     0.048 A 
HETATM    5  N   UNL     1     -44.148  56.519 -52.897  1.00  0.00    -0.308 N 
HETATM    6  C   UNL     1     -44.042  57.003 -54.184  1.00  0.00     0.330 C 
HETATM    7  O   UNL     1     -45.042  57.528 -54.671  1.00  0.00    -0.246 OA
HETATM    8  C   UNL     1     -41.052  54.611 -52.386  1.00  0.00     0.034 A 
HETATM    9  C   UNL     1     -41.410  53.816 -51.297  1.00  0.00     0.011 A 
HETATM   10 BR   UNL     1     -40.175  52.563 -50.607  1.00  0.00    -0.051 Br
HETATM   11  C   UNL     1     -42.667  53.949 -50.704  1.00  0.00     0.021 A 
HETATM   12  C   UNL     1     -43.583  54.870 -51.214  1.00  0.00     0.031 A 
HETATM   13  H   UNL     1     -45.076  56.616 -52.506  1.00  0.00     0.170 HD
ENDROOT
BRANCH   1  14
HETATM   14  C   UNL     1     -42.718  56.921 -56.251  1.00  0.00     0.043 A 
HETATM   15  C   UNL     1     -42.403  58.162 -56.810  1.00  0.00     0.032 A 
HETATM   16  C   UNL     1     -42.338  58.326 -58.198  1.00  0.00     0.039 A 
HETATM   17  C   UNL     1     -42.602  57.258 -59.058  1.00  0.00     0.068 A 
HETATM   18  C   UNL     1     -42.933  56.021 -58.512  1.00  0.00     0.039 A 
HETATM   19  C   UNL     1     -42.996  55.858 -57.122  1.00  0.00     0.032 A 
BRANCH  17  20
HETATM   20  O   UNL     1     -42.515  57.554 -60.389  1.00  0.00    -0.352 OA
BRANCH  20  21
HETATM   21  C   UNL     1     -42.147  58.888 -60.734  1.00  0.00     0.171 C 
HETATM   22  C   UNL     1     -43.411  59.644 -61.105  1.00  0.00     0.034 C 
ENDBRANCH  20  21
ENDBRANCH  17  20
ENDBRANCH   1  14
BRANCH   2  23
HETATM   23  O   UNL     1     -40.516  56.095 -54.714  1.00  0.00    -0.359 OA
HETATM   24  H   UNL     1     -40.081  56.918 -55.012  1.00  0.00     0.213 HD
ENDBRANCH   2  23
BRANCH   2  25
HETATM   25  C   UNL     1     -41.240  57.969 -53.404  1.00  0.00     0.279 C 
HETATM   26  N   UNL     1     -41.038  58.065 -52.035  1.00  0.00    -0.352 N 
HETATM   27  H   UNL     1     -41.181  57.253 -51.445  1.00  0.00     0.163 HD
HETATM   28  O   UNL     1     -41.007  58.924 -54.154  1.00  0.00    -0.268 OA
BRANCH  26  29
HETATM   29  C   UNL     1     -40.658  59.286 -51.400  1.00  0.00     0.084 A 
HETATM   30  C   UNL     1     -40.702  59.411 -49.902  1.00  0.00     0.027 A 
HETATM   31  C   UNL     1     -39.380  59.370 -50.610  1.00  0.00     0.027 A 
ENDBRANCH  26  29
ENDBRANCH   2  25
TORSDOF 6
ENDMDL
MODEL 2
REMARK VINA RESULT:      -7.5      3.811      7.460
REMARK  6 active torsions:
REMARK  status: ('A' for Active; 'I' for Inactive)
REMARK    1  A    between atoms: C_2  and  O_3 
REMARK    2  A    between atoms: O_3  and  C_4 
REMARK    3  A    between atoms: C_7  and  N_8 
REMARK    4  A    between atoms: C_9  and  O_10 
REMARK    5  A    between atoms: C_9  and  C_11 
REMARK       I    between atoms: C_11  and  N_12 
REMARK    6  A    between atoms: N_12  and  C_13 
ROOT
HETATM    1  N   UNL     1     -43.090  57.343 -55.678  1.00  0.00    -0.254 N 
HETATM    2  C   UNL     1     -42.865  57.814 -57.051  1.00  0.00     0.256 C 
HETATM    3  C   UNL     1     -42.646  59.311 -57.053  1.00  0.00     0.035 A 
HETATM    4  C   UNL     1     -43.464  60.045 -56.197  1.00  0.00     0.048 A 
HETATM    5  N   UNL     1     -44.270  59.344 -55.302  1.00  0.00    -0.308 N 
HETATM    6  C   UNL     1     -44.054  58.032 -54.936  1.00  0.00     0.330 C 
HETATM    7  O   UNL     1     -44.645  57.621 -53.939  1.00  0.00    -0.246 OA
HETATM    8  C   UNL     1     -41.768  59.986 -57.913  1.00  0.00     0.034 A 
HETATM    9  C   UNL     1     -41.741  61.382 -57.912  1.00  0.00     0.011 A 
HETATM   10 BR   UNL     1     -40.559  62.294 -59.070  1.00  0.00    -0.051 Br
HETATM   11  C   UNL     1     -42.589  62.109 -57.075  1.00  0.00     0.021 A 
HETATM   12  C   UNL     1     -43.460  61.437 -56.215  1.00  0.00     0.031 A 
HETATM   13  H   UNL     1     -44.875  59.845 -54.663  1.00  0.00     0.170 HD
ENDROOT
BRANCH   1  14
HETATM   14  C   UNL     1     -42.569  56.096 -55.216  1.00  0.00     0.043 A 
HETATM   15  C   UNL     1     -43.245  54.891 -55.427  1.00  0.00     0.032 A 
HETATM   16  C   UNL     1     -42.736  53.688 -54.925  1.00  0.00     0.039 A 
HETATM   17  C   UNL     1     -41.551  53.665 -54.187  1.00  0.00     0.068 A 
HETATM   18  C   UNL     1     -40.878  54.862 -53.957  1.00  0.00     0.039 A 
HETATM   19  C   UNL     1     -41.388  56.065 -54.463  1.00  0.00     0.032 A 
BRANCH  17  20
HETATM   20  O   UNL     1     -41.170  52.429 -53.745  1.00  0.00    -0.352 OA
BRANCH  20  21
HETATM   21  C   UNL     1     -39.877  51.972 -54.135  1.00  0.00     0.171 C 
HETATM   22  C   UNL     1     -39.953  50.470 -54.348  1.00  0.00     0.034 C 
ENDBRANCH  20  21
ENDBRANCH  17  20
ENDBRANCH   1  14
BRANCH   2  23
HETATM   23  O   UNL     1     -41.740  57.184 -57.670  1.00  0.00    -0.359 OA
HETATM   24  H   UNL     1     -40.970  57.533 -57.181  1.00  0.00     0.213 HD
ENDBRANCH   2  23
BRANCH   2  25
HETATM   25  C   UNL     1     -44.118  57.373 -57.929  1.00  0.00     0.279 C 
HETATM   26  N   UNL     1     -43.985  56.222 -58.693  1.00  0.00    -0.352 N 
HETATM   27  H   UNL     1     -43.109  55.714 -58.693  1.00  0.00     0.163 HD
HETATM   28  O   UNL     1     -45.196  57.972 -57.855  1.00  0.00    -0.268 OA
BRANCH  26  29
HETATM   29  C   UNL     1     -45.039  55.725 -59.518  1.00  0.00     0.084 A 
HETATM   30  C   UNL     1     -44.787  55.406 -60.965  1.00  0.00     0.027 A 
HETATM   31  C   UNL     1     -45.032  54.295 -59.987  1.00  0.00     0.027 A 
ENDBRANCH  26  29
ENDBRANCH   2  25
TORSDOF 6
ENDMDL
MODEL 3
REMARK VINA RESULT:      -7.4      3.623      6.676
REMARK  6 active torsions:
REMARK  status: ('A' for Active; 'I' for Inactive)
REMARK    1  A    between atoms: C_2  and  O_3 
REMARK    2  A    between atoms: O_3  and  C_4 
REMARK    3  A    between atoms: C_7  and  N_8 
REMARK    4  A    between atoms: C_9  and  O_10 
REMARK    5  A    between atoms: C_9  and  C_11 
REMARK       I    between atoms: C_11  and  N_12 
REMARK    6  A    between atoms: N_12  and  C_13 
ROOT
HETATM    1  N   UNL     1     -42.218  56.584 -53.953  1.00  0.00    -0.254 N 
HETATM    2  C   UNL     1     -43.677  56.752 -54.003  1.00  0.00     0.256 C 
HETATM    3  C   UNL     1     -44.044  57.761 -55.069  1.00  0.00     0.035 A 
HETATM    4  C   UNL     1     -43.217  58.880 -55.155  1.00  0.00     0.048 A 
HETATM    5  N   UNL     1     -42.049  58.890 -54.395  1.00  0.00    -0.308 N 
HETATM    6  C   UNL     1     -41.463  57.757 -53.870  1.00  0.00     0.330 C 
HETATM    7  O   UNL     1     -40.303  57.857 -53.474  1.00  0.00    -0.246 OA
HETATM    8  C   UNL     1     -45.187  57.687 -55.876  1.00  0.00     0.034 A 
HETATM    9  C   UNL     1     -45.490  58.741 -56.739  1.00  0.00     0.011 A 
HETATM   10 BR   UNL     1     -47.031  58.644 -57.829  1.00  0.00    -0.051 Br
HETATM   11  C   UNL     1     -44.675  59.873 -56.793  1.00  0.00     0.021 A 
HETATM   12  C   UNL     1     -43.533  59.946 -55.993  1.00  0.00     0.031 A 
HETATM   13  H   UNL     1     -41.424  59.685 -54.435  1.00  0.00     0.170 HD
ENDROOT
BRANCH   1  14
HETATM   14  C   UNL     1     -41.616  55.311 -53.721  1.00  0.00     0.043 A 
HETATM   15  C   UNL     1     -41.432  54.806 -52.431  1.00  0.00     0.032 A 
HETATM   16  C   UNL     1     -40.797  53.575 -52.228  1.00  0.00     0.039 A 
HETATM   17  C   UNL     1     -40.318  52.831 -53.308  1.00  0.00     0.068 A 
HETATM   18  C   UNL     1     -40.481  53.332 -54.596  1.00  0.00     0.039 A 
HETATM   19  C   UNL     1     -41.119  54.564 -54.798  1.00  0.00     0.032 A 
BRANCH  17  20
HETATM   20  O   UNL     1     -39.708  51.655 -52.973  1.00  0.00    -0.352 OA
BRANCH  20  21
HETATM   21  C   UNL     1     -39.547  51.382 -51.582  1.00  0.00     0.171 C 
HETATM   22  C   UNL     1     -39.564  49.875 -51.393  1.00  0.00     0.034 C 
ENDBRANCH  20  21
ENDBRANCH  17  20
ENDBRANCH   1  14
BRANCH   2  23
HETATM   23  O   UNL     1     -44.361  55.527 -54.277  1.00  0.00    -0.359 OA
HETATM   24  H   UNL     1     -43.646  54.868 -54.371  1.00  0.00     0.213 HD
ENDBRANCH   2  23
BRANCH   2  25
HETATM   25  C   UNL     1     -44.169  57.182 -52.551  1.00  0.00     0.279 C 
HETATM   26  N   UNL     1     -44.846  58.387 -52.440  1.00  0.00    -0.352 N 
HETATM   27  H   UNL     1     -44.989  58.965 -53.260  1.00  0.00     0.163 HD
HETATM   28  O   UNL     1     -44.043  56.426 -51.581  1.00  0.00    -0.268 OA
BRANCH  26  29
HETATM   29  C   UNL     1     -45.338  58.877 -51.192  1.00  0.00     0.084 A 
HETATM   30  C   UNL     1     -44.752  60.118 -50.577  1.00  0.00     0.027 A 
HETATM   31  C   UNL     1     -46.145  60.146 -51.134  1.00  0.00     0.027 A 
ENDBRANCH  26  29
ENDBRANCH   2  25
TORSDOF 6
ENDMDL
MODEL 4
REMARK VINA RESULT:      -7.2      3.259      6.617
REMARK  6 active torsions:
REMARK  status: ('A' for Active; 'I' for Inactive)
REMARK    1  A    between atoms: C_2  and  O_3 
REMARK    2  A    between atoms: O_3  and  C_4 
REMARK    3  A    between atoms: C_7  and  N_8 
REMARK    4  A    between atoms: C_9  and  O_10 
REMARK    5  A    between atoms: C_9  and  C_11 
REMARK       I    between atoms: C_11  and  N_12 
REMARK    6  A    between atoms: N_12  and  C_13 
ROOT
HETATM    1  N   UNL     1     -41.900  56.970 -54.708  1.00  0.00    -0.254 N 
HETATM    2  C   UNL     1     -43.106  57.102 -55.536  1.00  0.00     0.256 C 
HETATM    3  C   UNL     1     -42.887  58.150 -56.604  1.00  0.00     0.035 A 
HETATM    4  C   UNL     1     -42.199  59.293 -56.200  1.00  0.00     0.048 A 
HETATM    5  N   UNL     1     -41.629  59.298 -54.929  1.00  0.00    -0.308 N 
HETATM    6  C   UNL     1     -41.366  58.158 -54.199  1.00  0.00     0.330 C 
HETATM    7  O   UNL     1     -40.610  58.268 -53.235  1.00  0.00    -0.246 OA
HETATM    8  C   UNL     1     -43.408  58.085 -57.904  1.00  0.00     0.034 A 
HETATM    9  C   UNL     1     -43.247  59.170 -58.766  1.00  0.00     0.011 A 
HETATM   10 BR   UNL     1     -43.948  59.084 -60.519  1.00  0.00    -0.051 Br
HETATM   11  C   UNL     1     -42.586  60.324 -58.341  1.00  0.00     0.021 A 
HETATM   12  C   UNL     1     -42.063  60.389 -57.048  1.00  0.00     0.031 A 
HETATM   13  H   UNL     1     -41.120  60.110 -54.603  1.00  0.00     0.170 HD
ENDROOT
BRANCH   1  14
HETATM   14  C   UNL     1     -41.458  55.703 -54.220  1.00  0.00     0.043 A 
HETATM   15  C   UNL     1     -40.539  54.921 -54.924  1.00  0.00     0.032 A 
HETATM   16  C   UNL     1     -40.157  53.662 -54.446  1.00  0.00     0.039 A 
HETATM   17  C   UNL     1     -40.697  53.151 -53.265  1.00  0.00     0.068 A 
HETATM   18  C   UNL     1     -41.626  53.915 -52.563  1.00  0.00     0.039 A 
HETATM   19  C   UNL     1     -42.006  55.176 -53.042  1.00  0.00     0.032 A 
BRANCH  17  20
HETATM   20  O   UNL     1     -40.249  51.908 -52.916  1.00  0.00    -0.352 OA
BRANCH  20  21
HETATM   21  C   UNL     1     -39.416  51.232 -53.856  1.00  0.00     0.171 C 
HETATM   22  C   UNL     1     -40.142  49.979 -54.312  1.00  0.00     0.034 C 
ENDBRANCH  20  21
ENDBRANCH  17  20
ENDBRANCH   1  14
BRANCH   2  23
HETATM   23  O   UNL     1     -43.475  55.873 -56.168  1.00  0.00    -0.359 OA
HETATM   24  H   UNL     1     -43.557  56.104 -57.114  1.00  0.00     0.213 HD
ENDBRANCH   2  23
BRANCH   2  25
HETATM   25  C   UNL     1     -44.324  57.449 -54.572  1.00  0.00     0.279 C 
HETATM   26  N   UNL     1     -44.020  57.804 -53.265  1.00  0.00    -0.352 N 
HETATM   27  H   UNL     1     -43.056  57.811 -52.955  1.00  0.00     0.163 HD
HETATM   28  O   UNL     1     -45.485  57.499 -54.996  1.00  0.00    -0.268 OA
BRANCH  26  29
HETATM   29  C   UNL     1     -45.027  58.139 -52.309  1.00  0.00     0.084 A 
HETATM   30  C   UNL     1     -44.988  57.551 -50.926  1.00  0.00     0.027 A 
HETATM   31  C   UNL     1     -44.696  59.008 -51.126  1.00  0.00     0.027 A 
ENDBRANCH  26  29
ENDBRANCH   2  25
TORSDOF 6
ENDMDL
MODEL 5
REMARK VINA RESULT:      -7.1     16.439     19.517
REMARK  6 active torsions:
REMARK  status: ('A' for Active; 'I' for Inactive)
REMARK    1  A    between atoms: C_2  and  O_3 
REMARK    2  A    between atoms: O_3  and  C_4 
REMARK    3  A    between atoms: C_7  and  N_8 
REMARK    4  A    between atoms: C_9  and  O_10 
REMARK    5  A    between atoms: C_9  and  C_11 
REMARK       I    between atoms: C_11  and  N_12 
REMARK    6  A    between atoms: N_12  and  C_13 
ROOT
HETATM    1  N   UNL     1     -35.240  40.821 -52.828  1.00  0.00    -0.254 N 
HETATM    2  C   UNL     1     -36.129  39.759 -53.318  1.00  0.00     0.256 C 
HETATM    3  C   UNL     1     -36.465  39.999 -54.773  1.00  0.00     0.035 A 
HETATM    4  C   UNL     1     -36.712  41.323 -55.129  1.00  0.00     0.048 A 
HETATM    5  N   UNL     1     -36.459  42.313 -54.180  1.00  0.00    -0.308 N 
HETATM    6  C   UNL     1     -35.647  42.134 -53.080  1.00  0.00     0.330 C 
HETATM    7  O   UNL     1     -35.275  43.145 -52.486  1.00  0.00    -0.246 OA
HETATM    8  C   UNL     1     -36.638  38.988 -55.729  1.00  0.00     0.034 A 
HETATM    9  C   UNL     1     -37.073  39.319 -57.013  1.00  0.00     0.011 A 
HETATM   10 BR   UNL     1     -37.306  37.958 -58.302  1.00  0.00    -0.051 Br
HETATM   11  C   UNL     1     -37.350  40.646 -57.349  1.00  0.00     0.021 A 
HETATM   12  C   UNL     1     -37.174  41.654 -56.400  1.00  0.00     0.031 A 
HETATM   13  H   UNL     1     -36.625  43.286 -54.405  1.00  0.00     0.170 HD
ENDROOT
BRANCH   1  14
HETATM   14  C   UNL     1     -34.177  40.550 -51.914  1.00  0.00     0.043 A 
HETATM   15  C   UNL     1     -32.855  40.402 -52.343  1.00  0.00     0.032 A 
HETATM   16  C   UNL     1     -31.838  40.091 -51.433  1.00  0.00     0.039 A 
HETATM   17  C   UNL     1     -32.123  39.904 -50.079  1.00  0.00     0.068 A 
HETATM   18  C   UNL     1     -33.439  40.032 -49.644  1.00  0.00     0.039 A 
HETATM   19  C   UNL     1     -34.455  40.346 -50.556  1.00  0.00     0.032 A 
BRANCH  17  20
HETATM   20  O   UNL     1     -31.044  39.593 -49.301  1.00  0.00    -0.352 OA
BRANCH  20  21
HETATM   21  C   UNL     1     -31.311  39.119 -47.982  1.00  0.00     0.171 C 
HETATM   22  C   UNL     1     -30.607  40.038 -47.000  1.00  0.00     0.034 C 
ENDBRANCH  20  21
ENDBRANCH  17  20
ENDBRANCH   1  14
BRANCH   2  23
HETATM   23  O   UNL     1     -35.551  38.457 -53.190  1.00  0.00    -0.359 OA
HETATM   24  H   UNL     1     -35.447  38.148 -54.110  1.00  0.00     0.213 HD
ENDBRANCH   2  23
BRANCH   2  25
HETATM   25  C   UNL     1     -37.417  39.731 -52.383  1.00  0.00     0.279 C 
HETATM   26  N   UNL     1     -37.463  38.760 -51.393  1.00  0.00    -0.352 N 
HETATM   27  H   UNL     1     -36.706  38.093 -51.304  1.00  0.00     0.163 HD
HETATM   28  O   UNL     1     -38.292  40.600 -52.470  1.00  0.00    -0.268 OA
BRANCH  26  29
HETATM   29  C   UNL     1     -38.564  38.637 -50.492  1.00  0.00     0.084 A 
HETATM   30  C   UNL     1     -39.002  37.283 -50.006  1.00  0.00     0.027 A 
HETATM   31  C   UNL     1     -38.337  38.237 -49.059  1.00  0.00     0.027 A 
ENDBRANCH  26  29
ENDBRANCH   2  25
TORSDOF 6
ENDMDL
MODEL 6
REMARK VINA RESULT:      -6.9      1.848      2.183
REMARK  6 active torsions:
REMARK  status: ('A' for Active; 'I' for Inactive)
REMARK    1  A    between atoms: C_2  and  O_3 
REMARK    2  A    between atoms: O_3  and  C_4 
REMARK    3  A    between atoms: C_7  and  N_8 
REMARK    4  A    between atoms: C_9  and  O_10 
REMARK    5  A    between atoms: C_9  and  C_11 
REMARK       I    between atoms: C_11  and  N_12 
REMARK    6  A    between atoms: N_12  and  C_13 
ROOT
HETATM    1  N   UNL     1     -43.209  56.225 -55.133  1.00  0.00    -0.254 N 
HETATM    2  C   UNL     1     -41.888  56.141 -54.496  1.00  0.00     0.256 C 
HETATM    3  C   UNL     1     -41.968  55.279 -53.256  1.00  0.00     0.035 A 
HETATM    4  C   UNL     1     -43.104  55.452 -52.468  1.00  0.00     0.048 A 
HETATM    5  N   UNL     1     -44.129  56.253 -52.967  1.00  0.00    -0.308 N 
HETATM    6  C   UNL     1     -44.277  56.572 -54.300  1.00  0.00     0.330 C 
HETATM    7  O   UNL     1     -45.362  57.034 -54.651  1.00  0.00    -0.246 OA
HETATM    8  C   UNL     1     -40.951  54.420 -52.815  1.00  0.00     0.034 A 
HETATM    9  C   UNL     1     -41.082  53.768 -51.589  1.00  0.00     0.011 A 
HETATM   10 BR   UNL     1     -39.713  52.609 -50.994  1.00  0.00    -0.051 Br
HETATM   11  C   UNL     1     -42.209  53.975 -50.791  1.00  0.00     0.021 A 
HETATM   12  C   UNL     1     -43.224  54.827 -51.230  1.00  0.00     0.031 A 
HETATM   13  H   UNL     1     -44.971  56.399 -52.422  1.00  0.00     0.170 HD
ENDROOT
BRANCH   1  14
HETATM   14  C   UNL     1     -43.360  56.230 -56.553  1.00  0.00     0.043 A 
HETATM   15  C   UNL     1     -43.596  57.409 -57.265  1.00  0.00     0.032 A 
HETATM   16  C   UNL     1     -43.786  57.381 -58.652  1.00  0.00     0.039 A 
HETATM   17  C   UNL     1     -43.761  56.174 -59.353  1.00  0.00     0.068 A 
HETATM   18  C   UNL     1     -43.543  54.991 -58.651  1.00  0.00     0.039 A 
HETATM   19  C   UNL     1     -43.351  55.022 -57.263  1.00  0.00     0.032 A 
BRANCH  17  20
HETATM   20  O   UNL     1     -43.972  56.284 -60.699  1.00  0.00    -0.352 OA
BRANCH  20  21
HETATM   21  C   UNL     1     -44.985  55.456 -61.266  1.00  0.00     0.171 C 
HETATM   22  C   UNL     1     -46.335  56.000 -60.829  1.00  0.00     0.034 C 
ENDBRANCH  20  21
ENDBRANCH  17  20
ENDBRANCH   1  14
BRANCH   2  23
HETATM   23  O   UNL     1     -40.892  55.600 -55.368  1.00  0.00    -0.359 OA
HETATM   24  H   UNL     1     -40.180  55.307 -54.767  1.00  0.00     0.213 HD
ENDBRANCH   2  23
BRANCH   2  25
HETATM   25  C   UNL     1     -41.401  57.624 -54.186  1.00  0.00     0.279 C 
HETATM   26  N   UNL     1     -42.227  58.663 -54.590  1.00  0.00    -0.352 N 
HETATM   27  H   UNL     1     -43.089  58.461 -55.082  1.00  0.00     0.163 HD
HETATM   28  O   UNL     1     -40.380  57.839 -53.523  1.00  0.00    -0.268 OA
BRANCH  26  29
HETATM   29  C   UNL     1     -41.899  60.035 -54.365  1.00  0.00     0.084 A 
HETATM   30  C   UNL     1     -42.873  61.120 -54.731  1.00  0.00     0.027 A 
HETATM   31  C   UNL     1     -42.596  60.820 -53.287  1.00  0.00     0.027 A 
ENDBRANCH  26  29
ENDBRANCH   2  25
TORSDOF 6
ENDMDL
MODEL 7
REMARK VINA RESULT:      -6.8      3.005      6.120
REMARK  6 active torsions:
REMARK  status: ('A' for Active; 'I' for Inactive)
REMARK    1  A    between atoms: C_2  and  O_3 
REMARK    2  A    between atoms: O_3  and  C_4 
REMARK    3  A    between atoms: C_7  and  N_8 
REMARK    4  A    between atoms: C_9  and  O_10 
REMARK    5  A    between atoms: C_9  and  C_11 
REMARK       I    between atoms: C_11  and  N_12 
REMARK    6  A    between atoms: N_12  and  C_13 
ROOT
HETATM    1  N   UNL     1     -42.707  56.575 -53.793  1.00  0.00    -0.254 N 
HETATM    2  C   UNL     1     -42.214  57.959 -53.768  1.00  0.00     0.256 C 
HETATM    3  C   UNL     1     -43.067  58.794 -52.840  1.00  0.00     0.035 A 
HETATM    4  C   UNL     1     -44.438  58.551 -52.894  1.00  0.00     0.048 A 
HETATM    5  N   UNL     1     -44.881  57.465 -53.646  1.00  0.00    -0.308 N 
HETATM    6  C   UNL     1     -44.076  56.410 -54.022  1.00  0.00     0.330 C 
HETATM    7  O   UNL     1     -44.635  55.391 -54.425  1.00  0.00    -0.246 OA
HETATM    8  C   UNL     1     -42.585  59.833 -52.032  1.00  0.00     0.034 A 
HETATM    9  C   UNL     1     -43.484  60.620 -51.311  1.00  0.00     0.011 A 
HETATM   10 BR   UNL     1     -42.835  62.021 -50.221  1.00  0.00    -0.051 Br
HETATM   11  C   UNL     1     -44.858  60.390 -51.398  1.00  0.00     0.021 A 
HETATM   12  C   UNL     1     -45.340  59.353 -52.199  1.00  0.00     0.031 A 
HETATM   13  H   UNL     1     -45.871  57.257 -53.705  1.00  0.00     0.170 HD
ENDROOT
BRANCH   1  14
HETATM   14  C   UNL     1     -41.817  55.461 -53.860  1.00  0.00     0.043 A 
HETATM   15  C   UNL     1     -41.118  55.144 -55.028  1.00  0.00     0.032 A 
HETATM   16  C   UNL     1     -40.286  54.020 -55.082  1.00  0.00     0.039 A 
HETATM   17  C   UNL     1     -40.148  53.179 -53.977  1.00  0.00     0.068 A 
HETATM   18  C   UNL     1     -40.853  53.475 -52.813  1.00  0.00     0.039 A 
HETATM   19  C   UNL     1     -41.683  54.603 -52.760  1.00  0.00     0.032 A 
BRANCH  17  20
HETATM   20  O   UNL     1     -39.316  52.111 -54.164  1.00  0.00    -0.352 OA
BRANCH  20  21
HETATM   21  C   UNL     1     -39.605  50.927 -53.424  1.00  0.00     0.171 C 
HETATM   22  C   UNL     1     -39.809  49.792 -54.413  1.00  0.00     0.034 C 
ENDBRANCH  20  21
ENDBRANCH  17  20
ENDBRANCH   1  14
BRANCH   2  23
HETATM   23  O   UNL     1     -40.851  58.048 -53.343  1.00  0.00    -0.359 OA
HETATM   24  H   UNL     1     -40.347  57.623 -54.064  1.00  0.00     0.213 HD
ENDBRANCH   2  23
BRANCH   2  25
HETATM   25  C   UNL     1     -42.214  58.504 -55.264  1.00  0.00     0.279 C 
HETATM   26  N   UNL     1     -42.963  57.801 -56.197  1.00  0.00    -0.352 N 
HETATM   27  H   UNL     1     -43.461  56.964 -55.918  1.00  0.00     0.163 HD
HETATM   28  O   UNL     1     -41.654  59.565 -55.561  1.00  0.00    -0.268 OA
BRANCH  26  29
HETATM   29  C   UNL     1     -43.043  58.194 -57.568  1.00  0.00     0.084 A 
HETATM   30  C   UNL     1     -41.942  57.837 -58.527  1.00  0.00     0.027 A 
HETATM   31  C   UNL     1     -43.279  57.168 -58.644  1.00  0.00     0.027 A 
ENDBRANCH  26  29
ENDBRANCH   2  25
TORSDOF 6
ENDMDL
MODEL 8
REMARK VINA RESULT:      -6.7     16.921     18.964
REMARK  6 active torsions:
REMARK  status: ('A' for Active; 'I' for Inactive)
REMARK    1  A    between atoms: C_2  and  O_3 
REMARK    2  A    between atoms: O_3  and  C_4 
REMARK    3  A    between atoms: C_7  and  N_8 
REMARK    4  A    between atoms: C_9  and  O_10 
REMARK    5  A    between atoms: C_9  and  C_11 
REMARK       I    between atoms: C_11  and  N_12 
REMARK    6  A    between atoms: N_12  and  C_13 
ROOT
HETATM    1  N   UNL     1     -35.380  40.431 -55.585  1.00  0.00    -0.254 N 
HETATM    2  C   UNL     1     -34.531  39.607 -54.715  1.00  0.00     0.256 C 
HETATM    3  C   UNL     1     -34.753  39.986 -53.268  1.00  0.00     0.035 A 
HETATM    4  C   UNL     1     -34.885  41.349 -53.012  1.00  0.00     0.048 A 
HETATM    5  N   UNL     1     -34.980  42.213 -54.101  1.00  0.00    -0.308 N 
HETATM    6  C   UNL     1     -35.328  41.811 -55.374  1.00  0.00     0.330 C 
HETATM    7  O   UNL     1     -35.656  42.689 -56.171  1.00  0.00    -0.246 OA
HETATM    8  C   UNL     1     -34.730  39.084 -52.195  1.00  0.00     0.034 A 
HETATM    9  C   UNL     1     -34.822  39.566 -50.888  1.00  0.00     0.011 A 
HETATM   10 BR   UNL     1     -34.791  38.351 -49.440  1.00  0.00    -0.051 Br
HETATM   11  C   UNL     1     -34.920  40.936 -50.640  1.00  0.00     0.021 A 
HETATM   12  C   UNL     1     -34.946  41.835 -51.708  1.00  0.00     0.031 A 
HETATM   13  H   UNL     1     -35.080  43.210 -53.952  1.00  0.00     0.170 HD
ENDROOT
BRANCH   1  14
HETATM   14  C   UNL     1     -36.006  39.895 -56.752  1.00  0.00     0.043 A 
HETATM   15  C   UNL     1     -35.317  39.757 -57.960  1.00  0.00     0.032 A 
HETATM   16  C   UNL     1     -35.966  39.271 -59.101  1.00  0.00     0.039 A 
HETATM   17  C   UNL     1     -37.319  38.929 -59.064  1.00  0.00     0.068 A 
HETATM   18  C   UNL     1     -38.019  39.078 -57.870  1.00  0.00     0.039 A 
HETATM   19  C   UNL     1     -37.367  39.562 -56.727  1.00  0.00     0.032 A 
BRANCH  17  20
HETATM   20  O   UNL     1     -37.833  38.480 -60.248  1.00  0.00    -0.352 OA
BRANCH  20  21
HETATM   21  C   UNL     1     -37.712  39.343 -61.376  1.00  0.00     0.171 C 
HETATM   22  C   UNL     1     -37.333  38.496 -62.579  1.00  0.00     0.034 C 
ENDBRANCH  20  21
ENDBRANCH  17  20
ENDBRANCH   1  14
BRANCH   2  23
HETATM   23  O   UNL     1     -34.784  38.207 -54.866  1.00  0.00    -0.359 OA
HETATM   24  H   UNL     1     -33.896  37.810 -54.954  1.00  0.00     0.213 HD
ENDBRANCH   2  23
BRANCH   2  25
HETATM   25  C   UNL     1     -33.021  39.803 -55.180  1.00  0.00     0.279 C 
HETATM   26  N   UNL     1     -32.543  38.952 -56.166  1.00  0.00    -0.352 N 
HETATM   27  H   UNL     1     -33.143  38.227 -56.542  1.00  0.00     0.163 HD
HETATM   28  O   UNL     1     -32.335  40.739 -54.754  1.00  0.00    -0.268 OA
BRANCH  26  29
HETATM   29  C   UNL     1     -31.208  39.033 -56.666  1.00  0.00     0.084 A 
HETATM   30  C   UNL     1     -30.079  38.359 -55.936  1.00  0.00     0.027 A 
HETATM   31  C   UNL     1     -30.540  37.821 -57.258  1.00  0.00     0.027 A 
ENDBRANCH  26  29
ENDBRANCH   2  25
TORSDOF 6
ENDMDL
MODEL 9
REMARK VINA RESULT:      -6.7     17.490     20.109
REMARK  6 active torsions:
REMARK  status: ('A' for Active; 'I' for Inactive)
REMARK    1  A    between atoms: C_2  and  O_3 
REMARK    2  A    between atoms: O_3  and  C_4 
REMARK    3  A    between atoms: C_7  and  N_8 
REMARK    4  A    between atoms: C_9  and  O_10 
REMARK    5  A    between atoms: C_9  and  C_11 
REMARK       I    between atoms: C_11  and  N_12 
REMARK    6  A    between atoms: N_12  and  C_13 
ROOT
HETATM    1  N   UNL     1     -35.211  39.436 -55.057  1.00  0.00    -0.254 N 
HETATM    2  C   UNL     1     -34.768  40.058 -56.312  1.00  0.00     0.256 C 
HETATM    3  C   UNL     1     -35.949  40.252 -57.237  1.00  0.00     0.035 A 
HETATM    4  C   UNL     1     -36.869  39.205 -57.274  1.00  0.00     0.048 A 
HETATM    5  N   UNL     1     -36.724  38.175 -56.346  1.00  0.00    -0.308 N 
HETATM    6  C   UNL     1     -35.996  38.286 -55.181  1.00  0.00     0.330 C 
HETATM    7  O   UNL     1     -36.178  37.426 -54.320  1.00  0.00    -0.246 OA
HETATM    8  C   UNL     1     -36.112  41.340 -58.106  1.00  0.00     0.034 A 
HETATM    9  C   UNL     1     -37.178  41.350 -59.006  1.00  0.00     0.011 A 
HETATM   10 BR   UNL     1     -37.399  42.816 -60.178  1.00  0.00    -0.051 Br
HETATM   11  C   UNL     1     -38.074  40.281 -59.058  1.00  0.00     0.021 A 
HETATM   12  C   UNL     1     -37.917  39.199 -58.190  1.00  0.00     0.031 A 
HETATM   13  H   UNL     1     -37.376  37.400 -56.342  1.00  0.00     0.170 HD
ENDROOT
BRANCH   1  14
HETATM   14  C   UNL     1     -34.654  39.807 -53.796  1.00  0.00     0.043 A 
HETATM   15  C   UNL     1     -33.462  39.252 -53.324  1.00  0.00     0.032 A 
HETATM   16  C   UNL     1     -32.961  39.598 -52.064  1.00  0.00     0.039 A 
HETATM   17  C   UNL     1     -33.648  40.493 -51.243  1.00  0.00     0.068 A 
HETATM   18  C   UNL     1     -34.845  41.040 -51.696  1.00  0.00     0.039 A 
HETATM   19  C   UNL     1     -35.345  40.694 -52.958  1.00  0.00     0.032 A 
BRANCH  17  20
HETATM   20  O   UNL     1     -33.057  40.737 -50.035  1.00  0.00    -0.352 OA
BRANCH  20  21
HETATM   21  C   UNL     1     -32.785  39.608 -49.206  1.00  0.00     0.171 C 
HETATM   22  C   UNL     1     -31.581  39.938 -48.343  1.00  0.00     0.034 C 
ENDBRANCH  20  21
ENDBRANCH  17  20
ENDBRANCH   1  14
BRANCH   2  23
HETATM   23  O   UNL     1     -34.137  41.324 -56.103  1.00  0.00    -0.359 OA
HETATM   24  H   UNL     1     -34.785  41.832 -55.577  1.00  0.00     0.213 HD
ENDBRANCH   2  23
BRANCH   2  25
HETATM   25  C   UNL     1     -33.636  39.134 -56.942  1.00  0.00     0.279 C 
HETATM   26  N   UNL     1     -32.337  39.322 -56.491  1.00  0.00    -0.352 N 
HETATM   27  H   UNL     1     -32.140  40.041 -55.805  1.00  0.00     0.163 HD
HETATM   28  O   UNL     1     -33.916  38.219 -57.725  1.00  0.00    -0.268 OA
BRANCH  26  29
HETATM   29  C   UNL     1     -31.238  38.552 -56.979  1.00  0.00     0.084 A 
HETATM   30  C   UNL     1     -29.825  38.999 -56.728  1.00  0.00     0.027 A 
HETATM   31  C   UNL     1     -30.359  37.787 -56.026  1.00  0.00     0.027 A 
ENDBRANCH  26  29
ENDBRANCH   2  25
TORSDOF 6
ENDMDL
MODEL 10
REMARK VINA RESULT:      -6.6      3.878      7.323
REMARK  6 active torsions:
REMARK  status: ('A' for Active; 'I' for Inactive)
REMARK    1  A    between atoms: C_2  and  O_3 
REMARK    2  A    between atoms: O_3  and  C_4 
REMARK    3  A    between atoms: C_7  and  N_8 
REMARK    4  A    between atoms: C_9  and  O_10 
REMARK    5  A    between atoms: C_9  and  C_11 
REMARK       I    between atoms: C_11  and  N_12 
REMARK    6  A    between atoms: N_12  and  C_13 
ROOT
HETATM    1  N   UNL     1     -43.330  57.385 -56.567  1.00  0.00    -0.254 N 
HETATM    2  C   UNL     1     -43.821  58.031 -57.792  1.00  0.00     0.256 C 
HETATM    3  C   UNL     1     -44.479  57.005 -58.687  1.00  0.00     0.035 A 
HETATM    4  C   UNL     1     -43.840  55.770 -58.768  1.00  0.00     0.048 A 
HETATM    5  N   UNL     1     -42.776  55.527 -57.901  1.00  0.00    -0.308 N 
HETATM    6  C   UNL     1     -42.550  56.238 -56.742  1.00  0.00     0.330 C 
HETATM    7  O   UNL     1     -41.767  55.752 -55.927  1.00  0.00    -0.246 OA
HETATM    8  C   UNL     1     -45.600  57.253 -59.493  1.00  0.00     0.034 A 
HETATM    9  C   UNL     1     -46.046  56.268 -60.375  1.00  0.00     0.011 A 
HETATM   10 BR   UNL     1     -47.556  56.600 -61.462  1.00  0.00    -0.051 Br
HETATM   11  C   UNL     1     -45.377  55.046 -60.473  1.00  0.00     0.021 A 
HETATM   12  C   UNL     1     -44.264  54.796 -59.669  1.00  0.00     0.031 A 
HETATM   13  H   UNL     1     -42.290  54.639 -57.930  1.00  0.00     0.170 HD
ENDROOT
BRANCH   1  14
HETATM   14  C   UNL     1     -43.403  58.030 -55.295  1.00  0.00     0.043 A 
HETATM   15  C   UNL     1     -42.531  59.063 -54.941  1.00  0.00     0.032 A 
HETATM   16  C   UNL     1     -42.593  59.648 -53.672  1.00  0.00     0.039 A 
HETATM   17  C   UNL     1     -43.517  59.204 -52.723  1.00  0.00     0.068 A 
HETATM   18  C   UNL     1     -44.380  58.164 -53.060  1.00  0.00     0.039 A 
HETATM   19  C   UNL     1     -44.317  57.581 -54.332  1.00  0.00     0.032 A 
BRANCH  17  20
HETATM   20  O   UNL     1     -43.466  59.851 -51.521  1.00  0.00    -0.352 OA
BRANCH  20  21
HETATM   21  C   UNL     1     -42.323  60.668 -51.273  1.00  0.00     0.171 C 
HETATM   22  C   UNL     1     -41.453  59.960 -50.249  1.00  0.00     0.034 C 
ENDBRANCH  20  21
ENDBRANCH  17  20
ENDBRANCH   1  14
BRANCH   2  23
HETATM   23  O   UNL     1     -44.759  59.075 -57.523  1.00  0.00    -0.359 OA
HETATM   24  H   UNL     1     -44.789  59.127 -56.548  1.00  0.00     0.213 HD
ENDBRANCH   2  23
BRANCH   2  25
HETATM   25  C   UNL     1     -42.587  58.756 -58.488  1.00  0.00     0.279 C 
HETATM   26  N   UNL     1     -42.523  60.139 -58.388  1.00  0.00    -0.352 N 
HETATM   27  H   UNL     1     -43.256  60.645 -57.906  1.00  0.00     0.163 HD
HETATM   28  O   UNL     1     -41.671  58.109 -59.008  1.00  0.00    -0.268 OA
BRANCH  26  29
HETATM   29  C   UNL     1     -41.463  60.901 -58.968  1.00  0.00     0.084 A 
HETATM   30  C   UNL     1     -41.723  62.281 -59.504  1.00  0.00     0.027 A 
HETATM   31  C   UNL     1     -40.910  62.105 -58.256  1.00  0.00     0.027 A 
ENDBRANCH  26  29
ENDBRANCH   2  25
TORSDOF 6
ENDMDL
