MODEL 1
REMARK VINA RESULT:      -8.1      0.000      0.000
REMARK  6 active torsions:
REMARK  status: ('A' for Active; 'I' for Inactive)
REMARK    1  A    between atoms: C_3  and  C_4 
REMARK    2  A    between atoms: C_4  and  N_5 
REMARK    3  A    between atoms: C_4  and  C_19 
REMARK    4  A    between atoms: N_9  and  C_10 
REMARK    5  A    between atoms: C_25  and  N_26 
REMARK       I    between atoms: N_26  and  C_27 
REMARK    6  A    between atoms: C_27  and  C_28 
ROOT
HETATM    1  C   UNL     1     -42.988  58.338 -51.717  1.00  0.00     0.259 C 
ENDROOT
BRANCH   1   2
HETATM    2  C   UNL     1     -43.874  59.439 -52.298  1.00  0.00     0.018 A 
HETATM    3  C   UNL     1     -44.599  60.382 -51.427  1.00  0.00    -0.038 A 
HETATM    4  C   UNL     1     -44.449  60.486 -49.933  1.00  0.00     0.050 C 
HETATM    5  C   UNL     1     -45.477  61.181 -52.142  1.00  0.00    -0.013 A 
HETATM    6  S   UNL     1     -45.429  60.851 -53.803  1.00  0.00    -0.076 SA
HETATM    7  C   UNL     1     -46.412  62.239 -51.637  1.00  0.00     0.057 C 
HETATM    8  C   UNL     1     -44.198  59.695 -53.631  1.00  0.00     0.086 A 
BRANCH   8   9
HETATM    9  N   UNL     1     -43.617  59.230 -54.802  1.00  0.00    -0.315 N 
HETATM   10  C   UNL     1     -44.235  58.417 -55.746  1.00  0.00     0.280 C 
HETATM   11  O   UNL     1     -45.280  57.804 -55.563  1.00  0.00    -0.265 OA
HETATM   12  H   UNL     1     -42.661  59.463 -55.031  1.00  0.00     0.170 HD
BRANCH  10  13
HETATM   13  C   UNL     1     -43.403  58.214 -56.914  1.00  0.00     0.142 A 
HETATM   14  O   UNL     1     -43.680  57.158 -57.749  1.00  0.00    -0.317 OA
HETATM   15  C   UNL     1     -42.750  57.180 -58.739  1.00  0.00     0.143 A 
HETATM   16  C   UNL     1     -41.910  58.259 -58.588  1.00  0.00     0.027 A 
HETATM   17  C   UNL     1     -42.336  58.932 -57.417  1.00  0.00     0.045 A 
ENDBRANCH  10  13
ENDBRANCH   8   9
ENDBRANCH   1   2
BRANCH   1  18
HETATM   18  N   UNL     1     -43.272  56.883 -52.202  1.00  0.00    -0.056 N 
HETATM   19  H   UNL     1     -44.281  56.912 -52.404  1.00  0.00     0.281 HD
HETATM   20  C   UNL     1     -42.615  56.453 -53.497  1.00  0.00     0.256 C 
HETATM   21  C   UNL     1     -42.979  55.002 -53.909  1.00  0.00     0.152 C 
HETATM   22  N   UNL     1     -42.781  54.040 -52.811  1.00  0.00    -0.364 N 
HETATM   23  C   UNL     1     -43.472  54.424 -51.561  1.00  0.00     0.152 C 
HETATM   24  C   UNL     1     -43.069  55.843 -51.097  1.00  0.00     0.256 C 
BRANCH  22  25
HETATM   25  C   UNL     1     -41.649  53.249 -52.800  1.00  0.00     0.102 A 
HETATM   26  N   UNL     1     -41.019  53.047 -51.626  1.00  0.00    -0.352 N 
HETATM   27  H   UNL     1     -41.371  53.541 -50.811  1.00  0.00     0.166 HD
HETATM   28  C   UNL     1     -39.909  52.304 -51.484  1.00  0.00     0.089 A 
HETATM   29  C   UNL     1     -39.334  51.698 -52.587  1.00  0.00     0.017 A 
HETATM   30  C   UNL     1     -39.915  51.894 -53.830  1.00  0.00     0.005 A 
HETATM   31  C   UNL     1     -41.066  52.675 -53.941  1.00  0.00     0.048 A 
ENDBRANCH  22  25
ENDBRANCH   1  18
BRANCH   1  32
HETATM   32  C   UNL     1     -41.542  58.785 -51.604  1.00  0.00    -0.005 A 
HETATM   33  C   UNL     1     -40.647  58.913 -52.659  1.00  0.00     0.125 A 
HETATM   34  N   UNL     1     -39.335  59.214 -52.529  1.00  0.00    -0.273 NA
HETATM   35  C   UNL     1     -38.874  59.506 -51.300  1.00  0.00     0.116 A 
HETATM   36  C   UNL     1     -39.679  59.495 -50.182  1.00  0.00     0.020 A 
HETATM   37  C   UNL     1     -41.017  59.135 -50.341  1.00  0.00     0.012 A 
ENDBRANCH   1  32
TORSDOF 6
ENDMDL
MODEL 2
REMARK VINA RESULT:      -8.1      2.465      6.045
REMARK  6 active torsions:
REMARK  status: ('A' for Active; 'I' for Inactive)
REMARK    1  A    between atoms: C_3  and  C_4 
REMARK    2  A    between atoms: C_4  and  N_5 
REMARK    3  A    between atoms: C_4  and  C_19 
REMARK    4  A    between atoms: N_9  and  C_10 
REMARK    5  A    between atoms: C_25  and  N_26 
REMARK       I    between atoms: N_26  and  C_27 
REMARK    6  A    between atoms: C_27  and  C_28 
ROOT
HETATM    1  C   UNL     1     -42.704  57.088 -57.274  1.00  0.00     0.259 C 
ENDROOT
BRANCH   1   2
HETATM    2  C   UNL     1     -42.526  58.599 -57.406  1.00  0.00     0.018 A 
HETATM    3  C   UNL     1     -42.035  59.210 -58.655  1.00  0.00    -0.038 A 
HETATM    4  C   UNL     1     -41.806  58.483 -59.953  1.00  0.00     0.050 C 
HETATM    5  C   UNL     1     -41.779  60.564 -58.507  1.00  0.00    -0.013 A 
HETATM    6  S   UNL     1     -42.136  61.112 -56.945  1.00  0.00    -0.076 SA
HETATM    7  C   UNL     1     -41.249  61.538 -59.517  1.00  0.00     0.057 C 
HETATM    8  C   UNL     1     -42.705  59.593 -56.442  1.00  0.00     0.086 A 
BRANCH   8   9
HETATM    9  N   UNL     1     -43.343  59.547 -55.212  1.00  0.00    -0.315 N 
HETATM   10  C   UNL     1     -44.692  59.274 -55.009  1.00  0.00     0.280 C 
HETATM   11  O   UNL     1     -45.545  59.278 -55.888  1.00  0.00    -0.265 OA
HETATM   12  H   UNL     1     -42.833  59.731 -54.359  1.00  0.00     0.170 HD
BRANCH  10  13
HETATM   13  C   UNL     1     -45.019  59.175 -53.601  1.00  0.00     0.142 A 
HETATM   14  O   UNL     1     -44.629  58.054 -52.910  1.00  0.00    -0.317 OA
HETATM   15  C   UNL     1     -45.073  58.200 -51.634  1.00  0.00     0.143 A 
HETATM   16  C   UNL     1     -45.696  59.416 -51.477  1.00  0.00     0.027 A 
HETATM   17  C   UNL     1     -45.653  60.050 -52.742  1.00  0.00     0.045 A 
ENDBRANCH  10  13
ENDBRANCH   8   9
ENDBRANCH   1   2
BRANCH   1  18
HETATM   18  N   UNL     1     -42.738  56.512 -55.825  1.00  0.00    -0.056 N 
HETATM   19  H   UNL     1     -43.364  57.172 -55.341  1.00  0.00     0.281 HD
HETATM   20  C   UNL     1     -43.373  55.149 -55.644  1.00  0.00     0.256 C 
HETATM   21  C   UNL     1     -43.383  54.676 -54.167  1.00  0.00     0.152 C 
HETATM   22  N   UNL     1     -42.058  54.786 -53.533  1.00  0.00    -0.364 N 
HETATM   23  C   UNL     1     -41.460  56.134 -53.652  1.00  0.00     0.152 C 
HETATM   24  C   UNL     1     -41.379  56.595 -55.126  1.00  0.00     0.256 C 
BRANCH  22  25
HETATM   25  C   UNL     1     -41.278  53.656 -53.395  1.00  0.00     0.102 A 
HETATM   26  N   UNL     1     -40.662  53.443 -52.214  1.00  0.00    -0.352 N 
HETATM   27  H   UNL     1     -40.750  54.160 -51.500  1.00  0.00     0.166 HD
HETATM   28  C   UNL     1     -39.873  52.387 -51.955  1.00  0.00     0.089 A 
HETATM   29  C   UNL     1     -39.640  51.438 -52.934  1.00  0.00     0.017 A 
HETATM   30  C   UNL     1     -40.219  51.616 -54.182  1.00  0.00     0.005 A 
HETATM   31  C   UNL     1     -41.029  52.727 -54.417  1.00  0.00     0.048 A 
ENDBRANCH  22  25
ENDBRANCH   1  18
BRANCH   1  32
HETATM   32  C   UNL     1     -43.706  56.552 -58.280  1.00  0.00    -0.005 A 
HETATM   33  C   UNL     1     -44.928  57.131 -58.597  1.00  0.00     0.125 A 
HETATM   34  N   UNL     1     -45.853  56.588 -59.420  1.00  0.00    -0.273 NA
HETATM   35  C   UNL     1     -45.536  55.447 -60.059  1.00  0.00     0.116 A 
HETATM   36  C   UNL     1     -44.323  54.816 -59.894  1.00  0.00     0.020 A 
HETATM   37  C   UNL     1     -43.407  55.376 -59.002  1.00  0.00     0.012 A 
ENDBRANCH   1  32
TORSDOF 6
ENDMDL
MODEL 3
REMARK VINA RESULT:      -7.9      2.544      4.793
REMARK  6 active torsions:
REMARK  status: ('A' for Active; 'I' for Inactive)
REMARK    1  A    between atoms: C_3  and  C_4 
REMARK    2  A    between atoms: C_4  and  N_5 
REMARK    3  A    between atoms: C_4  and  C_19 
REMARK    4  A    between atoms: N_9  and  C_10 
REMARK    5  A    between atoms: C_25  and  N_26 
REMARK       I    between atoms: N_26  and  C_27 
REMARK    6  A    between atoms: C_27  and  C_28 
ROOT
HETATM    1  C   UNL     1     -42.284  57.178 -56.068  1.00  0.00     0.259 C 
ENDROOT
BRANCH   1   2
HETATM    2  C   UNL     1     -43.168  58.285 -55.495  1.00  0.00     0.018 A 
HETATM    3  C   UNL     1     -42.708  59.141 -54.386  1.00  0.00    -0.038 A 
HETATM    4  C   UNL     1     -41.320  59.148 -53.804  1.00  0.00     0.050 C 
HETATM    5  C   UNL     1     -43.719  59.957 -53.904  1.00  0.00    -0.013 A 
HETATM    6  S   UNL     1     -45.168  59.744 -54.753  1.00  0.00    -0.076 SA
HETATM    7  C   UNL     1     -43.675  60.945 -52.777  1.00  0.00     0.057 C 
HETATM    8  C   UNL     1     -44.481  58.621 -55.827  1.00  0.00     0.086 A 
BRANCH   8   9
HETATM    9  N   UNL     1     -45.252  58.259 -56.921  1.00  0.00    -0.315 N 
HETATM   10  C   UNL     1     -45.389  58.994 -58.095  1.00  0.00     0.280 C 
HETATM   11  O   UNL     1     -45.050  60.163 -58.230  1.00  0.00    -0.265 OA
HETATM   12  H   UNL     1     -45.790  57.404 -56.913  1.00  0.00     0.170 HD
BRANCH  10  13
HETATM   13  C   UNL     1     -46.161  58.282 -59.092  1.00  0.00     0.142 A 
HETATM   14  O   UNL     1     -46.637  58.976 -60.179  1.00  0.00    -0.317 OA
HETATM   15  C   UNL     1     -47.338  58.093 -60.937  1.00  0.00     0.143 A 
HETATM   16  C   UNL     1     -47.279  56.833 -60.388  1.00  0.00     0.027 A 
HETATM   17  C   UNL     1     -46.513  56.952 -59.204  1.00  0.00     0.045 A 
ENDBRANCH  10  13
ENDBRANCH   8   9
ENDBRANCH   1   2
BRANCH   1  18
HETATM   18  N   UNL     1     -42.242  55.837 -55.274  1.00  0.00    -0.056 N 
HETATM   19  H   UNL     1     -42.606  55.163 -55.962  1.00  0.00     0.281 HD
HETATM   20  C   UNL     1     -40.875  55.315 -54.884  1.00  0.00     0.256 C 
HETATM   21  C   UNL     1     -40.935  53.964 -54.123  1.00  0.00     0.152 C 
HETATM   22  N   UNL     1     -41.885  53.997 -52.998  1.00  0.00    -0.364 N 
HETATM   23  C   UNL     1     -43.240  54.447 -53.385  1.00  0.00     0.152 C 
HETATM   24  C   UNL     1     -43.206  55.825 -54.085  1.00  0.00     0.256 C 
BRANCH  22  25
HETATM   25  C   UNL     1     -41.406  54.157 -51.713  1.00  0.00     0.102 A 
HETATM   26  N   UNL     1     -42.056  55.003 -50.888  1.00  0.00    -0.352 N 
HETATM   27  H   UNL     1     -42.832  55.533 -51.272  1.00  0.00     0.166 HD
HETATM   28  C   UNL     1     -41.688  55.250 -49.620  1.00  0.00     0.089 A 
HETATM   29  C   UNL     1     -40.572  54.629 -49.088  1.00  0.00     0.017 A 
HETATM   30  C   UNL     1     -39.841  53.771 -49.896  1.00  0.00     0.005 A 
HETATM   31  C   UNL     1     -40.250  53.541 -51.209  1.00  0.00     0.048 A 
ENDBRANCH  22  25
ENDBRANCH   1  18
BRANCH   1  32
HETATM   32  C   UNL     1     -42.380  57.112 -57.581  1.00  0.00    -0.005 A 
HETATM   33  C   UNL     1     -41.936  58.086 -58.466  1.00  0.00     0.125 A 
HETATM   34  N   UNL     1     -42.121  58.058 -59.805  1.00  0.00    -0.273 NA
HETATM   35  C   UNL     1     -42.691  56.963 -60.340  1.00  0.00     0.116 A 
HETATM   36  C   UNL     1     -43.102  55.892 -59.578  1.00  0.00     0.020 A 
HETATM   37  C   UNL     1     -42.941  55.970 -58.194  1.00  0.00     0.012 A 
ENDBRANCH   1  32
TORSDOF 6
ENDMDL
MODEL 4
REMARK VINA RESULT:      -7.9      2.120      4.679
REMARK  6 active torsions:
REMARK  status: ('A' for Active; 'I' for Inactive)
REMARK    1  A    between atoms: C_3  and  C_4 
REMARK    2  A    between atoms: C_4  and  N_5 
REMARK    3  A    between atoms: C_4  and  C_19 
REMARK    4  A    between atoms: N_9  and  C_10 
REMARK    5  A    between atoms: C_25  and  N_26 
REMARK       I    between atoms: N_26  and  C_27 
REMARK    6  A    between atoms: C_27  and  C_28 
ROOT
HETATM    1  C   UNL     1     -42.470  57.223 -53.614  1.00  0.00     0.259 C 
ENDROOT
BRANCH   1   2
HETATM    2  C   UNL     1     -43.316  58.204 -54.424  1.00  0.00     0.018 A 
HETATM    3  C   UNL     1     -43.437  58.091 -55.888  1.00  0.00    -0.038 A 
HETATM    4  C   UNL     1     -42.902  56.960 -56.725  1.00  0.00     0.050 C 
HETATM    5  C   UNL     1     -44.100  59.174 -56.442  1.00  0.00    -0.013 A 
HETATM    6  S   UNL     1     -44.597  60.286 -55.265  1.00  0.00    -0.076 SA
HETATM    7  C   UNL     1     -44.404  59.456 -57.883  1.00  0.00     0.057 C 
HETATM    8  C   UNL     1     -44.012  59.333 -53.986  1.00  0.00     0.086 A 
BRANCH   8   9
HETATM    9  N   UNL     1     -44.368  59.729 -52.706  1.00  0.00    -0.315 N 
HETATM   10  C   UNL     1     -43.761  60.746 -51.975  1.00  0.00     0.280 C 
HETATM   11  O   UNL     1     -42.688  61.264 -52.256  1.00  0.00    -0.265 OA
HETATM   12  H   UNL     1     -45.116  59.264 -52.211  1.00  0.00     0.170 HD
BRANCH  10  13
HETATM   13  C   UNL     1     -44.448  60.996 -50.724  1.00  0.00     0.142 A 
HETATM   14  O   UNL     1     -43.701  61.171 -49.583  1.00  0.00    -0.317 OA
HETATM   15  C   UNL     1     -44.576  61.362 -48.562  1.00  0.00     0.143 A 
HETATM   16  C   UNL     1     -45.870  61.367 -49.030  1.00  0.00     0.027 A 
HETATM   17  C   UNL     1     -45.787  61.140 -50.425  1.00  0.00     0.045 A 
ENDBRANCH  10  13
ENDBRANCH   8   9
ENDBRANCH   1   2
BRANCH   1  18
HETATM   18  N   UNL     1     -42.014  55.924 -54.346  1.00  0.00    -0.056 N 
HETATM   19  H   UNL     1     -42.234  56.137 -55.329  1.00  0.00     0.281 HD
HETATM   20  C   UNL     1     -40.533  55.609 -54.324  1.00  0.00     0.256 C 
HETATM   21  C   UNL     1     -40.176  54.314 -55.100  1.00  0.00     0.152 C 
HETATM   22  N   UNL     1     -41.017  53.172 -54.702  1.00  0.00    -0.364 N 
HETATM   23  C   UNL     1     -42.467  53.454 -54.781  1.00  0.00     0.152 C 
HETATM   24  C   UNL     1     -42.852  54.703 -53.957  1.00  0.00     0.256 C 
BRANCH  22  25
HETATM   25  C   UNL     1     -40.508  52.227 -53.834  1.00  0.00     0.102 A 
HETATM   26  N   UNL     1     -40.236  52.600 -52.567  1.00  0.00    -0.352 N 
HETATM   27  H   UNL     1     -40.359  53.580 -52.328  1.00  0.00     0.166 HD
HETATM   28  C   UNL     1     -39.733  51.780 -51.631  1.00  0.00     0.089 A 
HETATM   29  C   UNL     1     -39.450  50.462 -51.943  1.00  0.00     0.017 A 
HETATM   30  C   UNL     1     -39.677  50.023 -53.239  1.00  0.00     0.005 A 
HETATM   31  C   UNL     1     -40.196  50.905 -54.187  1.00  0.00     0.048 A 
ENDBRANCH  22  25
ENDBRANCH   1  18
BRANCH   1  32
HETATM   32  C   UNL     1     -41.459  57.944 -52.740  1.00  0.00    -0.005 A 
HETATM   33  C   UNL     1     -40.426  58.755 -53.193  1.00  0.00     0.125 A 
HETATM   34  N   UNL     1     -39.474  59.307 -52.408  1.00  0.00    -0.273 NA
HETATM   35  C   UNL     1     -39.582  59.143 -51.076  1.00  0.00     0.116 A 
HETATM   36  C   UNL     1     -40.607  58.429 -50.497  1.00  0.00     0.020 A 
HETATM   37  C   UNL     1     -41.548  57.832 -51.335  1.00  0.00     0.012 A 
ENDBRANCH   1  32
TORSDOF 6
ENDMDL
MODEL 5
REMARK VINA RESULT:      -7.7      2.348      5.316
REMARK  6 active torsions:
REMARK  status: ('A' for Active; 'I' for Inactive)
REMARK    1  A    between atoms: C_3  and  C_4 
REMARK    2  A    between atoms: C_4  and  N_5 
REMARK    3  A    between atoms: C_4  and  C_19 
REMARK    4  A    between atoms: N_9  and  C_10 
REMARK    5  A    between atoms: C_25  and  N_26 
REMARK       I    between atoms: N_26  and  C_27 
REMARK    6  A    between atoms: C_27  and  C_28 
ROOT
HETATM    1  C   UNL     1     -42.504  57.587 -56.085  1.00  0.00     0.259 C 
ENDROOT
BRANCH   1   2
HETATM    2  C   UNL     1     -43.278  58.799 -55.567  1.00  0.00     0.018 A 
HETATM    3  C   UNL     1     -44.614  59.139 -56.088  1.00  0.00    -0.038 A 
HETATM    4  C   UNL     1     -45.425  58.296 -57.036  1.00  0.00     0.050 C 
HETATM    5  C   UNL     1     -45.060  60.364 -55.618  1.00  0.00    -0.013 A 
HETATM    6  S   UNL     1     -43.948  61.084 -54.564  1.00  0.00    -0.076 SA
HETATM    7  C   UNL     1     -46.341  61.080 -55.925  1.00  0.00     0.057 C 
HETATM    8  C   UNL     1     -42.879  59.767 -54.644  1.00  0.00     0.086 A 
BRANCH   8   9
HETATM    9  N   UNL     1     -41.824  59.770 -53.744  1.00  0.00    -0.315 N 
HETATM   10  C   UNL     1     -41.893  59.364 -52.414  1.00  0.00     0.280 C 
HETATM   11  O   UNL     1     -42.933  59.182 -51.793  1.00  0.00    -0.265 OA
HETATM   12  H   UNL     1     -40.909  60.095 -54.022  1.00  0.00     0.170 HD
BRANCH  10  13
HETATM   13  C   UNL     1     -40.591  59.368 -51.779  1.00  0.00     0.142 A 
HETATM   14  O   UNL     1     -39.476  59.173 -52.558  1.00  0.00    -0.317 OA
HETATM   15  C   UNL     1     -38.402  59.198 -51.725  1.00  0.00     0.143 A 
HETATM   16  C   UNL     1     -38.799  59.458 -50.434  1.00  0.00     0.027 A 
HETATM   17  C   UNL     1     -40.209  59.576 -50.469  1.00  0.00     0.045 A 
ENDBRANCH  10  13
ENDBRANCH   8   9
ENDBRANCH   1   2
BRANCH   1  18
HETATM   18  N   UNL     1     -42.788  56.224 -55.381  1.00  0.00    -0.056 N 
HETATM   19  H   UNL     1     -43.546  55.834 -55.958  1.00  0.00     0.281 HD
HETATM   20  C   UNL     1     -41.681  55.192 -55.418  1.00  0.00     0.256 C 
HETATM   21  C   UNL     1     -42.067  53.863 -54.717  1.00  0.00     0.152 C 
HETATM   22  N   UNL     1     -42.613  54.080 -53.366  1.00  0.00    -0.364 N 
HETATM   23  C   UNL     1     -43.736  55.041 -53.333  1.00  0.00     0.152 C 
HETATM   24  C   UNL     1     -43.347  56.396 -53.967  1.00  0.00     0.256 C 
BRANCH  22  25
HETATM   25  C   UNL     1     -41.802  53.872 -52.268  1.00  0.00     0.102 A 
HETATM   26  N   UNL     1     -42.173  54.407 -51.087  1.00  0.00    -0.352 N 
HETATM   27  H   UNL     1     -43.003  54.994 -51.075  1.00  0.00     0.166 HD
HETATM   28  C   UNL     1     -41.471  54.284 -49.949  1.00  0.00     0.089 A 
HETATM   29  C   UNL     1     -40.279  53.581 -49.943  1.00  0.00     0.017 A 
HETATM   30  C   UNL     1     -39.824  53.033 -51.133  1.00  0.00     0.005 A 
HETATM   31  C   UNL     1     -40.578  53.185 -52.297  1.00  0.00     0.048 A 
ENDBRANCH  22  25
ENDBRANCH   1  18
BRANCH   1  32
HETATM   32  C   UNL     1     -42.389  57.601 -57.598  1.00  0.00    -0.005 A 
HETATM   33  C   UNL     1     -41.890  58.647 -58.364  1.00  0.00     0.125 A 
HETATM   34  N   UNL     1     -41.888  58.684 -59.716  1.00  0.00    -0.273 NA
HETATM   35  C   UNL     1     -42.311  57.592 -60.378  1.00  0.00     0.116 A 
HETATM   36  C   UNL     1     -42.754  56.458 -59.732  1.00  0.00     0.020 A 
HETATM   37  C   UNL     1     -42.788  56.467 -58.338  1.00  0.00     0.012 A 
ENDBRANCH   1  32
TORSDOF 6
ENDMDL
MODEL 6
REMARK VINA RESULT:      -7.5      1.860      2.993
REMARK  6 active torsions:
REMARK  status: ('A' for Active; 'I' for Inactive)
REMARK    1  A    between atoms: C_3  and  C_4 
REMARK    2  A    between atoms: C_4  and  N_5 
REMARK    3  A    between atoms: C_4  and  C_19 
REMARK    4  A    between atoms: N_9  and  C_10 
REMARK    5  A    between atoms: C_25  and  N_26 
REMARK       I    between atoms: N_26  and  C_27 
REMARK    6  A    between atoms: C_27  and  C_28 
ROOT
HETATM    1  C   UNL     1     -42.808  58.599 -52.999  1.00  0.00     0.259 C 
ENDROOT
BRANCH   1   2
HETATM    2  C   UNL     1     -43.964  59.522 -52.616  1.00  0.00     0.018 A 
HETATM    3  C   UNL     1     -43.929  60.327 -51.381  1.00  0.00    -0.038 A 
HETATM    4  C   UNL     1     -42.748  60.464 -50.459  1.00  0.00     0.050 C 
HETATM    5  C   UNL     1     -45.140  60.954 -51.135  1.00  0.00    -0.013 A 
HETATM    6  S   UNL     1     -46.283  60.629 -52.342  1.00  0.00    -0.076 SA
HETATM    7  C   UNL     1     -45.528  61.832 -49.983  1.00  0.00     0.057 C 
HETATM    8  C   UNL     1     -45.189  59.709 -53.259  1.00  0.00     0.086 A 
BRANCH   8   9
HETATM    9  N   UNL     1     -45.598  59.349 -54.534  1.00  0.00    -0.315 N 
HETATM   10  C   UNL     1     -45.463  60.129 -55.679  1.00  0.00     0.280 C 
HETATM   11  O   UNL     1     -45.191  61.322 -55.682  1.00  0.00    -0.265 OA
HETATM   12  H   UNL     1     -46.050  58.461 -54.699  1.00  0.00     0.170 HD
BRANCH  10  13
HETATM   13  C   UNL     1     -45.874  59.415 -56.871  1.00  0.00     0.142 A 
HETATM   14  O   UNL     1     -45.750  60.038 -58.090  1.00  0.00    -0.317 OA
HETATM   15  C   UNL     1     -46.221  59.174 -59.026  1.00  0.00     0.143 A 
HETATM   16  C   UNL     1     -46.598  57.987 -58.441  1.00  0.00     0.027 A 
HETATM   17  C   UNL     1     -46.366  58.138 -57.053  1.00  0.00     0.045 A 
ENDBRANCH  10  13
ENDBRANCH   8   9
ENDBRANCH   1   2
BRANCH   1  18
HETATM   18  N   UNL     1     -42.750  57.216 -52.279  1.00  0.00    -0.056 N 
HETATM   19  H   UNL     1     -43.322  57.382 -51.440  1.00  0.00     0.281 HD
HETATM   20  C   UNL     1     -43.403  56.048 -52.988  1.00  0.00     0.256 C 
HETATM   21  C   UNL     1     -43.317  54.725 -52.182  1.00  0.00     0.152 C 
HETATM   22  N   UNL     1     -41.947  54.434 -51.727  1.00  0.00    -0.364 N 
HETATM   23  C   UNL     1     -41.326  55.549 -50.979  1.00  0.00     0.152 C 
HETATM   24  C   UNL     1     -41.341  56.862 -51.795  1.00  0.00     0.256 C 
BRANCH  22  25
HETATM   25  C   UNL     1     -41.186  53.510 -52.416  1.00  0.00     0.102 A 
HETATM   26  N   UNL     1     -40.366  52.703 -51.713  1.00  0.00    -0.352 N 
HETATM   27  H   UNL     1     -40.298  52.857 -50.711  1.00  0.00     0.166 HD
HETATM   28  C   UNL     1     -39.572  51.771 -52.264  1.00  0.00     0.089 A 
HETATM   29  C   UNL     1     -39.554  51.598 -53.637  1.00  0.00     0.017 A 
HETATM   30  C   UNL     1     -40.352  52.419 -54.420  1.00  0.00     0.005 A 
HETATM   31  C   UNL     1     -41.160  53.381 -53.813  1.00  0.00     0.048 A 
ENDBRANCH  22  25
ENDBRANCH   1  18
BRANCH   1  32
HETATM   32  C   UNL     1     -42.527  58.642 -54.490  1.00  0.00    -0.005 A 
HETATM   33  C   UNL     1     -41.996  59.721 -55.185  1.00  0.00     0.125 A 
HETATM   34  N   UNL     1     -41.847  59.780 -56.527  1.00  0.00    -0.273 NA
HETATM   35  C   UNL     1     -42.142  58.680 -57.243  1.00  0.00     0.116 A 
HETATM   36  C   UNL     1     -42.600  57.517 -56.664  1.00  0.00     0.020 A 
HETATM   37  C   UNL     1     -42.789  57.502 -55.281  1.00  0.00     0.012 A 
ENDBRANCH   1  32
TORSDOF 6
ENDMDL
MODEL 7
REMARK VINA RESULT:      -7.3      3.129      7.262
REMARK  6 active torsions:
REMARK  status: ('A' for Active; 'I' for Inactive)
REMARK    1  A    between atoms: C_3  and  C_4 
REMARK    2  A    between atoms: C_4  and  N_5 
REMARK    3  A    between atoms: C_4  and  C_19 
REMARK    4  A    between atoms: N_9  and  C_10 
REMARK    5  A    between atoms: C_25  and  N_26 
REMARK       I    between atoms: N_26  and  C_27 
REMARK    6  A    between atoms: C_27  and  C_28 
ROOT
HETATM    1  C   UNL     1     -41.801  56.862 -55.281  1.00  0.00     0.259 C 
ENDROOT
BRANCH   1   2
HETATM    2  C   UNL     1     -41.788  55.846 -54.140  1.00  0.00     0.018 A 
HETATM    3  C   UNL     1     -40.909  54.663 -54.173  1.00  0.00    -0.038 A 
HETATM    4  C   UNL     1     -39.846  54.391 -55.202  1.00  0.00     0.050 C 
HETATM    5  C   UNL     1     -41.179  53.785 -53.135  1.00  0.00    -0.013 A 
HETATM    6  S   UNL     1     -42.417  54.351 -52.128  1.00  0.00    -0.076 SA
HETATM    7  C   UNL     1     -40.537  52.465 -52.827  1.00  0.00     0.057 C 
HETATM    8  C   UNL     1     -42.582  55.803 -52.992  1.00  0.00     0.086 A 
BRANCH   8   9
HETATM    9  N   UNL     1     -43.387  56.777 -52.420  1.00  0.00    -0.315 N 
HETATM   10  C   UNL     1     -42.984  57.697 -51.456  1.00  0.00     0.280 C 
HETATM   11  O   UNL     1     -41.948  57.621 -50.808  1.00  0.00    -0.265 OA
HETATM   12  H   UNL     1     -44.359  56.862 -52.681  1.00  0.00     0.170 HD
BRANCH  10  13
HETATM   13  C   UNL     1     -44.026  58.659 -51.159  1.00  0.00     0.142 A 
HETATM   14  O   UNL     1     -43.664  59.910 -50.719  1.00  0.00    -0.317 OA
HETATM   15  C   UNL     1     -44.813  60.598 -50.493  1.00  0.00     0.143 A 
HETATM   16  C   UNL     1     -45.907  59.835 -50.829  1.00  0.00     0.027 A 
HETATM   17  C   UNL     1     -45.400  58.588 -51.267  1.00  0.00     0.045 A 
ENDBRANCH  10  13
ENDBRANCH   8   9
ENDBRANCH   1   2
BRANCH   1  18
HETATM   18  N   UNL     1     -42.123  56.312 -56.704  1.00  0.00    -0.056 N 
HETATM   19  H   UNL     1     -41.250  55.826 -56.954  1.00  0.00     0.281 HD
HETATM   20  C   UNL     1     -43.210  55.262 -56.802  1.00  0.00     0.256 C 
HETATM   21  C   UNL     1     -43.437  54.758 -58.252  1.00  0.00     0.152 C 
HETATM   22  N   UNL     1     -43.612  55.864 -59.209  1.00  0.00    -0.364 N 
HETATM   23  C   UNL     1     -42.521  56.861 -59.161  1.00  0.00     0.152 C 
HETATM   24  C   UNL     1     -42.324  57.425 -57.735  1.00  0.00     0.256 C 
BRANCH  22  25
HETATM   25  C   UNL     1     -44.883  56.200 -59.631  1.00  0.00     0.102 A 
HETATM   26  N   UNL     1     -45.623  57.013 -58.851  1.00  0.00    -0.352 N 
HETATM   27  H   UNL     1     -45.234  57.291 -57.955  1.00  0.00     0.166 HD
HETATM   28  C   UNL     1     -46.873  57.408 -59.145  1.00  0.00     0.089 A 
HETATM   29  C   UNL     1     -47.484  56.968 -60.306  1.00  0.00     0.017 A 
HETATM   30  C   UNL     1     -46.788  56.101 -61.136  1.00  0.00     0.005 A 
HETATM   31  C   UNL     1     -45.493  55.709 -60.796  1.00  0.00     0.048 A 
ENDBRANCH  22  25
ENDBRANCH   1  18
BRANCH   1  32
HETATM   32  C   UNL     1     -42.443  58.171 -54.858  1.00  0.00    -0.005 A 
HETATM   33  C   UNL     1     -43.791  58.486 -54.967  1.00  0.00     0.125 A 
HETATM   34  N   UNL     1     -44.330  59.693 -54.680  1.00  0.00    -0.273 NA
HETATM   35  C   UNL     1     -43.524  60.635 -54.158  1.00  0.00     0.116 A 
HETATM   36  C   UNL     1     -42.184  60.420 -53.925  1.00  0.00     0.020 A 
HETATM   37  C   UNL     1     -41.646  59.181 -54.275  1.00  0.00     0.012 A 
ENDBRANCH   1  32
TORSDOF 6
ENDMDL
MODEL 8
REMARK VINA RESULT:      -7.1      2.641      5.087
REMARK  6 active torsions:
REMARK  status: ('A' for Active; 'I' for Inactive)
REMARK    1  A    between atoms: C_3  and  C_4 
REMARK    2  A    between atoms: C_4  and  N_5 
REMARK    3  A    between atoms: C_4  and  C_19 
REMARK    4  A    between atoms: N_9  and  C_10 
REMARK    5  A    between atoms: C_25  and  N_26 
REMARK       I    between atoms: N_26  and  C_27 
REMARK    6  A    between atoms: C_27  and  C_28 
ROOT
HETATM    1  C   UNL     1     -42.439  58.643 -53.984  1.00  0.00     0.259 C 
ENDROOT
BRANCH   1   2
HETATM    2  C   UNL     1     -41.980  59.286 -52.676  1.00  0.00     0.018 A 
HETATM    3  C   UNL     1     -40.589  59.164 -52.205  1.00  0.00    -0.038 A 
HETATM    4  C   UNL     1     -39.451  58.559 -52.984  1.00  0.00     0.050 C 
HETATM    5  C   UNL     1     -40.427  59.663 -50.923  1.00  0.00    -0.013 A 
HETATM    6  S   UNL     1     -41.871  60.288 -50.296  1.00  0.00    -0.076 SA
HETATM    7  C   UNL     1     -39.189  59.704 -50.077  1.00  0.00     0.057 C 
HETATM    8  C   UNL     1     -42.732  59.981 -51.727  1.00  0.00     0.086 A 
BRANCH   8   9
HETATM    9  N   UNL     1     -44.005  60.525 -51.812  1.00  0.00    -0.315 N 
HETATM   10  C   UNL     1     -44.306  61.824 -52.211  1.00  0.00     0.280 C 
HETATM   11  O   UNL     1     -43.490  62.732 -52.305  1.00  0.00    -0.265 OA
HETATM   12  H   UNL     1     -44.818  59.978 -51.565  1.00  0.00     0.170 HD
BRANCH  10  13
HETATM   13  C   UNL     1     -45.735  62.041 -52.315  1.00  0.00     0.142 A 
HETATM   14  O   UNL     1     -46.236  63.290 -52.041  1.00  0.00    -0.317 OA
HETATM   15  C   UNL     1     -47.584  63.218 -52.187  1.00  0.00     0.143 A 
HETATM   16  C   UNL     1     -47.957  61.961 -52.602  1.00  0.00     0.027 A 
HETATM   17  C   UNL     1     -46.765  61.203 -52.694  1.00  0.00     0.045 A 
ENDBRANCH  10  13
ENDBRANCH   8   9
ENDBRANCH   1   2
BRANCH   1  18
HETATM   18  N   UNL     1     -42.888  57.152 -53.911  1.00  0.00    -0.056 N 
HETATM   19  H   UNL     1     -43.905  57.221 -54.052  1.00  0.00     0.281 HD
HETATM   20  C   UNL     1     -42.390  56.233 -55.008  1.00  0.00     0.256 C 
HETATM   21  C   UNL     1     -42.911  54.779 -54.863  1.00  0.00     0.152 C 
HETATM   22  N   UNL     1     -42.693  54.237 -53.511  1.00  0.00    -0.364 N 
HETATM   23  C   UNL     1     -43.232  55.101 -52.437  1.00  0.00     0.152 C 
HETATM   24  C   UNL     1     -42.671  56.538 -52.525  1.00  0.00     0.256 C 
BRANCH  22  25
HETATM   25  C   UNL     1     -41.636  53.377 -53.288  1.00  0.00     0.102 A 
HETATM   26  N   UNL     1     -41.290  52.520 -54.269  1.00  0.00    -0.352 N 
HETATM   27  H   UNL     1     -41.867  52.503 -55.106  1.00  0.00     0.166 HD
HETATM   28  C   UNL     1     -40.288  51.631 -54.175  1.00  0.00     0.089 A 
HETATM   29  C   UNL     1     -39.542  51.547 -53.013  1.00  0.00     0.017 A 
HETATM   30  C   UNL     1     -39.869  52.380 -51.953  1.00  0.00     0.005 A 
HETATM   31  C   UNL     1     -40.920  53.288 -52.084  1.00  0.00     0.048 A 
ENDBRANCH  22  25
ENDBRANCH   1  18
BRANCH   1  32
HETATM   32  C   UNL     1     -43.273  59.601 -54.815  1.00  0.00    -0.005 A 
HETATM   33  C   UNL     1     -42.839  60.814 -55.336  1.00  0.00     0.125 A 
HETATM   34  N   UNL     1     -43.623  61.702 -55.987  1.00  0.00    -0.273 NA
HETATM   35  C   UNL     1     -44.897  61.352 -56.240  1.00  0.00     0.116 A 
HETATM   36  C   UNL     1     -45.426  60.142 -55.848  1.00  0.00     0.020 A 
HETATM   37  C   UNL     1     -44.607  59.266 -55.136  1.00  0.00     0.012 A 
ENDBRANCH   1  32
TORSDOF 6
ENDMDL
MODEL 9
REMARK VINA RESULT:      -7.0      2.638      4.631
REMARK  6 active torsions:
REMARK  status: ('A' for Active; 'I' for Inactive)
REMARK    1  A    between atoms: C_3  and  C_4 
REMARK    2  A    between atoms: C_4  and  N_5 
REMARK    3  A    between atoms: C_4  and  C_19 
REMARK    4  A    between atoms: N_9  and  C_10 
REMARK    5  A    between atoms: C_25  and  N_26 
REMARK       I    between atoms: N_26  and  C_27 
REMARK    6  A    between atoms: C_27  and  C_28 
ROOT
HETATM    1  C   UNL     1     -42.842  58.360 -56.120  1.00  0.00     0.259 C 
ENDROOT
BRANCH   1   2
HETATM    2  C   UNL     1     -43.856  59.502 -56.174  1.00  0.00     0.018 A 
HETATM    3  C   UNL     1     -43.721  60.693 -55.317  1.00  0.00    -0.038 A 
HETATM    4  C   UNL     1     -42.543  61.006 -54.433  1.00  0.00     0.050 C 
HETATM    5  C   UNL     1     -44.831  61.518 -55.393  1.00  0.00    -0.013 A 
HETATM    6  S   UNL     1     -45.994  60.923 -56.471  1.00  0.00    -0.076 SA
HETATM    7  C   UNL     1     -45.103  62.802 -54.667  1.00  0.00     0.057 C 
HETATM    8  C   UNL     1     -45.033  59.596 -56.919  1.00  0.00     0.086 A 
BRANCH   8   9
HETATM    9  N   UNL     1     -45.475  58.848 -58.000  1.00  0.00    -0.315 N 
HETATM   10  C   UNL     1     -46.650  58.104 -58.044  1.00  0.00     0.280 C 
HETATM   11  O   UNL     1     -47.328  57.811 -57.067  1.00  0.00    -0.265 OA
HETATM   12  H   UNL     1     -44.929  58.794 -58.848  1.00  0.00     0.170 HD
BRANCH  10  13
HETATM   13  C   UNL     1     -46.885  57.541 -59.358  1.00  0.00     0.142 A 
HETATM   14  O   UNL     1     -47.531  58.307 -60.299  1.00  0.00    -0.317 OA
HETATM   15  C   UNL     1     -47.644  57.547 -61.419  1.00  0.00     0.143 A 
HETATM   16  C   UNL     1     -47.038  56.326 -61.236  1.00  0.00     0.027 A 
HETATM   17  C   UNL     1     -46.540  56.325 -59.911  1.00  0.00     0.045 A 
ENDBRANCH  10  13
ENDBRANCH   8   9
ENDBRANCH   1   2
BRANCH   1  18
HETATM   18  N   UNL     1     -42.894  57.437 -54.864  1.00  0.00    -0.056 N 
HETATM   19  H   UNL     1     -43.550  57.940 -54.250  1.00  0.00     0.281 HD
HETATM   20  C   UNL     1     -43.494  56.060 -55.052  1.00  0.00     0.256 C 
HETATM   21  C   UNL     1     -43.527  55.229 -53.742  1.00  0.00     0.152 C 
HETATM   22  N   UNL     1     -42.221  55.205 -53.060  1.00  0.00    -0.364 N 
HETATM   23  C   UNL     1     -41.659  56.551 -52.818  1.00  0.00     0.152 C 
HETATM   24  C   UNL     1     -41.555  57.370 -54.125  1.00  0.00     0.256 C 
BRANCH  22  25
HETATM   25  C   UNL     1     -41.412  54.093 -53.186  1.00  0.00     0.102 A 
HETATM   26  N   UNL     1     -40.890  53.550 -52.068  1.00  0.00    -0.352 N 
HETATM   27  H   UNL     1     -41.065  54.025 -51.187  1.00  0.00     0.166 HD
HETATM   28  C   UNL     1     -40.086  52.475 -52.056  1.00  0.00     0.089 A 
HETATM   29  C   UNL     1     -39.735  51.858 -53.244  1.00  0.00     0.017 A 
HETATM   30  C   UNL     1     -40.213  52.387 -54.434  1.00  0.00     0.005 A 
HETATM   31  C   UNL     1     -41.043  53.508 -54.408  1.00  0.00     0.048 A 
ENDBRANCH  22  25
ENDBRANCH   1  18
BRANCH   1  32
HETATM   32  C   UNL     1     -42.657  57.710 -57.479  1.00  0.00    -0.005 A 
HETATM   33  C   UNL     1     -41.974  58.260 -58.556  1.00  0.00     0.125 A 
HETATM   34  N   UNL     1     -41.906  57.713 -59.790  1.00  0.00    -0.273 NA
HETATM   35  C   UNL     1     -42.457  56.499 -59.974  1.00  0.00     0.116 A 
HETATM   36  C   UNL     1     -43.092  55.812 -58.963  1.00  0.00     0.020 A 
HETATM   37  C   UNL     1     -43.188  56.422 -57.712  1.00  0.00     0.012 A 
ENDBRANCH   1  32
TORSDOF 6
ENDMDL
MODEL 10
REMARK VINA RESULT:      -7.0      2.645      6.296
REMARK  6 active torsions:
REMARK  status: ('A' for Active; 'I' for Inactive)
REMARK    1  A    between atoms: C_3  and  C_4 
REMARK    2  A    between atoms: C_4  and  N_5 
REMARK    3  A    between atoms: C_4  and  C_19 
REMARK    4  A    between atoms: N_9  and  C_10 
REMARK    5  A    between atoms: C_25  and  N_26 
REMARK       I    between atoms: N_26  and  C_27 
REMARK    6  A    between atoms: C_27  and  C_28 
ROOT
HETATM    1  C   UNL     1     -43.390  57.956 -57.288  1.00  0.00     0.259 C 
ENDROOT
BRANCH   1   2
HETATM    2  C   UNL     1     -43.072  59.431 -57.533  1.00  0.00     0.018 A 
HETATM    3  C   UNL     1     -42.260  59.863 -58.684  1.00  0.00    -0.038 A 
HETATM    4  C   UNL     1     -41.791  58.975 -59.806  1.00  0.00     0.050 C 
HETATM    5  C   UNL     1     -41.945  61.211 -58.623  1.00  0.00    -0.013 A 
HETATM    6  S   UNL     1     -42.613  61.959 -57.259  1.00  0.00    -0.076 SA
HETATM    7  C   UNL     1     -41.123  62.030 -59.573  1.00  0.00     0.057 C 
HETATM    8  C   UNL     1     -43.395  60.541 -56.750  1.00  0.00     0.086 A 
BRANCH   8   9
HETATM    9  N   UNL     1     -44.304  60.673 -55.710  1.00  0.00    -0.315 N 
HETATM   10  C   UNL     1     -43.980  60.799 -54.363  1.00  0.00     0.280 C 
HETATM   11  O   UNL     1     -42.877  60.569 -53.885  1.00  0.00    -0.265 OA
HETATM   12  H   UNL     1     -45.298  60.671 -55.891  1.00  0.00     0.170 HD
BRANCH  10  13
HETATM   13  C   UNL     1     -45.151  61.046 -53.546  1.00  0.00     0.142 A 
HETATM   14  O   UNL     1     -45.857  62.210 -53.737  1.00  0.00    -0.317 OA
HETATM   15  C   UNL     1     -46.878  62.206 -52.842  1.00  0.00     0.143 A 
HETATM   16  C   UNL     1     -46.876  61.039 -52.113  1.00  0.00     0.027 A 
HETATM   17  C   UNL     1     -45.769  60.287 -52.573  1.00  0.00     0.045 A 
ENDBRANCH  10  13
ENDBRANCH   8   9
ENDBRANCH   1   2
BRANCH   1  18
HETATM   18  N   UNL     1     -43.259  57.447 -55.820  1.00  0.00    -0.056 N 
HETATM   19  H   UNL     1     -43.824  58.133 -55.299  1.00  0.00     0.281 HD
HETATM   20  C   UNL     1     -43.872  56.099 -55.506  1.00  0.00     0.256 C 
HETATM   21  C   UNL     1     -43.715  55.693 -54.017  1.00  0.00     0.152 C 
HETATM   22  N   UNL     1     -42.325  55.822 -53.544  1.00  0.00    -0.364 N 
HETATM   23  C   UNL     1     -41.741  57.158 -53.793  1.00  0.00     0.152 C 
HETATM   24  C   UNL     1     -41.828  57.551 -55.285  1.00  0.00     0.256 C 
BRANCH  22  25
HETATM   25  C   UNL     1     -41.537  54.693 -53.444  1.00  0.00     0.102 A 
HETATM   26  N   UNL     1     -41.142  54.084 -54.580  1.00  0.00    -0.352 N 
HETATM   27  H   UNL     1     -41.498  54.448 -55.459  1.00  0.00     0.166 HD
HETATM   28  C   UNL     1     -40.381  52.978 -54.617  1.00  0.00     0.089 A 
HETATM   29  C   UNL     1     -39.962  52.384 -53.440  1.00  0.00     0.017 A 
HETATM   30  C   UNL     1     -40.361  52.943 -52.235  1.00  0.00     0.005 A 
HETATM   31  C   UNL     1     -41.155  54.091 -52.235  1.00  0.00     0.048 A 
ENDBRANCH  22  25
ENDBRANCH   1  18
BRANCH   1  32
HETATM   32  C   UNL     1     -44.588  57.499 -58.100  1.00  0.00    -0.005 A 
HETATM   33  C   UNL     1     -44.577  56.511 -59.077  1.00  0.00     0.125 A 
HETATM   34  N   UNL     1     -45.629  56.187 -59.862  1.00  0.00    -0.273 NA
HETATM   35  C   UNL     1     -46.806  56.794 -59.621  1.00  0.00     0.116 A 
HETATM   36  C   UNL     1     -46.968  57.732 -58.626  1.00  0.00     0.020 A 
HETATM   37  C   UNL     1     -45.853  58.081 -57.864  1.00  0.00     0.012 A 
ENDBRANCH   1  32
TORSDOF 6
ENDMDL
