MODEL 1
REMARK VINA RESULT:      -8.2      0.000      0.000
REMARK  8 active torsions:
REMARK  status: ('A' for Active; 'I' for Inactive)
REMARK    1  A    between atoms: C_2  and  C_3 
REMARK    2  A    between atoms: C_3  and  N_4 
REMARK    3  A    between atoms: C_3  and  C_19 
REMARK       I    between atoms: C_19  and  N_20 
REMARK    4  A    between atoms: N_20  and  C_21 
REMARK    5  A    between atoms: C_21  and  C_22 
REMARK    6  A    between atoms: C_22  and  C_23 
REMARK    7  A    between atoms: C_23  and  O_24 
REMARK    8  A    between atoms: O_24  and  C_25 
ROOT
HETATM    1  N   UNL     1     -42.546  56.001 -54.135  1.00  0.00    -0.220 N 
HETATM    2  N   UNL     1     -42.317  56.610 -52.891  1.00  0.00    -0.172 NA
HETATM    3  C   UNL     1     -41.634  55.973 -51.981  1.00  0.00     0.069 A 
HETATM    4  C   UNL     1     -41.384  56.661 -50.664  1.00  0.00     0.074 C 
HETATM    5  C   UNL     1     -41.133  54.652 -52.239  1.00  0.00     0.048 A 
HETATM    6  C   UNL     1     -41.371  54.005 -53.425  1.00  0.00     0.064 A 
HETATM    7  C   UNL     1     -42.146  54.683 -54.457  1.00  0.00     0.277 A 
HETATM    8  O   UNL     1     -42.425  54.133 -55.519  1.00  0.00    -0.266 OA
HETATM    9  S   UNL     1     -40.218  53.737 -51.156  1.00  0.00    -0.086 SA
HETATM   10  C   UNL     1     -40.115  52.413 -52.253  1.00  0.00     0.017 A 
HETATM   11  C   UNL     1     -40.789  52.687 -53.450  1.00  0.00    -0.002 A 
HETATM   12  C   UNL     1     -39.457  51.186 -52.036  1.00  0.00     0.020 A 
HETATM   13  C   UNL     1     -39.479  50.218 -53.040  1.00  0.00     0.001 A 
HETATM   14  C   UNL     1     -40.141  50.459 -54.235  1.00  0.00     0.001 A 
HETATM   15  C   UNL     1     -40.790  51.678 -54.448  1.00  0.00     0.014 A 
ENDROOT
BRANCH   1  16
HETATM   16  C   UNL     1     -43.376  56.727 -55.125  1.00  0.00     0.205 C 
BRANCH  16  17
HETATM   17  C   UNL     1     -44.589  57.415 -54.470  1.00  0.00     0.032 C 
HETATM   18  C   UNL     1     -45.512  58.146 -55.435  1.00  0.00     0.007 C 
ENDBRANCH  16  17
BRANCH  16  19
HETATM   19  C   UNL     1     -42.652  57.692 -56.091  1.00  0.00     0.242 C 
HETATM   20  N   UNL     1     -42.667  57.334 -57.416  1.00  0.00    -0.359 N 
HETATM   21  H   UNL     1     -43.186  56.487 -57.642  1.00  0.00     0.162 HD
HETATM   22  O   UNL     1     -42.002  58.650 -55.675  1.00  0.00    -0.271 OA
BRANCH  20  23
HETATM   23  C   UNL     1     -42.003  58.082 -58.462  1.00  0.00     0.125 C 
BRANCH  23  24
HETATM   24  C   UNL     1     -42.096  57.381 -59.815  1.00  0.00     0.046 C 
BRANCH  24  25
HETATM   25  C   UNL     1     -42.912  56.095 -59.733  1.00  0.00     0.169 C 
BRANCH  25  26
HETATM   26  O   UNL     1     -43.749  55.992 -60.880  1.00  0.00    -0.387 OA
BRANCH  26  27
HETATM   27  C   UNL     1     -44.873  55.125 -60.711  1.00  0.00     0.113 C 
HETATM   28  C   UNL     1     -44.612  54.096 -59.616  1.00  0.00     0.039 C 
HETATM   29  C   UNL     1     -46.056  56.010 -60.332  1.00  0.00     0.039 C 
ENDBRANCH  26  27
ENDBRANCH  25  26
ENDBRANCH  24  25
ENDBRANCH  23  24
ENDBRANCH  20  23
ENDBRANCH  16  19
ENDBRANCH   1  16
TORSDOF 8
ENDMDL
MODEL 2
REMARK VINA RESULT:      -8.1      0.927      1.423
REMARK  8 active torsions:
REMARK  status: ('A' for Active; 'I' for Inactive)
REMARK    1  A    between atoms: C_2  and  C_3 
REMARK    2  A    between atoms: C_3  and  N_4 
REMARK    3  A    between atoms: C_3  and  C_19 
REMARK       I    between atoms: C_19  and  N_20 
REMARK    4  A    between atoms: N_20  and  C_21 
REMARK    5  A    between atoms: C_21  and  C_22 
REMARK    6  A    between atoms: C_22  and  C_23 
REMARK    7  A    between atoms: C_23  and  O_24 
REMARK    8  A    between atoms: O_24  and  C_25 
ROOT
HETATM    1  N   UNL     1     -42.805  55.831 -54.030  1.00  0.00    -0.220 N 
HETATM    2  N   UNL     1     -42.544  56.467 -52.805  1.00  0.00    -0.172 NA
HETATM    3  C   UNL     1     -41.790  55.873 -51.921  1.00  0.00     0.069 A 
HETATM    4  C   UNL     1     -41.509  56.589 -50.627  1.00  0.00     0.074 C 
HETATM    5  C   UNL     1     -41.243  54.572 -52.189  1.00  0.00     0.048 A 
HETATM    6  C   UNL     1     -41.508  53.900 -53.355  1.00  0.00     0.064 A 
HETATM    7  C   UNL     1     -42.361  54.528 -54.355  1.00  0.00     0.277 A 
HETATM    8  O   UNL     1     -42.665  53.952 -55.396  1.00  0.00    -0.266 OA
HETATM    9  S   UNL     1     -40.236  53.714 -51.141  1.00  0.00    -0.086 SA
HETATM   10  C   UNL     1     -40.126  52.380 -52.227  1.00  0.00     0.017 A 
HETATM   11  C   UNL     1     -40.868  52.608 -53.394  1.00  0.00    -0.002 A 
HETATM   12  C   UNL     1     -39.403  51.187 -52.029  1.00  0.00     0.020 A 
HETATM   13  C   UNL     1     -39.430  50.206 -53.019  1.00  0.00     0.001 A 
HETATM   14  C   UNL     1     -40.158  50.401 -54.184  1.00  0.00     0.001 A 
HETATM   15  C   UNL     1     -40.872  51.587 -54.378  1.00  0.00     0.014 A 
ENDROOT
BRANCH   1  16
HETATM   16  C   UNL     1     -43.713  56.506 -54.986  1.00  0.00     0.205 C 
BRANCH  16  17
HETATM   17  C   UNL     1     -44.385  57.747 -54.369  1.00  0.00     0.032 C 
HETATM   18  C   UNL     1     -45.297  58.520 -55.311  1.00  0.00     0.007 C 
ENDBRANCH  16  17
BRANCH  16  19
HETATM   19  C   UNL     1     -43.158  56.824 -56.393  1.00  0.00     0.242 C 
HETATM   20  N   UNL     1     -43.634  56.039 -57.414  1.00  0.00    -0.359 N 
HETATM   21  H   UNL     1     -44.335  55.348 -57.154  1.00  0.00     0.162 HD
HETATM   22  O   UNL     1     -42.257  57.645 -56.558  1.00  0.00    -0.271 OA
BRANCH  20  23
HETATM   23  C   UNL     1     -43.197  56.151 -58.789  1.00  0.00     0.125 C 
BRANCH  23  24
HETATM   24  C   UNL     1     -43.903  55.149 -59.699  1.00  0.00     0.046 C 
BRANCH  24  25
HETATM   25  C   UNL     1     -44.815  55.843 -60.706  1.00  0.00     0.169 C 
BRANCH  25  26
HETATM   26  O   UNL     1     -45.088  57.168 -60.262  1.00  0.00    -0.387 OA
BRANCH  26  27
HETATM   27  C   UNL     1     -46.480  57.481 -60.171  1.00  0.00     0.113 C 
HETATM   28  C   UNL     1     -47.330  56.398 -60.828  1.00  0.00     0.039 C 
HETATM   29  C   UNL     1     -46.810  57.580 -58.684  1.00  0.00     0.039 C 
ENDBRANCH  26  27
ENDBRANCH  25  26
ENDBRANCH  24  25
ENDBRANCH  23  24
ENDBRANCH  20  23
ENDBRANCH  16  19
ENDBRANCH   1  16
TORSDOF 8
ENDMDL
MODEL 3
REMARK VINA RESULT:      -8.0      3.426      5.277
REMARK  8 active torsions:
REMARK  status: ('A' for Active; 'I' for Inactive)
REMARK    1  A    between atoms: C_2  and  C_3 
REMARK    2  A    between atoms: C_3  and  N_4 
REMARK    3  A    between atoms: C_3  and  C_19 
REMARK       I    between atoms: C_19  and  N_20 
REMARK    4  A    between atoms: N_20  and  C_21 
REMARK    5  A    between atoms: C_21  and  C_22 
REMARK    6  A    between atoms: C_22  and  C_23 
REMARK    7  A    between atoms: C_23  and  O_24 
REMARK    8  A    between atoms: O_24  and  C_25 
ROOT
HETATM    1  N   UNL     1     -41.256  55.970 -52.534  1.00  0.00    -0.220 N 
HETATM    2  N   UNL     1     -41.292  55.991 -51.131  1.00  0.00    -0.172 NA
HETATM    3  C   UNL     1     -40.995  54.910 -50.464  1.00  0.00     0.069 A 
HETATM    4  C   UNL     1     -41.021  54.970 -48.960  1.00  0.00     0.074 C 
HETATM    5  C   UNL     1     -40.651  53.700 -51.158  1.00  0.00     0.048 A 
HETATM    6  C   UNL     1     -40.645  53.626 -52.527  1.00  0.00     0.064 A 
HETATM    7  C   UNL     1     -40.988  54.811 -53.302  1.00  0.00     0.277 A 
HETATM    8  O   UNL     1     -41.040  54.788 -54.528  1.00  0.00    -0.266 OA
HETATM    9  S   UNL     1     -40.224  52.248 -50.411  1.00  0.00    -0.086 SA
HETATM   10  C   UNL     1     -40.024  51.449 -51.925  1.00  0.00     0.017 A 
HETATM   11  C   UNL     1     -40.286  52.311 -52.997  1.00  0.00    -0.002 A 
HETATM   12  C   UNL     1     -39.647  50.106 -52.127  1.00  0.00     0.020 A 
HETATM   13  C   UNL     1     -39.537  49.622 -53.431  1.00  0.00     0.001 A 
HETATM   14  C   UNL     1     -39.794  50.451 -54.513  1.00  0.00     0.001 A 
HETATM   15  C   UNL     1     -40.164  51.783 -54.308  1.00  0.00     0.014 A 
ENDROOT
BRANCH   1  16
HETATM   16  C   UNL     1     -41.656  57.198 -53.261  1.00  0.00     0.205 C 
BRANCH  16  17
HETATM   17  C   UNL     1     -43.175  57.253 -53.510  1.00  0.00     0.032 C 
HETATM   18  C   UNL     1     -43.603  58.127 -54.682  1.00  0.00     0.007 C 
ENDBRANCH  16  17
BRANCH  16  19
HETATM   19  C   UNL     1     -41.137  58.548 -52.718  1.00  0.00     0.242 C 
HETATM   20  N   UNL     1     -41.595  58.908 -51.476  1.00  0.00    -0.359 N 
HETATM   21  H   UNL     1     -42.203  58.234 -51.014  1.00  0.00     0.162 HD
HETATM   22  O   UNL     1     -40.456  59.301 -53.413  1.00  0.00    -0.271 OA
BRANCH  20  23
HETATM   23  C   UNL     1     -41.262  60.156 -50.822  1.00  0.00     0.125 C 
BRANCH  23  24
HETATM   24  C   UNL     1     -42.505  60.914 -50.365  1.00  0.00     0.046 C 
BRANCH  24  25
HETATM   25  C   UNL     1     -43.336  61.406 -51.547  1.00  0.00     0.169 C 
BRANCH  25  26
HETATM   26  O   UNL     1     -44.149  60.340 -52.028  1.00  0.00    -0.387 OA
BRANCH  26  27
HETATM   27  C   UNL     1     -45.362  60.152 -51.295  1.00  0.00     0.113 C 
HETATM   28  C   UNL     1     -46.575  60.553 -52.128  1.00  0.00     0.039 C 
HETATM   29  C   UNL     1     -45.434  58.669 -50.941  1.00  0.00     0.039 C 
ENDBRANCH  26  27
ENDBRANCH  25  26
ENDBRANCH  24  25
ENDBRANCH  23  24
ENDBRANCH  20  23
ENDBRANCH  16  19
ENDBRANCH   1  16
TORSDOF 8
ENDMDL
MODEL 4
REMARK VINA RESULT:      -7.7      2.799      5.812
REMARK  8 active torsions:
REMARK  status: ('A' for Active; 'I' for Inactive)
REMARK    1  A    between atoms: C_2  and  C_3 
REMARK    2  A    between atoms: C_3  and  N_4 
REMARK    3  A    between atoms: C_3  and  C_19 
REMARK       I    between atoms: C_19  and  N_20 
REMARK    4  A    between atoms: N_20  and  C_21 
REMARK    5  A    between atoms: C_21  and  C_22 
REMARK    6  A    between atoms: C_22  and  C_23 
REMARK    7  A    between atoms: C_23  and  O_24 
REMARK    8  A    between atoms: O_24  and  C_25 
ROOT
HETATM    1  N   UNL     1     -41.520  55.906 -53.261  1.00  0.00    -0.220 N 
HETATM    2  N   UNL     1     -41.513  56.156 -51.879  1.00  0.00    -0.172 NA
HETATM    3  C   UNL     1     -41.129  55.217 -51.059  1.00  0.00     0.069 A 
HETATM    4  C   UNL     1     -41.110  55.522 -49.584  1.00  0.00     0.074 C 
HETATM    5  C   UNL     1     -40.733  53.931 -51.560  1.00  0.00     0.048 A 
HETATM    6  C   UNL     1     -40.766  53.633 -52.898  1.00  0.00     0.064 A 
HETATM    7  C   UNL     1     -41.206  54.653 -53.840  1.00  0.00     0.277 A 
HETATM    8  O   UNL     1     -41.296  54.425 -55.043  1.00  0.00    -0.266 OA
HETATM    9  S   UNL     1     -40.194  52.647 -50.606  1.00  0.00    -0.086 SA
HETATM   10  C   UNL     1     -39.993  51.622 -51.976  1.00  0.00     0.017 A 
HETATM   11  C   UNL     1     -40.342  52.280 -53.163  1.00  0.00    -0.002 A 
HETATM   12  C   UNL     1     -39.540  50.287 -51.973  1.00  0.00     0.020 A 
HETATM   13  C   UNL     1     -39.442  49.603 -53.184  1.00  0.00     0.001 A 
HETATM   14  C   UNL     1     -39.784  50.226 -54.375  1.00  0.00     0.001 A 
HETATM   15  C   UNL     1     -40.229  51.551 -54.374  1.00  0.00     0.014 A 
ENDROOT
BRANCH   1  16
HETATM   16  C   UNL     1     -42.018  56.973 -54.160  1.00  0.00     0.205 C 
BRANCH  16  17
HETATM   17  C   UNL     1     -43.489  56.751 -54.562  1.00  0.00     0.032 C 
HETATM   18  C   UNL     1     -43.917  57.450 -55.844  1.00  0.00     0.007 C 
ENDBRANCH  16  17
BRANCH  16  19
HETATM   19  C   UNL     1     -41.780  58.438 -53.729  1.00  0.00     0.242 C 
HETATM   20  N   UNL     1     -42.517  58.871 -52.655  1.00  0.00    -0.359 N 
HETATM   21  H   UNL     1     -43.122  58.176 -52.222  1.00  0.00     0.162 HD
HETATM   22  O   UNL     1     -41.065  59.193 -54.387  1.00  0.00    -0.271 OA
BRANCH  20  23
HETATM   23  C   UNL     1     -42.469  60.221 -52.136  1.00  0.00     0.125 C 
BRANCH  23  24
HETATM   24  C   UNL     1     -42.180  60.249 -50.637  1.00  0.00     0.046 C 
BRANCH  24  25
HETATM   25  C   UNL     1     -41.166  59.182 -50.235  1.00  0.00     0.169 C 
BRANCH  25  26
HETATM   26  O   UNL     1     -40.086  59.797 -49.539  1.00  0.00    -0.387 OA
BRANCH  26  27
HETATM   27  C   UNL     1     -38.916  60.000 -50.335  1.00  0.00     0.113 C 
HETATM   28  C   UNL     1     -37.650  59.864 -49.495  1.00  0.00     0.039 C 
HETATM   29  C   UNL     1     -38.939  58.937 -51.428  1.00  0.00     0.039 C 
ENDBRANCH  26  27
ENDBRANCH  25  26
ENDBRANCH  24  25
ENDBRANCH  23  24
ENDBRANCH  20  23
ENDBRANCH  16  19
ENDBRANCH   1  16
TORSDOF 8
ENDMDL
MODEL 5
REMARK VINA RESULT:      -7.3      2.337      4.689
REMARK  8 active torsions:
REMARK  status: ('A' for Active; 'I' for Inactive)
REMARK    1  A    between atoms: C_2  and  C_3 
REMARK    2  A    between atoms: C_3  and  N_4 
REMARK    3  A    between atoms: C_3  and  C_19 
REMARK       I    between atoms: C_19  and  N_20 
REMARK    4  A    between atoms: N_20  and  C_21 
REMARK    5  A    between atoms: C_21  and  C_22 
REMARK    6  A    between atoms: C_22  and  C_23 
REMARK    7  A    between atoms: C_23  and  O_24 
REMARK    8  A    between atoms: O_24  and  C_25 
ROOT
HETATM    1  N   UNL     1     -41.868  56.720 -54.367  1.00  0.00    -0.220 N 
HETATM    2  N   UNL     1     -41.936  57.281 -53.081  1.00  0.00    -0.172 NA
HETATM    3  C   UNL     1     -41.556  56.575 -52.053  1.00  0.00     0.069 A 
HETATM    4  C   UNL     1     -41.618  57.210 -50.689  1.00  0.00     0.074 C 
HETATM    5  C   UNL     1     -41.088  55.228 -52.228  1.00  0.00     0.048 A 
HETATM    6  C   UNL     1     -41.046  54.630 -53.462  1.00  0.00     0.064 A 
HETATM    7  C   UNL     1     -41.479  55.385 -54.629  1.00  0.00     0.277 A 
HETATM    8  O   UNL     1     -41.503  54.883 -55.750  1.00  0.00    -0.266 OA
HETATM    9  S   UNL     1     -40.546  54.224 -50.984  1.00  0.00    -0.086 SA
HETATM   10  C   UNL     1     -40.241  52.924 -52.072  1.00  0.00     0.017 A 
HETATM   11  C   UNL     1     -40.559  53.274 -53.391  1.00  0.00    -0.002 A 
HETATM   12  C   UNL     1     -39.739  51.648 -51.743  1.00  0.00     0.020 A 
HETATM   13  C   UNL     1     -39.557  50.710 -52.759  1.00  0.00     0.001 A 
HETATM   14  C   UNL     1     -39.866  51.027 -54.074  1.00  0.00     0.001 A 
HETATM   15  C   UNL     1     -40.361  52.293 -54.396  1.00  0.00     0.014 A 
ENDROOT
BRANCH   1  16
HETATM   16  C   UNL     1     -42.363  57.528 -55.507  1.00  0.00     0.205 C 
BRANCH  16  17
HETATM   17  C   UNL     1     -43.725  57.026 -56.023  1.00  0.00     0.032 C 
HETATM   18  C   UNL     1     -43.977  57.261 -57.506  1.00  0.00     0.007 C 
ENDBRANCH  16  17
BRANCH  16  19
HETATM   19  C   UNL     1     -42.369  59.065 -55.342  1.00  0.00     0.242 C 
HETATM   20  N   UNL     1     -43.409  59.583 -54.611  1.00  0.00    -0.359 N 
HETATM   21  H   UNL     1     -44.056  58.904 -54.216  1.00  0.00     0.162 HD
HETATM   22  O   UNL     1     -41.559  59.777 -55.934  1.00  0.00    -0.271 OA
BRANCH  20  23
HETATM   23  C   UNL     1     -43.612  60.999 -54.390  1.00  0.00     0.125 C 
BRANCH  23  24
HETATM   24  C   UNL     1     -42.810  61.513 -53.198  1.00  0.00     0.046 C 
BRANCH  24  25
HETATM   25  C   UNL     1     -43.510  61.221 -51.874  1.00  0.00     0.169 C 
BRANCH  25  26
HETATM   26  O   UNL     1     -43.817  59.833 -51.799  1.00  0.00    -0.387 OA
BRANCH  26  27
HETATM   27  C   UNL     1     -45.031  59.538 -51.104  1.00  0.00     0.113 C 
HETATM   28  C   UNL     1     -46.232  60.165 -51.806  1.00  0.00     0.039 C 
HETATM   29  C   UNL     1     -45.167  58.018 -51.086  1.00  0.00     0.039 C 
ENDBRANCH  26  27
ENDBRANCH  25  26
ENDBRANCH  24  25
ENDBRANCH  23  24
ENDBRANCH  20  23
ENDBRANCH  16  19
ENDBRANCH   1  16
TORSDOF 8
ENDMDL
MODEL 6
REMARK VINA RESULT:      -7.3      1.553      2.086
REMARK  8 active torsions:
REMARK  status: ('A' for Active; 'I' for Inactive)
REMARK    1  A    between atoms: C_2  and  C_3 
REMARK    2  A    between atoms: C_3  and  N_4 
REMARK    3  A    between atoms: C_3  and  C_19 
REMARK       I    between atoms: C_19  and  N_20 
REMARK    4  A    between atoms: N_20  and  C_21 
REMARK    5  A    between atoms: C_21  and  C_22 
REMARK    6  A    between atoms: C_22  and  C_23 
REMARK    7  A    between atoms: C_23  and  O_24 
REMARK    8  A    between atoms: O_24  and  C_25 
ROOT
HETATM    1  N   UNL     1     -42.318  55.850 -53.030  1.00  0.00    -0.220 N 
HETATM    2  N   UNL     1     -42.114  56.129 -51.669  1.00  0.00    -0.172 NA
HETATM    3  C   UNL     1     -41.472  55.270 -50.926  1.00  0.00     0.069 A 
HETATM    4  C   UNL     1     -41.249  55.607 -49.476  1.00  0.00     0.074 C 
HETATM    5  C   UNL     1     -40.993  54.038 -51.489  1.00  0.00     0.048 A 
HETATM    6  C   UNL     1     -41.208  53.709 -52.803  1.00  0.00     0.064 A 
HETATM    7  C   UNL     1     -41.936  54.639 -53.655  1.00  0.00     0.277 A 
HETATM    8  O   UNL     1     -42.194  54.375 -54.826  1.00  0.00    -0.266 OA
HETATM    9  S   UNL     1     -40.131  52.861 -50.641  1.00  0.00    -0.086 SA
HETATM   10  C   UNL     1     -40.023  51.843 -52.027  1.00  0.00     0.017 A 
HETATM   11  C   UNL     1     -40.653  52.421 -53.137  1.00  0.00    -0.002 A 
HETATM   12  C   UNL     1     -39.397  50.582 -52.102  1.00  0.00     0.020 A 
HETATM   13  C   UNL     1     -39.410  49.890 -53.313  1.00  0.00     0.001 A 
HETATM   14  C   UNL     1     -40.030  50.435 -54.428  1.00  0.00     0.001 A 
HETATM   15  C   UNL     1     -40.646  51.687 -54.351  1.00  0.00     0.014 A 
ENDROOT
BRANCH   1  16
HETATM   16  C   UNL     1     -43.102  56.819 -53.831  1.00  0.00     0.205 C 
BRANCH  16  17
HETATM   17  C   UNL     1     -44.309  57.373 -53.051  1.00  0.00     0.032 C 
HETATM   18  C   UNL     1     -44.083  58.727 -52.393  1.00  0.00     0.007 C 
ENDBRANCH  16  17
BRANCH  16  19
HETATM   19  C   UNL     1     -42.325  57.961 -54.527  1.00  0.00     0.242 C 
HETATM   20  N   UNL     1     -42.868  58.423 -55.700  1.00  0.00    -0.359 N 
HETATM   21  H   UNL     1     -43.749  57.996 -55.981  1.00  0.00     0.162 HD
HETATM   22  O   UNL     1     -41.230  58.338 -54.113  1.00  0.00    -0.271 OA
BRANCH  20  23
HETATM   23  C   UNL     1     -42.261  59.450 -56.520  1.00  0.00     0.125 C 
BRANCH  23  24
HETATM   24  C   UNL     1     -43.253  60.051 -57.513  1.00  0.00     0.046 C 
BRANCH  24  25
HETATM   25  C   UNL     1     -44.069  58.974 -58.220  1.00  0.00     0.169 C 
BRANCH  25  26
HETATM   26  O   UNL     1     -43.274  57.803 -58.374  1.00  0.00    -0.387 OA
BRANCH  26  27
HETATM   27  C   UNL     1     -43.102  57.384 -59.731  1.00  0.00     0.113 C 
HETATM   28  C   UNL     1     -41.881  58.047 -60.360  1.00  0.00     0.039 C 
HETATM   29  C   UNL     1     -42.924  55.869 -59.702  1.00  0.00     0.039 C 
ENDBRANCH  26  27
ENDBRANCH  25  26
ENDBRANCH  24  25
ENDBRANCH  23  24
ENDBRANCH  20  23
ENDBRANCH  16  19
ENDBRANCH   1  16
TORSDOF 8
ENDMDL
MODEL 7
REMARK VINA RESULT:      -7.3      2.115      3.288
REMARK  8 active torsions:
REMARK  status: ('A' for Active; 'I' for Inactive)
REMARK    1  A    between atoms: C_2  and  C_3 
REMARK    2  A    between atoms: C_3  and  N_4 
REMARK    3  A    between atoms: C_3  and  C_19 
REMARK       I    between atoms: C_19  and  N_20 
REMARK    4  A    between atoms: N_20  and  C_21 
REMARK    5  A    between atoms: C_21  and  C_22 
REMARK    6  A    between atoms: C_22  and  C_23 
REMARK    7  A    between atoms: C_23  and  O_24 
REMARK    8  A    between atoms: O_24  and  C_25 
ROOT
HETATM    1  N   UNL     1     -41.531  55.781 -52.700  1.00  0.00    -0.220 N 
HETATM    2  N   UNL     1     -41.558  55.893 -51.301  1.00  0.00    -0.172 NA
HETATM    3  C   UNL     1     -41.179  54.883 -50.568  1.00  0.00     0.069 A 
HETATM    4  C   UNL     1     -41.197  55.040 -49.071  1.00  0.00     0.074 C 
HETATM    5  C   UNL     1     -40.755  53.656 -51.185  1.00  0.00     0.048 A 
HETATM    6  C   UNL     1     -40.754  53.492 -52.546  1.00  0.00     0.064 A 
HETATM    7  C   UNL     1     -41.187  54.596 -53.392  1.00  0.00     0.277 A 
HETATM    8  O   UNL     1     -41.248  54.487 -54.614  1.00  0.00    -0.266 OA
HETATM    9  S   UNL     1     -40.220  52.291 -50.349  1.00  0.00    -0.086 SA
HETATM   10  C   UNL     1     -39.975  51.409 -51.809  1.00  0.00     0.017 A 
HETATM   11  C   UNL     1     -40.307  52.177 -52.933  1.00  0.00    -0.002 A 
HETATM   12  C   UNL     1     -39.505  50.085 -51.927  1.00  0.00     0.020 A 
HETATM   13  C   UNL     1     -39.371  49.525 -53.197  1.00  0.00     0.001 A 
HETATM   14  C   UNL     1     -39.695  50.259 -54.328  1.00  0.00     0.001 A 
HETATM   15  C   UNL     1     -40.158  51.572 -54.207  1.00  0.00     0.014 A 
ENDROOT
BRANCH   1  16
HETATM   16  C   UNL     1     -42.023  56.926 -53.501  1.00  0.00     0.205 C 
BRANCH  16  17
HETATM   17  C   UNL     1     -40.883  57.875 -53.915  1.00  0.00     0.032 C 
HETATM   18  C   UNL     1     -40.800  59.168 -53.115  1.00  0.00     0.007 C 
ENDBRANCH  16  17
BRANCH  16  19
HETATM   19  C   UNL     1     -42.942  56.611 -54.704  1.00  0.00     0.242 C 
HETATM   20  N   UNL     1     -42.372  56.756 -55.944  1.00  0.00    -0.359 N 
HETATM   21  H   UNL     1     -41.389  57.021 -55.954  1.00  0.00     0.162 HD
HETATM   22  O   UNL     1     -44.138  56.367 -54.552  1.00  0.00    -0.271 OA
BRANCH  20  23
HETATM   23  C   UNL     1     -43.085  56.556 -57.188  1.00  0.00     0.125 C 
BRANCH  23  24
HETATM   24  C   UNL     1     -42.663  57.560 -58.258  1.00  0.00     0.046 C 
BRANCH  24  25
HETATM   25  C   UNL     1     -42.746  58.997 -57.753  1.00  0.00     0.169 C 
BRANCH  25  26
HETATM   26  O   UNL     1     -43.904  59.144 -56.938  1.00  0.00    -0.387 OA
BRANCH  26  27
HETATM   27  C   UNL     1     -43.900  60.316 -56.119  1.00  0.00     0.113 C 
HETATM   28  C   UNL     1     -44.425  60.011 -54.720  1.00  0.00     0.039 C 
HETATM   29  C   UNL     1     -42.453  60.793 -56.045  1.00  0.00     0.039 C 
ENDBRANCH  26  27
ENDBRANCH  25  26
ENDBRANCH  24  25
ENDBRANCH  23  24
ENDBRANCH  20  23
ENDBRANCH  16  19
ENDBRANCH   1  16
TORSDOF 8
ENDMDL
MODEL 8
REMARK VINA RESULT:      -7.2      2.711      7.377
REMARK  8 active torsions:
REMARK  status: ('A' for Active; 'I' for Inactive)
REMARK    1  A    between atoms: C_2  and  C_3 
REMARK    2  A    between atoms: C_3  and  N_4 
REMARK    3  A    between atoms: C_3  and  C_19 
REMARK       I    between atoms: C_19  and  N_20 
REMARK    4  A    between atoms: N_20  and  C_21 
REMARK    5  A    between atoms: C_21  and  C_22 
REMARK    6  A    between atoms: C_22  and  C_23 
REMARK    7  A    between atoms: C_23  and  O_24 
REMARK    8  A    between atoms: O_24  and  C_25 
ROOT
HETATM    1  N   UNL     1     -42.492  55.350 -54.520  1.00  0.00    -0.220 N 
HETATM    2  N   UNL     1     -42.068  56.666 -54.270  1.00  0.00    -0.172 NA
HETATM    3  C   UNL     1     -42.167  57.562 -55.212  1.00  0.00     0.069 A 
HETATM    4  C   UNL     1     -41.726  58.969 -54.907  1.00  0.00     0.074 C 
HETATM    5  C   UNL     1     -42.687  57.205 -56.503  1.00  0.00     0.048 A 
HETATM    6  C   UNL     1     -43.072  55.923 -56.801  1.00  0.00     0.064 A 
HETATM    7  C   UNL     1     -42.959  54.894 -55.775  1.00  0.00     0.277 A 
HETATM    8  O   UNL     1     -43.248  53.723 -56.002  1.00  0.00    -0.266 OA
HETATM    9  S   UNL     1     -42.887  58.276 -57.792  1.00  0.00    -0.086 SA
HETATM   10  C   UNL     1     -43.497  57.034 -58.819  1.00  0.00     0.017 A 
HETATM   11  C   UNL     1     -43.543  55.800 -58.158  1.00  0.00    -0.002 A 
HETATM   12  C   UNL     1     -43.912  57.175 -60.159  1.00  0.00     0.020 A 
HETATM   13  C   UNL     1     -44.377  56.053 -60.845  1.00  0.00     0.001 A 
HETATM   14  C   UNL     1     -44.432  54.817 -60.217  1.00  0.00     0.001 A 
HETATM   15  C   UNL     1     -44.022  54.682 -58.888  1.00  0.00     0.014 A 
ENDROOT
BRANCH   1  16
HETATM   16  C   UNL     1     -42.311  54.344 -53.447  1.00  0.00     0.205 C 
BRANCH  16  17
HETATM   17  C   UNL     1     -40.853  53.858 -53.350  1.00  0.00     0.032 C 
HETATM   18  C   UNL     1     -40.564  52.545 -54.064  1.00  0.00     0.007 C 
ENDBRANCH  16  17
BRANCH  16  19
HETATM   19  C   UNL     1     -42.873  54.684 -52.048  1.00  0.00     0.242 C 
HETATM   20  N   UNL     1     -43.729  55.755 -51.994  1.00  0.00    -0.359 N 
HETATM   21  H   UNL     1     -43.943  56.200 -52.884  1.00  0.00     0.162 HD
HETATM   22  O   UNL     1     -42.476  54.105 -51.038  1.00  0.00    -0.271 OA
BRANCH  20  23
HETATM   23  C   UNL     1     -44.317  56.256 -50.769  1.00  0.00     0.125 C 
BRANCH  23  24
HETATM   24  C   UNL     1     -44.668  57.739 -50.867  1.00  0.00     0.046 C 
BRANCH  24  25
HETATM   25  C   UNL     1     -43.528  58.553 -51.472  1.00  0.00     0.169 C 
BRANCH  25  26
HETATM   26  O   UNL     1     -42.283  58.020 -51.032  1.00  0.00    -0.387 OA
BRANCH  26  27
HETATM   27  C   UNL     1     -41.335  59.008 -50.621  1.00  0.00     0.113 C 
HETATM   28  C   UNL     1     -40.117  59.016 -51.539  1.00  0.00     0.039 C 
HETATM   29  C   UNL     1     -42.050  60.354 -50.684  1.00  0.00     0.039 C 
ENDBRANCH  26  27
ENDBRANCH  25  26
ENDBRANCH  24  25
ENDBRANCH  23  24
ENDBRANCH  20  23
ENDBRANCH  16  19
ENDBRANCH   1  16
TORSDOF 8
ENDMDL
MODEL 9
REMARK VINA RESULT:      -7.2      4.499      7.729
REMARK  8 active torsions:
REMARK  status: ('A' for Active; 'I' for Inactive)
REMARK    1  A    between atoms: C_2  and  C_3 
REMARK    2  A    between atoms: C_3  and  N_4 
REMARK    3  A    between atoms: C_3  and  C_19 
REMARK       I    between atoms: C_19  and  N_20 
REMARK    4  A    between atoms: N_20  and  C_21 
REMARK    5  A    between atoms: C_21  and  C_22 
REMARK    6  A    between atoms: C_22  and  C_23 
REMARK    7  A    between atoms: C_23  and  O_24 
REMARK    8  A    between atoms: O_24  and  C_25 
ROOT
HETATM    1  N   UNL     1     -42.106  56.700 -52.144  1.00  0.00    -0.220 N 
HETATM    2  N   UNL     1     -42.247  57.020 -53.504  1.00  0.00    -0.172 NA
HETATM    3  C   UNL     1     -41.886  56.152 -54.409  1.00  0.00     0.069 A 
HETATM    4  C   UNL     1     -42.070  56.514 -55.859  1.00  0.00     0.074 C 
HETATM    5  C   UNL     1     -41.330  54.885 -54.020  1.00  0.00     0.048 A 
HETATM    6  C   UNL     1     -41.137  54.551 -52.704  1.00  0.00     0.064 A 
HETATM    7  C   UNL     1     -41.514  55.505 -51.670  1.00  0.00     0.277 A 
HETATM    8  O   UNL     1     -41.322  55.275 -50.479  1.00  0.00    -0.266 OA
HETATM    9  S   UNL     1     -40.850  53.673 -55.092  1.00  0.00    -0.086 SA
HETATM   10  C   UNL     1     -40.345  52.642 -53.807  1.00  0.00     0.017 A 
HETATM   11  C   UNL     1     -40.552  53.242 -52.558  1.00  0.00    -0.002 A 
HETATM   12  C   UNL     1     -39.787  51.353 -53.928  1.00  0.00     0.020 A 
HETATM   13  C   UNL     1     -39.430  50.658 -52.772  1.00  0.00     0.001 A 
HETATM   14  C   UNL     1     -39.620  51.228 -51.522  1.00  0.00     0.001 A 
HETATM   15  C   UNL     1     -40.176  52.504 -51.406  1.00  0.00     0.014 A 
ENDROOT
BRANCH   1  16
HETATM   16  C   UNL     1     -42.470  57.730 -51.144  1.00  0.00     0.205 C 
BRANCH  16  17
HETATM   17  C   UNL     1     -41.699  59.046 -51.361  1.00  0.00     0.032 C 
HETATM   18  C   UNL     1     -40.318  59.093 -50.723  1.00  0.00     0.007 C 
ENDBRANCH  16  17
BRANCH  16  19
HETATM   19  C   UNL     1     -43.975  58.005 -50.920  1.00  0.00     0.242 C 
HETATM   20  N   UNL     1     -44.307  59.302 -50.621  1.00  0.00    -0.359 N 
HETATM   21  H   UNL     1     -43.536  59.968 -50.613  1.00  0.00     0.162 HD
HETATM   22  O   UNL     1     -44.797  57.090 -50.892  1.00  0.00    -0.271 OA
BRANCH  20  23
HETATM   23  C   UNL     1     -45.655  59.744 -50.330  1.00  0.00     0.125 C 
BRANCH  23  24
HETATM   24  C   UNL     1     -45.688  61.181 -49.815  1.00  0.00     0.046 C 
BRANCH  24  25
HETATM   25  C   UNL     1     -45.516  61.244 -48.300  1.00  0.00     0.169 C 
BRANCH  25  26
HETATM   26  O   UNL     1     -46.778  61.504 -47.693  1.00  0.00    -0.387 OA
BRANCH  26  27
HETATM   27  C   UNL     1     -46.696  61.926 -46.329  1.00  0.00     0.113 C 
HETATM   28  C   UNL     1     -45.249  61.951 -45.848  1.00  0.00     0.039 C 
HETATM   29  C   UNL     1     -47.296  63.327 -46.268  1.00  0.00     0.039 C 
ENDBRANCH  26  27
ENDBRANCH  25  26
ENDBRANCH  24  25
ENDBRANCH  23  24
ENDBRANCH  20  23
ENDBRANCH  16  19
ENDBRANCH   1  16
TORSDOF 8
ENDMDL
MODEL 10
REMARK VINA RESULT:      -7.0      1.779      2.991
REMARK  8 active torsions:
REMARK  status: ('A' for Active; 'I' for Inactive)
REMARK    1  A    between atoms: C_2  and  C_3 
REMARK    2  A    between atoms: C_3  and  N_4 
REMARK    3  A    between atoms: C_3  and  C_19 
REMARK       I    between atoms: C_19  and  N_20 
REMARK    4  A    between atoms: N_20  and  C_21 
REMARK    5  A    between atoms: C_21  and  C_22 
REMARK    6  A    between atoms: C_22  and  C_23 
REMARK    7  A    between atoms: C_23  and  O_24 
REMARK    8  A    between atoms: O_24  and  C_25 
ROOT
HETATM    1  N   UNL     1     -42.634  56.163 -54.342  1.00  0.00    -0.220 N 
HETATM    2  N   UNL     1     -42.499  56.807 -53.101  1.00  0.00    -0.172 NA
HETATM    3  C   UNL     1     -41.861  56.209 -52.133  1.00  0.00     0.069 A 
HETATM    4  C   UNL     1     -41.712  56.934 -50.822  1.00  0.00     0.074 C 
HETATM    5  C   UNL     1     -41.315  54.894 -52.326  1.00  0.00     0.048 A 
HETATM    6  C   UNL     1     -41.462  54.214 -53.508  1.00  0.00     0.064 A 
HETATM    7  C   UNL     1     -42.184  54.847 -54.604  1.00  0.00     0.277 A 
HETATM    8  O   UNL     1     -42.382  54.266 -55.667  1.00  0.00    -0.266 OA
HETATM    9  S   UNL     1     -40.450  54.028 -51.164  1.00  0.00    -0.086 SA
HETATM   10  C   UNL     1     -40.247  52.681 -52.218  1.00  0.00     0.017 A 
HETATM   11  C   UNL     1     -40.849  52.910 -53.463  1.00  0.00    -0.002 A 
HETATM   12  C   UNL     1     -39.576  51.476 -51.929  1.00  0.00     0.020 A 
HETATM   13  C   UNL     1     -39.512  50.484 -52.908  1.00  0.00     0.001 A 
HETATM   14  C   UNL     1     -40.101  50.680 -54.148  1.00  0.00     0.001 A 
HETATM   15  C   UNL     1     -40.764  51.878 -54.432  1.00  0.00     0.014 A 
ENDROOT
BRANCH   1  16
HETATM   16  C   UNL     1     -43.415  56.845 -55.400  1.00  0.00     0.205 C 
BRANCH  16  17
HETATM   17  C   UNL     1     -44.676  57.529 -54.839  1.00  0.00     0.032 C 
HETATM   18  C   UNL     1     -45.577  58.172 -55.883  1.00  0.00     0.007 C 
ENDBRANCH  16  17
BRANCH  16  19
HETATM   19  C   UNL     1     -42.651  57.794 -56.351  1.00  0.00     0.242 C 
HETATM   20  N   UNL     1     -42.482  57.343 -57.636  1.00  0.00    -0.359 N 
HETATM   21  H   UNL     1     -42.908  56.444 -57.851  1.00  0.00     0.162 HD
HETATM   22  O   UNL     1     -42.126  58.828 -55.940  1.00  0.00    -0.271 OA
BRANCH  20  23
HETATM   23  C   UNL     1     -41.751  58.066 -58.655  1.00  0.00     0.125 C 
BRANCH  23  24
HETATM   24  C   UNL     1     -42.592  58.298 -59.907  1.00  0.00     0.046 C 
BRANCH  24  25
HETATM   25  C   UNL     1     -42.151  59.548 -60.663  1.00  0.00     0.169 C 
BRANCH  25  26
HETATM   26  O   UNL     1     -42.333  60.690 -59.833  1.00  0.00    -0.387 OA
BRANCH  26  27
HETATM   27  C   UNL     1     -41.241  61.613 -59.859  1.00  0.00     0.113 C 
HETATM   28  C   UNL     1     -41.658  62.940 -60.486  1.00  0.00     0.039 C 
HETATM   29  C   UNL     1     -40.814  61.826 -58.410  1.00  0.00     0.039 C 
ENDBRANCH  26  27
ENDBRANCH  25  26
ENDBRANCH  24  25
ENDBRANCH  23  24
ENDBRANCH  20  23
ENDBRANCH  16  19
ENDBRANCH   1  16
TORSDOF 8
ENDMDL
