MODEL 1
REMARK VINA RESULT:      -8.0      0.000      0.000
REMARK  8 active torsions:
REMARK  status: ('A' for Active; 'I' for Inactive)
REMARK    1  A    between atoms: C_7  and  C_8 
REMARK       I    between atoms: C_8  and  N_9 
REMARK    2  A    between atoms: N_9  and  C_10 
REMARK    3  A    between atoms: C_13  and  C_14 
REMARK       I    between atoms: C_14  and  N_15 
REMARK    4  A    between atoms: N_15  and  C_16 
REMARK    5  A    between atoms: C_16  and  C_17 
REMARK    6  A    between atoms: C_17  and  C_18 
REMARK    7  A    between atoms: C_20  and  O_21 
REMARK    8  A    between atoms: C_23  and  O_24 
ROOT
HETATM    1  C   UNL     1     -43.819  60.900 -50.528  1.00  0.00     0.035 A 
HETATM    2  C   UNL     1     -44.291  60.461 -51.766  1.00  0.00     0.030 A 
HETATM    3  C   UNL     1     -43.457  59.745 -52.635  1.00  0.00     0.019 A 
HETATM    4  C   UNL     1     -42.140  59.458 -52.265  1.00  0.00     0.032 A 
HETATM    5  C   UNL     1     -41.647  59.938 -51.048  1.00  0.00     0.019 A 
HETATM    6  C   UNL     1     -42.484  60.650 -50.184  1.00  0.00     0.030 A 
ENDROOT
BRANCH   4   7
HETATM    7  C   UNL     1     -41.244  58.634 -53.121  1.00  0.00     0.251 C 
HETATM    8  N   UNL     1     -41.645  57.329 -53.328  1.00  0.00    -0.357 N 
HETATM    9  H   UNL     1     -42.348  56.956 -52.700  1.00  0.00     0.162 HD
HETATM   10  O   UNL     1     -40.195  59.099 -53.550  1.00  0.00    -0.268 OA
BRANCH   8  11
HETATM   11  C   UNL     1     -40.736  56.369 -53.927  1.00  0.00     0.127 C 
BRANCH  11  12
HETATM   12  C   UNL     1     -41.403  55.019 -54.209  1.00  0.00     0.058 C 
BRANCH  12  13
HETATM   13  C   UNL     1     -40.813  53.853 -53.442  1.00  0.00    -0.054 A 
HETATM   14  C   UNL     1     -40.796  53.841 -52.039  1.00  0.00     0.046 A 
HETATM   15  C   UNL     1     -40.249  52.758 -51.335  1.00  0.00     0.102 A 
HETATM   16  C   UNL     1     -39.684  51.680 -52.044  1.00  0.00     0.101 A 
HETATM   17  C   UNL     1     -39.694  51.696 -53.442  1.00  0.00     0.040 A 
HETATM   18  C   UNL     1     -40.253  52.773 -54.133  1.00  0.00     0.010 A 
BRANCH  15  19
HETATM   19  O   UNL     1     -40.204  52.667 -49.966  1.00  0.00    -0.353 OA
HETATM   20  C   UNL     1     -40.104  53.876 -49.227  1.00  0.00     0.210 C 
ENDBRANCH  15  19
BRANCH  16  21
HETATM   21  O   UNL     1     -39.162  50.663 -51.284  1.00  0.00    -0.353 OA
HETATM   22  C   UNL     1     -39.925  49.470 -51.171  1.00  0.00     0.210 C 
ENDBRANCH  16  21
ENDBRANCH  12  13
ENDBRANCH  11  12
ENDBRANCH   8  11
ENDBRANCH   4   7
BRANCH   1  23
HETATM   23  N   UNL     1     -44.613  61.564 -49.574  1.00  0.00    -0.322 N 
HETATM   24  C   UNL     1     -45.557  61.023 -48.719  1.00  0.00     0.265 C 
HETATM   25  O   UNL     1     -45.918  59.852 -48.721  1.00  0.00    -0.267 OA
HETATM   26  H   UNL     1     -44.466  62.564 -49.474  1.00  0.00     0.169 HD
BRANCH  24  27
HETATM   27  C   UNL     1     -46.135  62.034 -47.731  1.00  0.00     0.097 C 
HETATM   28  C   UNL     1     -45.805  61.999 -46.415  1.00  0.00     0.064 C 
HETATM   29  C   UNL     1     -44.800  61.042 -45.826  1.00  0.00     0.078 C 
HETATM   30  O   UNL     1     -46.298  62.851 -45.437  1.00  0.00    -0.353 OA
HETATM   31  C   UNL     1     -47.496  63.562 -45.743  1.00  0.00     0.185 C 
HETATM   32  C   UNL     1     -47.344  64.374 -47.011  1.00  0.00     0.106 C 
HETATM   33  S   UNL     1     -47.224  63.231 -48.408  1.00  0.00    -0.120 SA
ENDBRANCH  24  27
ENDBRANCH   1  23
TORSDOF 8
ENDMDL
MODEL 2
REMARK VINA RESULT:      -8.0      2.034      2.565
REMARK  8 active torsions:
REMARK  status: ('A' for Active; 'I' for Inactive)
REMARK    1  A    between atoms: C_7  and  C_8 
REMARK       I    between atoms: C_8  and  N_9 
REMARK    2  A    between atoms: N_9  and  C_10 
REMARK    3  A    between atoms: C_13  and  C_14 
REMARK       I    between atoms: C_14  and  N_15 
REMARK    4  A    between atoms: N_15  and  C_16 
REMARK    5  A    between atoms: C_16  and  C_17 
REMARK    6  A    between atoms: C_17  and  C_18 
REMARK    7  A    between atoms: C_20  and  O_21 
REMARK    8  A    between atoms: C_23  and  O_24 
ROOT
HETATM    1  C   UNL     1     -45.036  58.750 -51.290  1.00  0.00     0.035 A 
HETATM    2  C   UNL     1     -44.395  57.524 -51.110  1.00  0.00     0.030 A 
HETATM    3  C   UNL     1     -43.925  56.794 -52.209  1.00  0.00     0.019 A 
HETATM    4  C   UNL     1     -44.092  57.293 -53.505  1.00  0.00     0.032 A 
HETATM    5  C   UNL     1     -44.777  58.497 -53.696  1.00  0.00     0.019 A 
HETATM    6  C   UNL     1     -45.241  59.222 -52.594  1.00  0.00     0.030 A 
ENDROOT
BRANCH   4   7
HETATM    7  C   UNL     1     -43.540  56.591 -54.695  1.00  0.00     0.251 C 
HETATM    8  N   UNL     1     -43.336  55.233 -54.550  1.00  0.00    -0.357 N 
HETATM    9  H   UNL     1     -43.326  54.865 -53.606  1.00  0.00     0.162 HD
HETATM   10  O   UNL     1     -43.241  57.219 -55.703  1.00  0.00    -0.268 OA
BRANCH   8  11
HETATM   11  C   UNL     1     -42.575  54.495 -55.542  1.00  0.00     0.127 C 
BRANCH  11  12
HETATM   12  C   UNL     1     -41.071  54.492 -55.252  1.00  0.00     0.058 C 
BRANCH  12  13
HETATM   13  C   UNL     1     -40.650  53.580 -54.118  1.00  0.00    -0.054 A 
HETATM   14  C   UNL     1     -40.605  54.041 -52.793  1.00  0.00     0.046 A 
HETATM   15  C   UNL     1     -40.215  53.191 -51.748  1.00  0.00     0.102 A 
HETATM   16  C   UNL     1     -39.836  51.865 -52.033  1.00  0.00     0.101 A 
HETATM   17  C   UNL     1     -39.874  51.408 -53.354  1.00  0.00     0.040 A 
HETATM   18  C   UNL     1     -40.277  52.259 -54.385  1.00  0.00     0.010 A 
BRANCH  15  19
HETATM   19  O   UNL     1     -40.155  53.564 -50.428  1.00  0.00    -0.353 OA
HETATM   20  C   UNL     1     -40.553  54.886 -50.097  1.00  0.00     0.210 C 
ENDBRANCH  15  19
BRANCH  16  21
HETATM   21  O   UNL     1     -39.460  51.099 -50.958  1.00  0.00    -0.353 OA
HETATM   22  C   UNL     1     -39.606  49.690 -51.073  1.00  0.00     0.210 C 
ENDBRANCH  16  21
ENDBRANCH  12  13
ENDBRANCH  11  12
ENDBRANCH   8  11
ENDBRANCH   4   7
BRANCH   1  23
HETATM   23  N   UNL     1     -45.475  59.572 -50.235  1.00  0.00    -0.322 N 
HETATM   24  C   UNL     1     -44.847  60.681 -49.697  1.00  0.00     0.265 C 
HETATM   25  O   UNL     1     -43.732  61.081 -50.013  1.00  0.00    -0.267 OA
HETATM   26  H   UNL     1     -46.375  59.348 -49.826  1.00  0.00     0.169 HD
BRANCH  24  27
HETATM   27  C   UNL     1     -45.681  61.400 -48.639  1.00  0.00     0.097 C 
HETATM   28  C   UNL     1     -46.545  62.391 -48.978  1.00  0.00     0.064 C 
HETATM   29  C   UNL     1     -46.824  62.812 -50.399  1.00  0.00     0.078 C 
HETATM   30  O   UNL     1     -47.322  63.122 -48.092  1.00  0.00    -0.353 OA
HETATM   31  C   UNL     1     -46.930  63.103 -46.721  1.00  0.00     0.185 C 
HETATM   32  C   UNL     1     -46.854  61.688 -46.191  1.00  0.00     0.106 C 
HETATM   33  S   UNL     1     -45.459  60.856 -46.986  1.00  0.00    -0.120 SA
ENDBRANCH  24  27
ENDBRANCH   1  23
TORSDOF 8
ENDMDL
MODEL 3
REMARK VINA RESULT:      -7.5      1.680      2.392
REMARK  8 active torsions:
REMARK  status: ('A' for Active; 'I' for Inactive)
REMARK    1  A    between atoms: C_7  and  C_8 
REMARK       I    between atoms: C_8  and  N_9 
REMARK    2  A    between atoms: N_9  and  C_10 
REMARK    3  A    between atoms: C_13  and  C_14 
REMARK       I    between atoms: C_14  and  N_15 
REMARK    4  A    between atoms: N_15  and  C_16 
REMARK    5  A    between atoms: C_16  and  C_17 
REMARK    6  A    between atoms: C_17  and  C_18 
REMARK    7  A    between atoms: C_20  and  O_21 
REMARK    8  A    between atoms: C_23  and  O_24 
ROOT
HETATM    1  C   UNL     1     -43.524  60.200 -50.543  1.00  0.00     0.035 A 
HETATM    2  C   UNL     1     -44.296  59.194 -51.124  1.00  0.00     0.030 A 
HETATM    3  C   UNL     1     -43.766  58.377 -52.130  1.00  0.00     0.019 A 
HETATM    4  C   UNL     1     -42.448  58.559 -52.560  1.00  0.00     0.032 A 
HETATM    5  C   UNL     1     -41.685  59.597 -52.017  1.00  0.00     0.019 A 
HETATM    6  C   UNL     1     -42.220  60.409 -51.011  1.00  0.00     0.030 A 
ENDROOT
BRANCH   4   7
HETATM    7  C   UNL     1     -41.818  57.665 -53.569  1.00  0.00     0.251 C 
HETATM    8  N   UNL     1     -42.687  57.030 -54.434  1.00  0.00    -0.357 N 
HETATM    9  H   UNL     1     -43.666  57.007 -54.172  1.00  0.00     0.162 HD
HETATM   10  O   UNL     1     -40.607  57.480 -53.565  1.00  0.00    -0.268 OA
BRANCH   8  11
HETATM   11  C   UNL     1     -42.218  55.952 -55.285  1.00  0.00     0.127 C 
BRANCH  11  12
HETATM   12  C   UNL     1     -42.760  54.583 -54.860  1.00  0.00     0.058 C 
BRANCH  12  13
HETATM   13  C   UNL     1     -41.853  53.810 -53.925  1.00  0.00    -0.054 A 
HETATM   14  C   UNL     1     -40.982  52.822 -54.410  1.00  0.00     0.046 A 
HETATM   15  C   UNL     1     -40.145  52.110 -53.539  1.00  0.00     0.102 A 
HETATM   16  C   UNL     1     -40.198  52.368 -52.155  1.00  0.00     0.101 A 
HETATM   17  C   UNL     1     -41.072  53.346 -51.671  1.00  0.00     0.040 A 
HETATM   18  C   UNL     1     -41.891  54.059 -52.549  1.00  0.00     0.010 A 
BRANCH  15  19
HETATM   19  O   UNL     1     -39.261  51.138 -53.936  1.00  0.00    -0.353 OA
HETATM   20  C   UNL     1     -39.797  49.929 -54.453  1.00  0.00     0.210 C 
ENDBRANCH  15  19
BRANCH  16  21
HETATM   21  O   UNL     1     -39.355  51.624 -51.368  1.00  0.00    -0.353 OA
HETATM   22  C   UNL     1     -39.926  50.563 -50.614  1.00  0.00     0.210 C 
ENDBRANCH  16  21
ENDBRANCH  12  13
ENDBRANCH  11  12
ENDBRANCH   8  11
ENDBRANCH   4   7
BRANCH   1  23
HETATM   23  N   UNL     1     -43.961  61.016 -49.482  1.00  0.00    -0.322 N 
HETATM   24  C   UNL     1     -44.815  62.104 -49.536  1.00  0.00     0.265 C 
HETATM   25  O   UNL     1     -45.270  62.591 -50.564  1.00  0.00    -0.267 OA
HETATM   26  H   UNL     1     -43.635  60.771 -48.553  1.00  0.00     0.169 HD
BRANCH  24  27
HETATM   27  C   UNL     1     -45.163  62.673 -48.162  1.00  0.00     0.097 C 
HETATM   28  C   UNL     1     -44.631  63.844 -47.730  1.00  0.00     0.064 C 
HETATM   29  C   UNL     1     -43.736  64.720 -48.570  1.00  0.00     0.078 C 
HETATM   30  O   UNL     1     -44.860  64.426 -46.492  1.00  0.00    -0.353 OA
HETATM   31  C   UNL     1     -45.379  63.582 -45.467  1.00  0.00     0.185 C 
HETATM   32  C   UNL     1     -46.670  62.922 -45.899  1.00  0.00     0.106 C 
HETATM   33  S   UNL     1     -46.290  61.730 -47.204  1.00  0.00    -0.120 SA
ENDBRANCH  24  27
ENDBRANCH   1  23
TORSDOF 8
ENDMDL
MODEL 4
REMARK VINA RESULT:      -7.3      5.824      9.597
REMARK  8 active torsions:
REMARK  status: ('A' for Active; 'I' for Inactive)
REMARK    1  A    between atoms: C_7  and  C_8 
REMARK       I    between atoms: C_8  and  N_9 
REMARK    2  A    between atoms: N_9  and  C_10 
REMARK    3  A    between atoms: C_13  and  C_14 
REMARK       I    between atoms: C_14  and  N_15 
REMARK    4  A    between atoms: N_15  and  C_16 
REMARK    5  A    between atoms: C_16  and  C_17 
REMARK    6  A    between atoms: C_17  and  C_18 
REMARK    7  A    between atoms: C_20  and  O_21 
REMARK    8  A    between atoms: C_23  and  O_24 
ROOT
HETATM    1  C   UNL     1     -41.706  56.947 -54.372  1.00  0.00     0.035 A 
HETATM    2  C   UNL     1     -42.106  56.651 -55.676  1.00  0.00     0.030 A 
HETATM    3  C   UNL     1     -42.359  57.677 -56.595  1.00  0.00     0.019 A 
HETATM    4  C   UNL     1     -42.209  59.013 -56.214  1.00  0.00     0.032 A 
HETATM    5  C   UNL     1     -41.857  59.318 -54.896  1.00  0.00     0.019 A 
HETATM    6  C   UNL     1     -41.603  58.289 -53.983  1.00  0.00     0.030 A 
ENDROOT
BRANCH   4   7
HETATM    7  C   UNL     1     -42.390  60.132 -57.179  1.00  0.00     0.251 C 
HETATM    8  N   UNL     1     -43.642  60.232 -57.754  1.00  0.00    -0.357 N 
HETATM    9  H   UNL     1     -44.248  59.422 -57.687  1.00  0.00     0.162 HD
HETATM   10  O   UNL     1     -41.450  60.862 -57.468  1.00  0.00    -0.268 OA
BRANCH   8  11
HETATM   11  C   UNL     1     -43.862  61.115 -58.885  1.00  0.00     0.127 C 
BRANCH  11  12
HETATM   12  C   UNL     1     -43.702  60.403 -60.231  1.00  0.00     0.058 C 
BRANCH  12  13
HETATM   13  C   UNL     1     -44.100  58.941 -60.222  1.00  0.00    -0.054 A 
HETATM   14  C   UNL     1     -45.449  58.555 -60.216  1.00  0.00     0.046 A 
HETATM   15  C   UNL     1     -45.810  57.200 -60.207  1.00  0.00     0.102 A 
HETATM   16  C   UNL     1     -44.806  56.212 -60.177  1.00  0.00     0.101 A 
HETATM   17  C   UNL     1     -43.463  56.597 -60.175  1.00  0.00     0.040 A 
HETATM   18  C   UNL     1     -43.114  57.949 -60.197  1.00  0.00     0.010 A 
BRANCH  15  19
HETATM   19  O   UNL     1     -47.104  56.743 -60.211  1.00  0.00    -0.353 OA
HETATM   20  C   UNL     1     -47.804  56.750 -61.447  1.00  0.00     0.210 C 
ENDBRANCH  15  19
BRANCH  16  21
HETATM   21  O   UNL     1     -45.240  54.909 -60.162  1.00  0.00    -0.353 OA
HETATM   22  C   UNL     1     -44.472  53.971 -59.421  1.00  0.00     0.210 C 
ENDBRANCH  16  21
ENDBRANCH  12  13
ENDBRANCH  11  12
ENDBRANCH   8  11
ENDBRANCH   4   7
BRANCH   1  23
HETATM   23  N   UNL     1     -41.369  55.975 -53.412  1.00  0.00    -0.322 N 
HETATM   24  C   UNL     1     -42.071  54.834 -53.064  1.00  0.00     0.265 C 
HETATM   25  O   UNL     1     -43.177  54.530 -53.497  1.00  0.00    -0.267 OA
HETATM   26  H   UNL     1     -40.489  56.103 -52.922  1.00  0.00     0.169 HD
BRANCH  24  27
HETATM   27  C   UNL     1     -41.335  53.946 -52.064  1.00  0.00     0.097 C 
HETATM   28  C   UNL     1     -40.530  52.936 -52.480  1.00  0.00     0.064 C 
HETATM   29  C   UNL     1     -40.221  52.650 -53.928  1.00  0.00     0.078 C 
HETATM   30  O   UNL     1     -39.844  52.059 -51.653  1.00  0.00    -0.353 OA
HETATM   31  C   UNL     1     -40.292  51.960 -50.302  1.00  0.00     0.185 C 
HETATM   32  C   UNL     1     -40.291  53.311 -49.623  1.00  0.00     0.106 C 
HETATM   33  S   UNL     1     -41.588  54.325 -50.370  1.00  0.00    -0.120 SA
ENDBRANCH  24  27
ENDBRANCH   1  23
TORSDOF 8
ENDMDL
MODEL 5
REMARK VINA RESULT:      -7.2      5.714      9.566
REMARK  8 active torsions:
REMARK  status: ('A' for Active; 'I' for Inactive)
REMARK    1  A    between atoms: C_7  and  C_8 
REMARK       I    between atoms: C_8  and  N_9 
REMARK    2  A    between atoms: N_9  and  C_10 
REMARK    3  A    between atoms: C_13  and  C_14 
REMARK       I    between atoms: C_14  and  N_15 
REMARK    4  A    between atoms: N_15  and  C_16 
REMARK    5  A    between atoms: C_16  and  C_17 
REMARK    6  A    between atoms: C_17  and  C_18 
REMARK    7  A    between atoms: C_20  and  O_21 
REMARK    8  A    between atoms: C_23  and  O_24 
ROOT
HETATM    1  C   UNL     1     -43.380  57.233 -53.985  1.00  0.00     0.035 A 
HETATM    2  C   UNL     1     -44.363  58.042 -53.413  1.00  0.00     0.030 A 
HETATM    3  C   UNL     1     -45.080  58.955 -54.195  1.00  0.00     0.019 A 
HETATM    4  C   UNL     1     -44.819  59.063 -55.564  1.00  0.00     0.032 A 
HETATM    5  C   UNL     1     -43.802  58.292 -56.134  1.00  0.00     0.019 A 
HETATM    6  C   UNL     1     -43.090  57.379 -55.348  1.00  0.00     0.030 A 
ENDROOT
BRANCH   4   7
HETATM    7  C   UNL     1     -45.610  59.963 -56.448  1.00  0.00     0.251 C 
HETATM    8  N   UNL     1     -46.658  59.372 -57.124  1.00  0.00    -0.357 N 
HETATM    9  H   UNL     1     -46.661  58.360 -57.179  1.00  0.00     0.162 HD
HETATM   10  O   UNL     1     -45.286  61.136 -56.588  1.00  0.00    -0.268 OA
BRANCH   8  11
HETATM   11  C   UNL     1     -47.334  60.081 -58.194  1.00  0.00     0.127 C 
BRANCH  11  12
HETATM   12  C   UNL     1     -46.627  59.929 -59.545  1.00  0.00     0.058 C 
BRANCH  12  13
HETATM   13  C   UNL     1     -46.135  58.528 -59.843  1.00  0.00    -0.054 A 
HETATM   14  C   UNL     1     -44.767  58.255 -59.998  1.00  0.00     0.046 A 
HETATM   15  C   UNL     1     -44.318  56.955 -60.274  1.00  0.00     0.102 A 
HETATM   16  C   UNL     1     -45.254  55.914 -60.427  1.00  0.00     0.101 A 
HETATM   17  C   UNL     1     -46.617  56.186 -60.280  1.00  0.00     0.040 A 
HETATM   18  C   UNL     1     -47.052  57.482 -59.992  1.00  0.00     0.010 A 
BRANCH  15  19
HETATM   19  O   UNL     1     -42.999  56.608 -60.428  1.00  0.00    -0.353 OA
HETATM   20  C   UNL     1     -42.019  57.600 -60.162  1.00  0.00     0.210 C 
ENDBRANCH  15  19
BRANCH  16  21
HETATM   21  O   UNL     1     -44.737  54.672 -60.704  1.00  0.00    -0.353 OA
HETATM   22  C   UNL     1     -44.778  53.699 -59.670  1.00  0.00     0.210 C 
ENDBRANCH  16  21
ENDBRANCH  12  13
ENDBRANCH  11  12
ENDBRANCH   8  11
ENDBRANCH   4   7
BRANCH   1  23
HETATM   23  N   UNL     1     -42.665  56.245 -53.281  1.00  0.00    -0.322 N 
HETATM   24  C   UNL     1     -42.825  54.872 -53.332  1.00  0.00     0.265 C 
HETATM   25  O   UNL     1     -43.704  54.289 -53.959  1.00  0.00    -0.267 OA
HETATM   26  H   UNL     1     -41.918  56.568 -52.674  1.00  0.00     0.169 HD
BRANCH  24  27
HETATM   27  C   UNL     1     -41.783  54.106 -52.520  1.00  0.00     0.097 C 
HETATM   28  C   UNL     1     -40.777  53.428 -53.128  1.00  0.00     0.064 C 
HETATM   29  C   UNL     1     -40.542  53.433 -54.618  1.00  0.00     0.078 C 
HETATM   30  O   UNL     1     -39.803  52.681 -52.483  1.00  0.00    -0.353 OA
HETATM   31  C   UNL     1     -40.077  52.284 -51.141  1.00  0.00     0.185 C 
HETATM   32  C   UNL     1     -40.378  53.479 -50.265  1.00  0.00     0.106 C 
HETATM   33  S   UNL     1     -41.968  54.173 -50.777  1.00  0.00    -0.120 SA
ENDBRANCH  24  27
ENDBRANCH   1  23
TORSDOF 8
ENDMDL
MODEL 6
REMARK VINA RESULT:      -7.2      4.871      7.989
REMARK  8 active torsions:
REMARK  status: ('A' for Active; 'I' for Inactive)
REMARK    1  A    between atoms: C_7  and  C_8 
REMARK       I    between atoms: C_8  and  N_9 
REMARK    2  A    between atoms: N_9  and  C_10 
REMARK    3  A    between atoms: C_13  and  C_14 
REMARK       I    between atoms: C_14  and  N_15 
REMARK    4  A    between atoms: N_15  and  C_16 
REMARK    5  A    between atoms: C_16  and  C_17 
REMARK    6  A    between atoms: C_17  and  C_18 
REMARK    7  A    between atoms: C_20  and  O_21 
REMARK    8  A    between atoms: C_23  and  O_24 
ROOT
HETATM    1  C   UNL     1     -41.987  59.322 -55.430  1.00  0.00     0.035 A 
HETATM    2  C   UNL     1     -42.100  60.246 -54.391  1.00  0.00     0.030 A 
HETATM    3  C   UNL     1     -41.972  59.841 -53.057  1.00  0.00     0.019 A 
HETATM    4  C   UNL     1     -41.723  58.500 -52.752  1.00  0.00     0.032 A 
HETATM    5  C   UNL     1     -41.656  57.560 -53.785  1.00  0.00     0.019 A 
HETATM    6  C   UNL     1     -41.783  57.971 -55.116  1.00  0.00     0.030 A 
ENDROOT
BRANCH   4   7
HETATM    7  C   UNL     1     -41.501  58.039 -51.354  1.00  0.00     0.251 C 
HETATM    8  N   UNL     1     -41.305  56.682 -51.194  1.00  0.00    -0.357 N 
HETATM    9  H   UNL     1     -41.573  56.081 -51.964  1.00  0.00     0.162 HD
HETATM   10  O   UNL     1     -41.556  58.832 -50.423  1.00  0.00    -0.268 OA
BRANCH   8  11
HETATM   11  C   UNL     1     -41.331  56.088 -49.869  1.00  0.00     0.127 C 
BRANCH  11  12
HETATM   12  C   UNL     1     -41.809  54.633 -49.882  1.00  0.00     0.058 C 
BRANCH  12  13
HETATM   13  C   UNL     1     -41.238  53.793 -51.006  1.00  0.00    -0.054 A 
HETATM   14  C   UNL     1     -41.795  53.826 -52.293  1.00  0.00     0.046 A 
HETATM   15  C   UNL     1     -41.261  53.045 -53.329  1.00  0.00     0.102 A 
HETATM   16  C   UNL     1     -40.169  52.195 -53.069  1.00  0.00     0.101 A 
HETATM   17  C   UNL     1     -39.619  52.156 -51.785  1.00  0.00     0.040 A 
HETATM   18  C   UNL     1     -40.150  52.948 -50.764  1.00  0.00     0.010 A 
BRANCH  15  19
HETATM   19  O   UNL     1     -41.743  53.030 -54.615  1.00  0.00    -0.353 OA
HETATM   20  C   UNL     1     -42.550  54.123 -55.031  1.00  0.00     0.210 C 
ENDBRANCH  15  19
BRANCH  16  21
HETATM   21  O   UNL     1     -39.710  51.458 -54.132  1.00  0.00    -0.353 OA
HETATM   22  C   UNL     1     -39.894  50.050 -54.083  1.00  0.00     0.210 C 
ENDBRANCH  16  21
ENDBRANCH  12  13
ENDBRANCH  11  12
ENDBRANCH   8  11
ENDBRANCH   4   7
BRANCH   1  23
HETATM   23  N   UNL     1     -42.036  59.660 -56.795  1.00  0.00    -0.322 N 
HETATM   24  C   UNL     1     -43.070  59.454 -57.692  1.00  0.00     0.265 C 
HETATM   25  O   UNL     1     -44.106  58.847 -57.444  1.00  0.00    -0.267 OA
HETATM   26  H   UNL     1     -41.226  60.138 -57.177  1.00  0.00     0.169 HD
BRANCH  24  27
HETATM   27  C   UNL     1     -42.815  60.067 -59.067  1.00  0.00     0.097 C 
HETATM   28  C   UNL     1     -42.251  59.341 -60.067  1.00  0.00     0.064 C 
HETATM   29  C   UNL     1     -41.909  57.878 -59.951  1.00  0.00     0.078 C 
HETATM   30  O   UNL     1     -41.953  59.813 -61.336  1.00  0.00    -0.353 OA
HETATM   31  C   UNL     1     -41.880  61.228 -61.499  1.00  0.00     0.185 C 
HETATM   32  C   UNL     1     -43.163  61.899 -61.061  1.00  0.00     0.106 C 
HETATM   33  S   UNL     1     -43.305  61.739 -59.265  1.00  0.00    -0.120 SA
ENDBRANCH  24  27
ENDBRANCH   1  23
TORSDOF 8
ENDMDL
MODEL 7
REMARK VINA RESULT:      -7.1      6.819      9.626
REMARK  8 active torsions:
REMARK  status: ('A' for Active; 'I' for Inactive)
REMARK    1  A    between atoms: C_7  and  C_8 
REMARK       I    between atoms: C_8  and  N_9 
REMARK    2  A    between atoms: N_9  and  C_10 
REMARK    3  A    between atoms: C_13  and  C_14 
REMARK       I    between atoms: C_14  and  N_15 
REMARK    4  A    between atoms: N_15  and  C_16 
REMARK    5  A    between atoms: C_16  and  C_17 
REMARK    6  A    between atoms: C_17  and  C_18 
REMARK    7  A    between atoms: C_20  and  O_21 
REMARK    8  A    between atoms: C_23  and  O_24 
ROOT
HETATM    1  C   UNL     1     -42.066  58.977 -59.823  1.00  0.00     0.035 A 
HETATM    2  C   UNL     1     -42.553  57.755 -60.290  1.00  0.00     0.030 A 
HETATM    3  C   UNL     1     -42.934  56.748 -59.394  1.00  0.00     0.019 A 
HETATM    4  C   UNL     1     -42.835  56.962 -58.016  1.00  0.00     0.032 A 
HETATM    5  C   UNL     1     -42.303  58.165 -57.542  1.00  0.00     0.019 A 
HETATM    6  C   UNL     1     -41.925  59.167 -58.442  1.00  0.00     0.030 A 
ENDROOT
BRANCH   4   7
HETATM    7  C   UNL     1     -43.302  55.951 -57.027  1.00  0.00     0.251 C 
HETATM    8  N   UNL     1     -43.717  56.451 -55.809  1.00  0.00    -0.357 N 
HETATM    9  H   UNL     1     -43.443  57.399 -55.580  1.00  0.00     0.162 HD
HETATM   10  O   UNL     1     -43.250  54.756 -57.290  1.00  0.00    -0.268 OA
BRANCH   8  11
HETATM   11  C   UNL     1     -43.950  55.555 -54.691  1.00  0.00     0.127 C 
BRANCH  11  12
HETATM   12  C   UNL     1     -42.910  55.714 -53.578  1.00  0.00     0.058 C 
BRANCH  12  13
HETATM   13  C   UNL     1     -41.992  54.523 -53.399  1.00  0.00    -0.054 A 
HETATM   14  C   UNL     1     -41.233  54.359 -52.230  1.00  0.00     0.046 A 
HETATM   15  C   UNL     1     -40.384  53.254 -52.072  1.00  0.00     0.102 A 
HETATM   16  C   UNL     1     -40.270  52.309 -53.109  1.00  0.00     0.101 A 
HETATM   17  C   UNL     1     -41.020  52.476 -54.277  1.00  0.00     0.040 A 
HETATM   18  C   UNL     1     -41.872  53.573 -54.419  1.00  0.00     0.010 A 
BRANCH  15  19
HETATM   19  O   UNL     1     -39.619  53.018 -50.956  1.00  0.00    -0.353 OA
HETATM   20  C   UNL     1     -40.189  53.315 -49.690  1.00  0.00     0.210 C 
ENDBRANCH  15  19
BRANCH  16  21
HETATM   21  O   UNL     1     -39.414  51.260 -52.881  1.00  0.00    -0.353 OA
HETATM   22  C   UNL     1     -39.581  50.093 -53.674  1.00  0.00     0.210 C 
ENDBRANCH  16  21
ENDBRANCH  12  13
ENDBRANCH  11  12
ENDBRANCH   8  11
ENDBRANCH   4   7
BRANCH   1  23
HETATM   23  N   UNL     1     -41.727  60.060 -60.656  1.00  0.00    -0.322 N 
HETATM   24  C   UNL     1     -42.270  61.333 -60.669  1.00  0.00     0.265 C 
HETATM   25  O   UNL     1     -43.221  61.699 -59.988  1.00  0.00    -0.267 OA
HETATM   26  H   UNL     1     -40.975  59.907 -61.319  1.00  0.00     0.169 HD
BRANCH  24  27
HETATM   27  C   UNL     1     -41.564  62.286 -61.632  1.00  0.00     0.097 C 
HETATM   28  C   UNL     1     -40.485  63.008 -61.240  1.00  0.00     0.064 C 
HETATM   29  C   UNL     1     -39.838  62.884 -59.884  1.00  0.00     0.078 C 
HETATM   30  O   UNL     1     -39.796  63.919 -62.027  1.00  0.00    -0.353 OA
HETATM   31  C   UNL     1     -40.468  64.413 -63.184  1.00  0.00     0.185 C 
HETATM   32  C   UNL     1     -40.909  63.282 -64.087  1.00  0.00     0.106 C 
HETATM   33  S   UNL     1     -42.228  62.369 -63.253  1.00  0.00    -0.120 SA
ENDBRANCH  24  27
ENDBRANCH   1  23
TORSDOF 8
ENDMDL
MODEL 8
REMARK VINA RESULT:      -7.1     19.066     21.634
REMARK  8 active torsions:
REMARK  status: ('A' for Active; 'I' for Inactive)
REMARK    1  A    between atoms: C_7  and  C_8 
REMARK       I    between atoms: C_8  and  N_9 
REMARK    2  A    between atoms: N_9  and  C_10 
REMARK    3  A    between atoms: C_13  and  C_14 
REMARK       I    between atoms: C_14  and  N_15 
REMARK    4  A    between atoms: N_15  and  C_16 
REMARK    5  A    between atoms: C_16  and  C_17 
REMARK    6  A    between atoms: C_17  and  C_18 
REMARK    7  A    between atoms: C_20  and  O_21 
REMARK    8  A    between atoms: C_23  and  O_24 
ROOT
HETATM    1  C   UNL     1     -32.826  39.958 -49.953  1.00  0.00     0.035 A 
HETATM    2  C   UNL     1     -32.105  40.294 -51.099  1.00  0.00     0.030 A 
HETATM    3  C   UNL     1     -32.759  40.494 -52.321  1.00  0.00     0.019 A 
HETATM    4  C   UNL     1     -34.148  40.362 -52.404  1.00  0.00     0.032 A 
HETATM    5  C   UNL     1     -34.871  39.977 -51.271  1.00  0.00     0.019 A 
HETATM    6  C   UNL     1     -34.213  39.781 -50.052  1.00  0.00     0.030 A 
ENDROOT
BRANCH   4   7
HETATM    7  C   UNL     1     -34.892  40.641 -53.662  1.00  0.00     0.251 C 
HETATM    8  N   UNL     1     -34.825  41.941 -54.123  1.00  0.00    -0.357 N 
HETATM    9  H   UNL     1     -34.509  42.648 -53.470  1.00  0.00     0.162 HD
HETATM   10  O   UNL     1     -35.560  39.764 -54.196  1.00  0.00    -0.268 OA
BRANCH   8  11
HETATM   11  C   UNL     1     -35.705  42.388 -55.187  1.00  0.00     0.127 C 
BRANCH  11  12
HETATM   12  C   UNL     1     -35.051  42.307 -56.570  1.00  0.00     0.058 C 
BRANCH  12  13
HETATM   13  C   UNL     1     -35.810  41.469 -57.578  1.00  0.00    -0.054 A 
HETATM   14  C   UNL     1     -35.552  40.097 -57.724  1.00  0.00     0.046 A 
HETATM   15  C   UNL     1     -36.259  39.327 -58.659  1.00  0.00     0.102 A 
HETATM   16  C   UNL     1     -37.222  39.942 -59.482  1.00  0.00     0.101 A 
HETATM   17  C   UNL     1     -37.474  41.310 -59.342  1.00  0.00     0.040 A 
HETATM   18  C   UNL     1     -36.774  42.065 -58.398  1.00  0.00     0.010 A 
BRANCH  15  19
HETATM   19  O   UNL     1     -36.071  37.981 -58.855  1.00  0.00    -0.353 OA
HETATM   20  C   UNL     1     -34.798  37.553 -59.317  1.00  0.00     0.210 C 
ENDBRANCH  15  19
BRANCH  16  21
HETATM   21  O   UNL     1     -37.865  39.123 -60.377  1.00  0.00    -0.353 OA
HETATM   22  C   UNL     1     -37.409  39.136 -61.723  1.00  0.00     0.210 C 
ENDBRANCH  16  21
ENDBRANCH  12  13
ENDBRANCH  11  12
ENDBRANCH   8  11
ENDBRANCH   4   7
BRANCH   1  23
HETATM   23  N   UNL     1     -32.252  39.808 -48.676  1.00  0.00    -0.322 N 
HETATM   24  C   UNL     1     -31.738  38.660 -48.099  1.00  0.00     0.265 C 
HETATM   25  O   UNL     1     -31.782  37.541 -48.597  1.00  0.00    -0.267 OA
HETATM   26  H   UNL     1     -32.178  40.645 -48.108  1.00  0.00     0.169 HD
BRANCH  24  27
HETATM   27  C   UNL     1     -31.082  38.903 -46.741  1.00  0.00     0.097 C 
HETATM   28  C   UNL     1     -31.714  38.575 -45.586  1.00  0.00     0.064 C 
HETATM   29  C   UNL     1     -33.052  37.881 -45.528  1.00  0.00     0.078 C 
HETATM   30  O   UNL     1     -31.217  38.783 -44.308  1.00  0.00    -0.353 OA
HETATM   31  C   UNL     1     -30.158  39.727 -44.171  1.00  0.00     0.185 C 
HETATM   32  C   UNL     1     -28.984  39.367 -45.056  1.00  0.00     0.106 C 
HETATM   33  S   UNL     1     -29.477  39.609 -46.780  1.00  0.00    -0.120 SA
ENDBRANCH  24  27
ENDBRANCH   1  23
TORSDOF 8
ENDMDL
MODEL 9
REMARK VINA RESULT:      -6.9      6.295      8.962
REMARK  8 active torsions:
REMARK  status: ('A' for Active; 'I' for Inactive)
REMARK    1  A    between atoms: C_7  and  C_8 
REMARK       I    between atoms: C_8  and  N_9 
REMARK    2  A    between atoms: N_9  and  C_10 
REMARK    3  A    between atoms: C_13  and  C_14 
REMARK       I    between atoms: C_14  and  N_15 
REMARK    4  A    between atoms: N_15  and  C_16 
REMARK    5  A    between atoms: C_16  and  C_17 
REMARK    6  A    between atoms: C_17  and  C_18 
REMARK    7  A    between atoms: C_20  and  O_21 
REMARK    8  A    between atoms: C_23  and  O_24 
ROOT
HETATM    1  C   UNL     1     -42.469  58.259 -58.281  1.00  0.00     0.035 A 
HETATM    2  C   UNL     1     -42.904  56.947 -58.474  1.00  0.00     0.030 A 
HETATM    3  C   UNL     1     -43.138  56.104 -57.380  1.00  0.00     0.019 A 
HETATM    4  C   UNL     1     -42.943  56.573 -56.078  1.00  0.00     0.032 A 
HETATM    5  C   UNL     1     -42.460  57.870 -55.879  1.00  0.00     0.019 A 
HETATM    6  C   UNL     1     -42.230  58.708 -56.975  1.00  0.00     0.030 A 
ENDROOT
BRANCH   4   7
HETATM    7  C   UNL     1     -43.254  55.739 -54.886  1.00  0.00     0.251 C 
HETATM    8  N   UNL     1     -43.213  56.391 -53.669  1.00  0.00    -0.357 N 
HETATM    9  H   UNL     1     -42.739  57.286 -53.640  1.00  0.00     0.162 HD
HETATM   10  O   UNL     1     -43.470  54.539 -55.007  1.00  0.00    -0.268 OA
BRANCH   8  11
HETATM   11  C   UNL     1     -43.248  55.635 -52.431  1.00  0.00     0.127 C 
BRANCH  11  12
HETATM   12  C   UNL     1     -41.925  55.696 -51.661  1.00  0.00     0.058 C 
BRANCH  12  13
HETATM   13  C   UNL     1     -41.184  54.378 -51.576  1.00  0.00    -0.054 A 
HETATM   14  C   UNL     1     -40.703  53.739 -52.729  1.00  0.00     0.046 A 
HETATM   15  C   UNL     1     -40.017  52.519 -52.643  1.00  0.00     0.102 A 
HETATM   16  C   UNL     1     -39.833  51.910 -51.386  1.00  0.00     0.101 A 
HETATM   17  C   UNL     1     -40.319  52.543 -50.239  1.00  0.00     0.040 A 
HETATM   18  C   UNL     1     -40.989  53.765 -50.334  1.00  0.00     0.010 A 
BRANCH  15  19
HETATM   19  O   UNL     1     -39.508  51.838 -53.721  1.00  0.00    -0.353 OA
HETATM   20  C   UNL     1     -40.370  50.934 -54.398  1.00  0.00     0.210 C 
ENDBRANCH  15  19
BRANCH  16  21
HETATM   21  O   UNL     1     -39.160  50.714 -51.386  1.00  0.00    -0.353 OA
HETATM   22  C   UNL     1     -39.850  49.573 -50.896  1.00  0.00     0.210 C 
ENDBRANCH  16  21
ENDBRANCH  12  13
ENDBRANCH  11  12
ENDBRANCH   8  11
ENDBRANCH   4   7
BRANCH   1  23
HETATM   23  N   UNL     1     -42.277  59.186 -59.322  1.00  0.00    -0.322 N 
HETATM   24  C   UNL     1     -43.037  60.302 -59.626  1.00  0.00     0.265 C 
HETATM   25  O   UNL     1     -44.080  60.618 -59.064  1.00  0.00    -0.267 OA
HETATM   26  H   UNL     1     -41.469  59.042 -59.918  1.00  0.00     0.169 HD
BRANCH  24  27
HETATM   27  C   UNL     1     -42.454  61.147 -60.757  1.00  0.00     0.097 C 
HETATM   28  C   UNL     1     -41.395  61.970 -60.546  1.00  0.00     0.064 C 
HETATM   29  C   UNL     1     -40.656  62.068 -59.236  1.00  0.00     0.078 C 
HETATM   30  O   UNL     1     -40.815  62.797 -61.497  1.00  0.00    -0.353 OA
HETATM   31  C   UNL     1     -41.589  63.090 -62.657  1.00  0.00     0.185 C 
HETATM   32  C   UNL     1     -42.020  61.825 -63.366  1.00  0.00     0.106 C 
HETATM   33  S   UNL     1     -43.225  60.971 -62.322  1.00  0.00    -0.120 SA
ENDBRANCH  24  27
ENDBRANCH   1  23
TORSDOF 8
ENDMDL
MODEL 10
REMARK VINA RESULT:      -6.8      5.031      9.163
REMARK  8 active torsions:
REMARK  status: ('A' for Active; 'I' for Inactive)
REMARK    1  A    between atoms: C_7  and  C_8 
REMARK       I    between atoms: C_8  and  N_9 
REMARK    2  A    between atoms: N_9  and  C_10 
REMARK    3  A    between atoms: C_13  and  C_14 
REMARK       I    between atoms: C_14  and  N_15 
REMARK    4  A    between atoms: N_15  and  C_16 
REMARK    5  A    between atoms: C_16  and  C_17 
REMARK    6  A    between atoms: C_17  and  C_18 
REMARK    7  A    between atoms: C_20  and  O_21 
REMARK    8  A    between atoms: C_23  and  O_24 
ROOT
HETATM    1  C   UNL     1     -42.631  57.019 -57.152  1.00  0.00     0.035 A 
HETATM    2  C   UNL     1     -42.986  55.679 -57.320  1.00  0.00     0.030 A 
HETATM    3  C   UNL     1     -42.942  54.788 -56.240  1.00  0.00     0.019 A 
HETATM    4  C   UNL     1     -42.546  55.236 -54.977  1.00  0.00     0.032 A 
HETATM    5  C   UNL     1     -42.142  56.564 -54.812  1.00  0.00     0.019 A 
HETATM    6  C   UNL     1     -42.189  57.450 -55.894  1.00  0.00     0.030 A 
ENDROOT
BRANCH   4   7
HETATM    7  C   UNL     1     -42.561  54.344 -53.785  1.00  0.00     0.251 C 
HETATM    8  N   UNL     1     -43.565  54.582 -52.869  1.00  0.00    -0.357 N 
HETATM    9  H   UNL     1     -44.045  55.472 -52.930  1.00  0.00     0.162 HD
HETATM   10  O   UNL     1     -41.686  53.501 -53.630  1.00  0.00    -0.268 OA
BRANCH   8  11
HETATM   11  C   UNL     1     -43.531  53.952 -51.562  1.00  0.00     0.127 C 
BRANCH  11  12
HETATM   12  C   UNL     1     -43.140  54.925 -50.445  1.00  0.00     0.058 C 
BRANCH  12  13
HETATM   13  C   UNL     1     -42.925  56.353 -50.902  1.00  0.00    -0.054 A 
HETATM   14  C   UNL     1     -41.634  56.859 -51.121  1.00  0.00     0.046 A 
HETATM   15  C   UNL     1     -41.442  58.182 -51.543  1.00  0.00     0.102 A 
HETATM   16  C   UNL     1     -42.556  59.025 -51.724  1.00  0.00     0.101 A 
HETATM   17  C   UNL     1     -43.841  58.523 -51.499  1.00  0.00     0.040 A 
HETATM   18  C   UNL     1     -44.022  57.200 -51.091  1.00  0.00     0.010 A 
BRANCH  15  19
HETATM   19  O   UNL     1     -40.214  58.747 -51.788  1.00  0.00    -0.353 OA
HETATM   20  C   UNL     1     -39.464  59.204 -50.672  1.00  0.00     0.210 C 
ENDBRANCH  15  19
BRANCH  16  21
HETATM   21  O   UNL     1     -42.284  60.308 -52.131  1.00  0.00    -0.353 OA
HETATM   22  C   UNL     1     -42.627  60.659 -53.464  1.00  0.00     0.210 C 
ENDBRANCH  16  21
ENDBRANCH  12  13
ENDBRANCH  11  12
ENDBRANCH   8  11
ENDBRANCH   4   7
BRANCH   1  23
HETATM   23  N   UNL     1     -42.712  57.989 -58.169  1.00  0.00    -0.322 N 
HETATM   24  C   UNL     1     -43.534  59.100 -58.228  1.00  0.00     0.265 C 
HETATM   25  O   UNL     1     -44.407  59.374 -57.411  1.00  0.00    -0.267 OA
HETATM   26  H   UNL     1     -42.076  57.883 -58.952  1.00  0.00     0.169 HD
BRANCH  24  27
HETATM   27  C   UNL     1     -43.258  59.999 -59.432  1.00  0.00     0.097 C 
HETATM   28  C   UNL     1     -42.278  60.937 -59.399  1.00  0.00     0.064 C 
HETATM   29  C   UNL     1     -41.333  61.124 -58.239  1.00  0.00     0.078 C 
HETATM   30  O   UNL     1     -41.971  61.817 -60.426  1.00  0.00    -0.353 OA
HETATM   31  C   UNL     1     -42.967  62.016 -61.427  1.00  0.00     0.185 C 
HETATM   32  C   UNL     1     -43.372  60.706 -62.066  1.00  0.00     0.106 C 
HETATM   33  S   UNL     1     -44.271  59.728 -60.838  1.00  0.00    -0.120 SA
ENDBRANCH  24  27
ENDBRANCH   1  23
TORSDOF 8
ENDMDL
