MODEL 1
REMARK VINA RESULT:      -8.2      0.000      0.000
REMARK  5 active torsions:
REMARK  status: ('A' for Active; 'I' for Inactive)
REMARK    1  A    between atoms: C_2  and  O_3 
REMARK    2  A    between atoms: O_3  and  C_4 
REMARK    3  A    between atoms: C_5  and  C_6 
REMARK    4  A    between atoms: C_7  and  C_8 
REMARK       I    between atoms: C_8  and  N_9 
REMARK    5  A    between atoms: N_9  and  C_10 
ROOT
HETATM    1  C   UNL     1     -42.987  57.289 -51.496  1.00  0.00     0.042 C 
HETATM    2  C   UNL     1     -42.943  56.713 -52.712  1.00  0.00     0.113 C 
HETATM    3  C   UNL     1     -43.294  57.397 -53.904  1.00  0.00     0.105 C 
HETATM    4  N   UNL     1     -43.573  57.894 -54.914  1.00  0.00    -0.191 NA
ENDROOT
BRANCH   2   5
HETATM    5  C   UNL     1     -42.567  55.256 -52.745  1.00  0.00     0.266 C 
HETATM    6  N   UNL     1     -41.220  54.982 -52.579  1.00  0.00    -0.321 N 
HETATM    7  H   UNL     1     -40.652  55.683 -52.119  1.00  0.00     0.169 HD
HETATM    8  O   UNL     1     -43.441  54.402 -52.870  1.00  0.00    -0.267 OA
BRANCH   6   9
HETATM    9  C   UNL     1     -40.627  53.697 -52.687  1.00  0.00     0.047 A 
HETATM   10  C   UNL     1     -40.275  53.108 -53.923  1.00  0.00    -0.035 A 
HETATM   11  C   UNL     1     -40.364  53.804 -55.257  1.00  0.00     0.050 C 
HETATM   12  C   UNL     1     -39.750  51.802 -53.939  1.00  0.00     0.009 A 
HETATM   13  C   UNL     1     -39.507  51.111 -52.759  1.00  0.00     0.001 A 
HETATM   14  C   UNL     1     -39.775  51.719 -51.538  1.00  0.00     0.009 A 
HETATM   15  C   UNL     1     -40.327  53.010 -51.484  1.00  0.00    -0.035 A 
HETATM   16  C   UNL     1     -40.617  53.595 -50.126  1.00  0.00     0.050 C 
ENDBRANCH   6   9
ENDBRANCH   2   5
BRANCH   1  17
HETATM   17  C   UNL     1     -43.388  58.671 -51.194  1.00  0.00     0.002 A 
HETATM   18  C   UNL     1     -42.425  59.708 -51.195  1.00  0.00     0.079 A 
HETATM   19  C   UNL     1     -42.794  61.049 -51.055  1.00  0.00     0.047 A 
HETATM   20  C   UNL     1     -44.132  61.331 -50.859  1.00  0.00    -0.020 A 
HETATM   21  C   UNL     1     -45.074  60.316 -50.815  1.00  0.00     0.076 A 
HETATM   22  C   UNL     1     -44.815  62.640 -50.768  1.00  0.00     0.073 C 
HETATM   23  C   UNL     1     -44.737  58.986 -50.988  1.00  0.00     0.051 A 
HETATM   24  O   UNL     1     -46.357  60.767 -50.639  1.00  0.00    -0.345 OA
HETATM   25  C   UNL     1     -46.186  62.162 -50.268  1.00  0.00     0.129 C 
HETATM   26  C   UNL     1     -47.333  62.972 -50.850  1.00  0.00     0.040 C 
BRANCH  18  27
HETATM   27  O   UNL     1     -41.097  59.435 -51.411  1.00  0.00    -0.351 OA
BRANCH  27  28
HETATM   28  C   UNL     1     -40.336  59.614 -50.208  1.00  0.00     0.171 C 
HETATM   29  C   UNL     1     -38.858  59.579 -50.552  1.00  0.00     0.034 C 
ENDBRANCH  27  28
ENDBRANCH  18  27
ENDBRANCH   1  17
TORSDOF 5
ENDMDL
MODEL 2
REMARK VINA RESULT:      -8.0      1.823      2.453
REMARK  5 active torsions:
REMARK  status: ('A' for Active; 'I' for Inactive)
REMARK    1  A    between atoms: C_2  and  O_3 
REMARK    2  A    between atoms: O_3  and  C_4 
REMARK    3  A    between atoms: C_5  and  C_6 
REMARK    4  A    between atoms: C_7  and  C_8 
REMARK       I    between atoms: C_8  and  N_9 
REMARK    5  A    between atoms: N_9  and  C_10 
ROOT
HETATM    1  C   UNL     1     -44.120  57.190 -51.919  1.00  0.00     0.042 C 
HETATM    2  C   UNL     1     -42.813  56.881 -52.006  1.00  0.00     0.113 C 
HETATM    3  C   UNL     1     -41.786  57.859 -52.002  1.00  0.00     0.105 C 
HETATM    4  N   UNL     1     -40.899  58.606 -52.012  1.00  0.00    -0.191 NA
ENDROOT
BRANCH   2   5
HETATM    5  C   UNL     1     -42.485  55.423 -52.186  1.00  0.00     0.266 C 
HETATM    6  N   UNL     1     -41.141  55.127 -52.337  1.00  0.00    -0.321 N 
HETATM    7  H   UNL     1     -40.470  55.799 -51.986  1.00  0.00     0.169 HD
HETATM    8  O   UNL     1     -43.383  54.585 -52.150  1.00  0.00    -0.267 OA
BRANCH   6   9
HETATM    9  C   UNL     1     -40.614  53.842 -52.632  1.00  0.00     0.047 A 
HETATM   10  C   UNL     1     -40.494  53.337 -53.946  1.00  0.00    -0.035 A 
HETATM   11  C   UNL     1     -40.785  54.128 -55.195  1.00  0.00     0.050 C 
HETATM   12  C   UNL     1     -40.020  52.025 -54.139  1.00  0.00     0.009 A 
HETATM   13  C   UNL     1     -39.603  51.246 -53.067  1.00  0.00     0.001 A 
HETATM   14  C   UNL     1     -39.643  51.770 -51.780  1.00  0.00     0.009 A 
HETATM   15  C   UNL     1     -40.138  53.064 -51.546  1.00  0.00    -0.035 A 
HETATM   16  C   UNL     1     -40.178  53.556 -50.122  1.00  0.00     0.050 C 
ENDBRANCH   6   9
ENDBRANCH   2   5
BRANCH   1  17
HETATM   17  C   UNL     1     -44.698  58.538 -51.808  1.00  0.00     0.002 A 
HETATM   18  C   UNL     1     -45.128  59.226 -52.967  1.00  0.00     0.079 A 
HETATM   19  C   UNL     1     -45.811  60.442 -52.885  1.00  0.00     0.047 A 
HETATM   20  C   UNL     1     -46.005  60.987 -51.631  1.00  0.00    -0.020 A 
HETATM   21  C   UNL     1     -45.548  60.339 -50.494  1.00  0.00     0.076 A 
HETATM   22  C   UNL     1     -46.758  62.199 -51.236  1.00  0.00     0.073 C 
HETATM   23  C   UNL     1     -44.904  59.117 -50.549  1.00  0.00     0.051 A 
HETATM   24  O   UNL     1     -45.845  61.000 -49.331  1.00  0.00    -0.345 OA
HETATM   25  C   UNL     1     -46.288  62.309 -49.778  1.00  0.00     0.129 C 
HETATM   26  C   UNL     1     -47.384  62.805 -48.849  1.00  0.00     0.040 C 
BRANCH  18  27
HETATM   27  O   UNL     1     -44.956  58.679 -54.214  1.00  0.00    -0.351 OA
BRANCH  27  28
HETATM   28  C   UNL     1     -43.837  59.275 -54.885  1.00  0.00     0.171 C 
HETATM   29  C   UNL     1     -43.002  58.178 -55.520  1.00  0.00     0.034 C 
ENDBRANCH  27  28
ENDBRANCH  18  27
ENDBRANCH   1  17
TORSDOF 5
ENDMDL
MODEL 3
REMARK VINA RESULT:      -7.9      1.839      2.943
REMARK  5 active torsions:
REMARK  status: ('A' for Active; 'I' for Inactive)
REMARK    1  A    between atoms: C_2  and  O_3 
REMARK    2  A    between atoms: O_3  and  C_4 
REMARK    3  A    between atoms: C_5  and  C_6 
REMARK    4  A    between atoms: C_7  and  C_8 
REMARK       I    between atoms: C_8  and  N_9 
REMARK    5  A    between atoms: N_9  and  C_10 
ROOT
HETATM    1  C   UNL     1     -44.128  57.190 -51.810  1.00  0.00     0.042 C 
HETATM    2  C   UNL     1     -42.820  56.879 -51.868  1.00  0.00     0.113 C 
HETATM    3  C   UNL     1     -41.793  57.856 -51.870  1.00  0.00     0.105 C 
HETATM    4  N   UNL     1     -40.905  58.604 -51.882  1.00  0.00    -0.191 NA
ENDROOT
BRANCH   2   5
HETATM    5  C   UNL     1     -42.488  55.417 -52.007  1.00  0.00     0.266 C 
HETATM    6  N   UNL     1     -41.172  55.129 -52.321  1.00  0.00    -0.321 N 
HETATM    7  H   UNL     1     -40.473  55.829 -52.104  1.00  0.00     0.169 HD
HETATM    8  O   UNL     1     -43.356  54.571 -51.802  1.00  0.00    -0.267 OA
BRANCH   6   9
HETATM    9  C   UNL     1     -40.663  53.836 -52.611  1.00  0.00     0.047 A 
HETATM   10  C   UNL     1     -40.192  52.948 -51.616  1.00  0.00    -0.035 A 
HETATM   11  C   UNL     1     -40.282  53.202 -50.134  1.00  0.00     0.050 C 
HETATM   12  C   UNL     1     -39.644  51.710 -52.002  1.00  0.00     0.009 A 
HETATM   13  C   UNL     1     -39.624  51.317 -53.334  1.00  0.00     0.001 A 
HETATM   14  C   UNL     1     -40.162  52.152 -54.306  1.00  0.00     0.009 A 
HETATM   15  C   UNL     1     -40.690  53.408 -53.962  1.00  0.00    -0.035 A 
HETATM   16  C   UNL     1     -41.230  54.272 -55.072  1.00  0.00     0.050 C 
ENDBRANCH   6   9
ENDBRANCH   2   5
BRANCH   1  17
HETATM   17  C   UNL     1     -44.707  58.539 -51.741  1.00  0.00     0.002 A 
HETATM   18  C   UNL     1     -45.116  59.200 -52.924  1.00  0.00     0.079 A 
HETATM   19  C   UNL     1     -45.799  60.418 -52.883  1.00  0.00     0.047 A 
HETATM   20  C   UNL     1     -46.017  60.992 -51.646  1.00  0.00    -0.020 A 
HETATM   21  C   UNL     1     -45.581  60.370 -50.486  1.00  0.00     0.076 A 
HETATM   22  C   UNL     1     -46.776  62.212 -51.293  1.00  0.00     0.073 C 
HETATM   23  C   UNL     1     -44.937  59.147 -50.500  1.00  0.00     0.051 A 
HETATM   24  O   UNL     1     -45.900  61.058 -49.344  1.00  0.00    -0.345 OA
HETATM   25  C   UNL     1     -46.334  62.357 -49.830  1.00  0.00     0.129 C 
HETATM   26  C   UNL     1     -47.447  62.873 -48.933  1.00  0.00     0.040 C 
BRANCH  18  27
HETATM   27  O   UNL     1     -44.920  58.624 -54.155  1.00  0.00    -0.351 OA
BRANCH  27  28
HETATM   28  C   UNL     1     -43.823  59.242 -54.841  1.00  0.00     0.171 C 
HETATM   29  C   UNL     1     -42.920  58.159 -55.404  1.00  0.00     0.034 C 
ENDBRANCH  27  28
ENDBRANCH  18  27
ENDBRANCH   1  17
TORSDOF 5
ENDMDL
MODEL 4
REMARK VINA RESULT:      -7.8      3.707      8.185
REMARK  5 active torsions:
REMARK  status: ('A' for Active; 'I' for Inactive)
REMARK    1  A    between atoms: C_2  and  O_3 
REMARK    2  A    between atoms: O_3  and  C_4 
REMARK    3  A    between atoms: C_5  and  C_6 
REMARK    4  A    between atoms: C_7  and  C_8 
REMARK       I    between atoms: C_8  and  N_9 
REMARK    5  A    between atoms: N_9  and  C_10 
ROOT
HETATM    1  C   UNL     1     -41.900  56.167 -54.478  1.00  0.00     0.042 C 
HETATM    2  C   UNL     1     -42.717  55.838 -55.495  1.00  0.00     0.113 C 
HETATM    3  C   UNL     1     -43.215  54.525 -55.692  1.00  0.00     0.105 C 
HETATM    4  N   UNL     1     -43.651  53.473 -55.916  1.00  0.00    -0.191 NA
ENDROOT
BRANCH   2   5
HETATM    5  C   UNL     1     -43.030  56.934 -56.479  1.00  0.00     0.266 C 
HETATM    6  N   UNL     1     -42.003  57.273 -57.343  1.00  0.00    -0.321 N 
HETATM    7  H   UNL     1     -41.278  56.584 -57.505  1.00  0.00     0.169 HD
HETATM    8  O   UNL     1     -44.152  57.434 -56.501  1.00  0.00    -0.267 OA
BRANCH   6   9
HETATM    9  C   UNL     1     -42.034  58.347 -58.271  1.00  0.00     0.047 A 
HETATM   10  C   UNL     1     -42.010  59.706 -57.883  1.00  0.00    -0.035 A 
HETATM   11  C   UNL     1     -41.822  60.187 -56.467  1.00  0.00     0.050 C 
HETATM   12  C   UNL     1     -42.110  60.705 -58.869  1.00  0.00     0.009 A 
HETATM   13  C   UNL     1     -42.161  60.381 -60.219  1.00  0.00     0.001 A 
HETATM   14  C   UNL     1     -42.103  59.048 -60.608  1.00  0.00     0.009 A 
HETATM   15  C   UNL     1     -42.033  58.022 -59.650  1.00  0.00    -0.035 A 
HETATM   16  C   UNL     1     -42.001  56.599 -60.145  1.00  0.00     0.050 C 
ENDBRANCH   6   9
ENDBRANCH   2   5
BRANCH   1  17
HETATM   17  C   UNL     1     -41.395  55.266 -53.431  1.00  0.00     0.002 A 
HETATM   18  C   UNL     1     -41.634  55.555 -52.067  1.00  0.00     0.079 A 
HETATM   19  C   UNL     1     -41.296  54.650 -51.057  1.00  0.00     0.047 A 
HETATM   20  C   UNL     1     -40.664  53.479 -51.428  1.00  0.00    -0.020 A 
HETATM   21  C   UNL     1     -40.389  53.210 -52.760  1.00  0.00     0.076 A 
HETATM   22  C   UNL     1     -40.274  52.316 -50.601  1.00  0.00     0.073 C 
HETATM   23  C   UNL     1     -40.748  54.073 -53.778  1.00  0.00     0.051 A 
HETATM   24  O   UNL     1     -39.783  51.996 -52.958  1.00  0.00    -0.345 OA
HETATM   25  C   UNL     1     -39.395  51.578 -51.622  1.00  0.00     0.129 C 
HETATM   26  C   UNL     1     -39.525  50.068 -51.519  1.00  0.00     0.040 C 
BRANCH  18  27
HETATM   27  O   UNL     1     -42.280  56.707 -51.695  1.00  0.00    -0.351 OA
BRANCH  27  28
HETATM   28  C   UNL     1     -43.537  56.411 -51.069  1.00  0.00     0.171 C 
HETATM   29  C   UNL     1     -44.556  57.453 -51.491  1.00  0.00     0.034 C 
ENDBRANCH  27  28
ENDBRANCH  18  27
ENDBRANCH   1  17
TORSDOF 5
ENDMDL
MODEL 5
REMARK VINA RESULT:      -7.8      2.007      2.844
REMARK  5 active torsions:
REMARK  status: ('A' for Active; 'I' for Inactive)
REMARK    1  A    between atoms: C_2  and  O_3 
REMARK    2  A    between atoms: O_3  and  C_4 
REMARK    3  A    between atoms: C_5  and  C_6 
REMARK    4  A    between atoms: C_7  and  C_8 
REMARK       I    between atoms: C_8  and  N_9 
REMARK    5  A    between atoms: N_9  and  C_10 
ROOT
HETATM    1  C   UNL     1     -42.273  57.571 -52.584  1.00  0.00     0.042 C 
HETATM    2  C   UNL     1     -43.074  56.629 -52.053  1.00  0.00     0.113 C 
HETATM    3  C   UNL     1     -44.235  56.937 -51.301  1.00  0.00     0.105 C 
HETATM    4  N   UNL     1     -45.193  57.120 -50.671  1.00  0.00    -0.191 NA
ENDROOT
BRANCH   2   5
HETATM    5  C   UNL     1     -42.634  55.201 -52.236  1.00  0.00     0.266 C 
HETATM    6  N   UNL     1     -41.269  55.006 -52.351  1.00  0.00    -0.321 N 
HETATM    7  H   UNL     1     -40.659  55.722 -51.975  1.00  0.00     0.169 HD
HETATM    8  O   UNL     1     -43.469  54.299 -52.234  1.00  0.00    -0.267 OA
BRANCH   6   9
HETATM    9  C   UNL     1     -40.641  53.766 -52.642  1.00  0.00     0.047 A 
HETATM   10  C   UNL     1     -40.405  53.307 -53.958  1.00  0.00    -0.035 A 
HETATM   11  C   UNL     1     -40.669  54.113 -55.204  1.00  0.00     0.050 C 
HETATM   12  C   UNL     1     -39.834  52.035 -54.152  1.00  0.00     0.009 A 
HETATM   13  C   UNL     1     -39.434  51.255 -53.074  1.00  0.00     0.001 A 
HETATM   14  C   UNL     1     -39.589  51.739 -51.780  1.00  0.00     0.009 A 
HETATM   15  C   UNL     1     -40.182  52.991 -51.547  1.00  0.00    -0.035 A 
HETATM   16  C   UNL     1     -40.343  53.439 -50.117  1.00  0.00     0.050 C 
ENDBRANCH   6   9
ENDBRANCH   2   5
BRANCH   1  17
HETATM   17  C   UNL     1     -42.446  59.028 -52.485  1.00  0.00     0.002 A 
HETATM   18  C   UNL     1     -42.717  59.793 -53.645  1.00  0.00     0.079 A 
HETATM   19  C   UNL     1     -43.029  61.153 -53.567  1.00  0.00     0.047 A 
HETATM   20  C   UNL     1     -43.011  61.747 -52.321  1.00  0.00    -0.020 A 
HETATM   21  C   UNL     1     -42.705  61.012 -51.186  1.00  0.00     0.076 A 
HETATM   22  C   UNL     1     -43.378  63.126 -51.929  1.00  0.00     0.073 C 
HETATM   23  C   UNL     1     -42.430  59.658 -51.234  1.00  0.00     0.051 A 
HETATM   24  O   UNL     1     -42.756  61.745 -50.029  1.00  0.00    -0.345 OA
HETATM   25  C   UNL     1     -42.835  63.120 -50.492  1.00  0.00     0.129 C 
HETATM   26  C   UNL     1     -43.710  63.915 -49.535  1.00  0.00     0.040 C 
BRANCH  18  27
HETATM   27  O   UNL     1     -42.757  59.203 -54.883  1.00  0.00    -0.351 OA
BRANCH  27  28
HETATM   28  C   UNL     1     -44.107  59.090 -55.353  1.00  0.00     0.171 C 
HETATM   29  C   UNL     1     -44.374  57.648 -55.746  1.00  0.00     0.034 C 
ENDBRANCH  27  28
ENDBRANCH  18  27
ENDBRANCH   1  17
TORSDOF 5
ENDMDL
MODEL 6
REMARK VINA RESULT:      -7.8      3.679      8.287
REMARK  5 active torsions:
REMARK  status: ('A' for Active; 'I' for Inactive)
REMARK    1  A    between atoms: C_2  and  O_3 
REMARK    2  A    between atoms: O_3  and  C_4 
REMARK    3  A    between atoms: C_5  and  C_6 
REMARK    4  A    between atoms: C_7  and  C_8 
REMARK       I    between atoms: C_8  and  N_9 
REMARK    5  A    between atoms: N_9  and  C_10 
ROOT
HETATM    1  C   UNL     1     -41.708  56.032 -54.375  1.00  0.00     0.042 C 
HETATM    2  C   UNL     1     -42.555  55.777 -55.389  1.00  0.00     0.113 C 
HETATM    3  C   UNL     1     -43.140  54.504 -55.606  1.00  0.00     0.105 C 
HETATM    4  N   UNL     1     -43.646  53.487 -55.844  1.00  0.00    -0.191 NA
ENDROOT
BRANCH   2   5
HETATM    5  C   UNL     1     -42.805  56.910 -56.348  1.00  0.00     0.266 C 
HETATM    6  N   UNL     1     -43.799  56.691 -57.287  1.00  0.00    -0.321 N 
HETATM    7  H   UNL     1     -44.499  55.990 -57.075  1.00  0.00     0.169 HD
HETATM    8  O   UNL     1     -42.171  57.956 -56.237  1.00  0.00    -0.267 OA
BRANCH   6   9
HETATM    9  C   UNL     1     -44.125  57.569 -58.354  1.00  0.00     0.047 A 
HETATM   10  C   UNL     1     -43.370  57.653 -59.546  1.00  0.00    -0.035 A 
HETATM   11  C   UNL     1     -42.214  56.749 -59.891  1.00  0.00     0.050 C 
HETATM   12  C   UNL     1     -43.730  58.599 -60.524  1.00  0.00     0.009 A 
HETATM   13  C   UNL     1     -44.855  59.401 -60.369  1.00  0.00     0.001 A 
HETATM   14  C   UNL     1     -45.646  59.263 -59.235  1.00  0.00     0.009 A 
HETATM   15  C   UNL     1     -45.301  58.350 -58.224  1.00  0.00    -0.035 A 
HETATM   16  C   UNL     1     -46.190  58.275 -57.010  1.00  0.00     0.050 C 
ENDBRANCH   6   9
ENDBRANCH   2   5
BRANCH   1  17
HETATM   17  C   UNL     1     -41.253  55.079 -53.352  1.00  0.00     0.002 A 
HETATM   18  C   UNL     1     -41.515  55.325 -51.983  1.00  0.00     0.079 A 
HETATM   19  C   UNL     1     -41.225  54.375 -51.000  1.00  0.00     0.047 A 
HETATM   20  C   UNL     1     -40.619  53.200 -51.400  1.00  0.00    -0.020 A 
HETATM   21  C   UNL     1     -40.322  52.971 -52.735  1.00  0.00     0.076 A 
HETATM   22  C   UNL     1     -40.281  51.997 -50.608  1.00  0.00     0.073 C 
HETATM   23  C   UNL     1     -40.633  53.880 -53.728  1.00  0.00     0.051 A 
HETATM   24  O   UNL     1     -39.746  51.748 -52.965  1.00  0.00    -0.345 OA
HETATM   25  C   UNL     1     -39.401  51.271 -51.636  1.00  0.00     0.129 C 
HETATM   26  C   UNL     1     -39.577  49.762 -51.592  1.00  0.00     0.040 C 
BRANCH  18  27
HETATM   27  O   UNL     1     -42.136  56.482 -51.583  1.00  0.00    -0.351 OA
BRANCH  27  28
HETATM   28  C   UNL     1     -43.404  56.198 -50.977  1.00  0.00     0.171 C 
HETATM   29  C   UNL     1     -44.394  57.278 -51.375  1.00  0.00     0.034 C 
ENDBRANCH  27  28
ENDBRANCH  18  27
ENDBRANCH   1  17
TORSDOF 5
ENDMDL
MODEL 7
REMARK VINA RESULT:      -7.8      2.369      2.594
REMARK  5 active torsions:
REMARK  status: ('A' for Active; 'I' for Inactive)
REMARK    1  A    between atoms: C_2  and  O_3 
REMARK    2  A    between atoms: O_3  and  C_4 
REMARK    3  A    between atoms: C_5  and  C_6 
REMARK    4  A    between atoms: C_7  and  C_8 
REMARK       I    between atoms: C_8  and  N_9 
REMARK    5  A    between atoms: N_9  and  C_10 
ROOT
HETATM    1  C   UNL     1     -42.963  57.332 -53.451  1.00  0.00     0.042 C 
HETATM    2  C   UNL     1     -43.429  56.528 -52.478  1.00  0.00     0.113 C 
HETATM    3  C   UNL     1     -44.331  56.969 -51.478  1.00  0.00     0.105 C 
HETATM    4  N   UNL     1     -45.063  57.267 -50.627  1.00  0.00    -0.191 NA
ENDROOT
BRANCH   2   5
HETATM    5  C   UNL     1     -42.881  55.126 -52.454  1.00  0.00     0.266 C 
HETATM    6  N   UNL     1     -41.504  55.020 -52.537  1.00  0.00    -0.321 N 
HETATM    7  H   UNL     1     -40.953  55.826 -52.267  1.00  0.00     0.169 HD
HETATM    8  O   UNL     1     -43.646  54.173 -52.325  1.00  0.00    -0.267 OA
BRANCH   6   9
HETATM    9  C   UNL     1     -40.781  53.802 -52.647  1.00  0.00     0.047 A 
HETATM   10  C   UNL     1     -40.426  53.221 -53.885  1.00  0.00    -0.035 A 
HETATM   11  C   UNL     1     -40.652  53.867 -55.228  1.00  0.00     0.050 C 
HETATM   12  C   UNL     1     -39.766  51.978 -53.898  1.00  0.00     0.009 A 
HETATM   13  C   UNL     1     -39.395  51.349 -52.716  1.00  0.00     0.001 A 
HETATM   14  C   UNL     1     -39.670  51.958 -51.498  1.00  0.00     0.009 A 
HETATM   15  C   UNL     1     -40.354  53.184 -51.445  1.00  0.00    -0.035 A 
HETATM   16  C   UNL     1     -40.642  53.771 -50.087  1.00  0.00     0.050 C 
ENDBRANCH   6   9
ENDBRANCH   2   5
BRANCH   1  17
HETATM   17  C   UNL     1     -43.289  58.752 -53.648  1.00  0.00     0.002 A 
HETATM   18  C   UNL     1     -42.384  59.755 -53.227  1.00  0.00     0.079 A 
HETATM   19  C   UNL     1     -42.595  61.104 -53.527  1.00  0.00     0.047 A 
HETATM   20  C   UNL     1     -43.752  61.439 -54.203  1.00  0.00    -0.020 A 
HETATM   21  C   UNL     1     -44.663  60.465 -54.580  1.00  0.00     0.076 A 
HETATM   22  C   UNL     1     -44.193  62.752 -54.723  1.00  0.00     0.073 C 
HETATM   23  C   UNL     1     -44.457  59.122 -54.328  1.00  0.00     0.051 A 
HETATM   24  O   UNL     1     -45.743  60.961 -55.264  1.00  0.00    -0.345 OA
HETATM   25  C   UNL     1     -45.647  62.398 -55.070  1.00  0.00     0.129 C 
HETATM   26  C   UNL     1     -46.134  63.101 -56.326  1.00  0.00     0.040 C 
BRANCH  18  27
HETATM   27  O   UNL     1     -41.223  59.426 -52.574  1.00  0.00    -0.351 OA
BRANCH  27  28
HETATM   28  C   UNL     1     -41.368  59.591 -51.156  1.00  0.00     0.171 C 
HETATM   29  C   UNL     1     -40.891  58.328 -50.461  1.00  0.00     0.034 C 
ENDBRANCH  27  28
ENDBRANCH  18  27
ENDBRANCH   1  17
TORSDOF 5
ENDMDL
MODEL 8
REMARK VINA RESULT:      -7.7      4.660      6.950
REMARK  5 active torsions:
REMARK  status: ('A' for Active; 'I' for Inactive)
REMARK    1  A    between atoms: C_2  and  O_3 
REMARK    2  A    between atoms: O_3  and  C_4 
REMARK    3  A    between atoms: C_5  and  C_6 
REMARK    4  A    between atoms: C_7  and  C_8 
REMARK       I    between atoms: C_8  and  N_9 
REMARK    5  A    between atoms: N_9  and  C_10 
ROOT
HETATM    1  C   UNL     1     -42.294  56.802 -56.756  1.00  0.00     0.042 C 
HETATM    2  C   UNL     1     -43.267  56.761 -55.826  1.00  0.00     0.113 C 
HETATM    3  C   UNL     1     -44.428  57.572 -55.886  1.00  0.00     0.105 C 
HETATM    4  N   UNL     1     -45.397  58.210 -55.871  1.00  0.00    -0.191 NA
ENDROOT
BRANCH   2   5
HETATM    5  C   UNL     1     -43.028  55.847 -54.654  1.00  0.00     0.266 C 
HETATM    6  N   UNL     1     -41.772  55.927 -54.079  1.00  0.00    -0.321 N 
HETATM    7  H   UNL     1     -41.242  56.778 -54.225  1.00  0.00     0.169 HD
HETATM    8  O   UNL     1     -43.935  55.126 -54.246  1.00  0.00    -0.267 OA
BRANCH   6   9
HETATM    9  C   UNL     1     -41.290  55.084 -53.042  1.00  0.00     0.047 A 
HETATM   10  C   UNL     1     -40.691  53.827 -53.283  1.00  0.00    -0.035 A 
HETATM   11  C   UNL     1     -40.374  53.279 -54.650  1.00  0.00     0.050 C 
HETATM   12  C   UNL     1     -40.302  53.030 -52.190  1.00  0.00     0.009 A 
HETATM   13  C   UNL     1     -40.431  53.488 -50.884  1.00  0.00     0.001 A 
HETATM   14  C   UNL     1     -40.943  54.757 -50.648  1.00  0.00     0.009 A 
HETATM   15  C   UNL     1     -41.370  55.569 -51.713  1.00  0.00    -0.035 A 
HETATM   16  C   UNL     1     -41.942  56.923 -51.380  1.00  0.00     0.050 C 
ENDBRANCH   6   9
ENDBRANCH   2   5
BRANCH   1  17
HETATM   17  C   UNL     1     -42.259  57.658 -57.951  1.00  0.00     0.002 A 
HETATM   18  C   UNL     1     -42.648  57.140 -59.209  1.00  0.00     0.079 A 
HETATM   19  C   UNL     1     -42.765  57.962 -60.334  1.00  0.00     0.047 A 
HETATM   20  C   UNL     1     -42.431  59.295 -60.194  1.00  0.00    -0.020 A 
HETATM   21  C   UNL     1     -42.008  59.798 -58.974  1.00  0.00     0.076 A 
HETATM   22  C   UNL     1     -42.538  60.400 -61.172  1.00  0.00     0.073 C 
HETATM   23  C   UNL     1     -41.922  59.013 -57.840  1.00  0.00     0.051 A 
HETATM   24  O   UNL     1     -41.742  61.143 -59.000  1.00  0.00    -0.345 OA
HETATM   25  C   UNL     1     -41.734  61.468 -60.416  1.00  0.00     0.129 C 
HETATM   26  C   UNL     1     -42.299  62.866 -60.606  1.00  0.00     0.040 C 
BRANCH  18  27
HETATM   27  O   UNL     1     -43.001  55.821 -59.348  1.00  0.00    -0.351 OA
BRANCH  27  28
HETATM   28  C   UNL     1     -44.410  55.690 -59.584  1.00  0.00     0.171 C 
HETATM   29  C   UNL     1     -44.737  54.225 -59.809  1.00  0.00     0.034 C 
ENDBRANCH  27  28
ENDBRANCH  18  27
ENDBRANCH   1  17
TORSDOF 5
ENDMDL
MODEL 9
REMARK VINA RESULT:      -7.3      4.238      7.613
REMARK  5 active torsions:
REMARK  status: ('A' for Active; 'I' for Inactive)
REMARK    1  A    between atoms: C_2  and  O_3 
REMARK    2  A    between atoms: O_3  and  C_4 
REMARK    3  A    between atoms: C_5  and  C_6 
REMARK    4  A    between atoms: C_7  and  C_8 
REMARK       I    between atoms: C_8  and  N_9 
REMARK    5  A    between atoms: N_9  and  C_10 
ROOT
HETATM    1  C   UNL     1     -43.458  56.679 -55.319  1.00  0.00     0.042 C 
HETATM    2  C   UNL     1     -43.116  57.729 -56.088  1.00  0.00     0.113 C 
HETATM    3  C   UNL     1     -42.286  58.783 -55.630  1.00  0.00     0.105 C 
HETATM    4  N   UNL     1     -41.620  59.681 -55.317  1.00  0.00    -0.191 NA
ENDROOT
BRANCH   2   5
HETATM    5  C   UNL     1     -43.724  57.773 -57.465  1.00  0.00     0.266 C 
HETATM    6  N   UNL     1     -44.882  57.033 -57.630  1.00  0.00    -0.321 N 
HETATM    7  H   UNL     1     -45.421  56.812 -56.801  1.00  0.00     0.169 HD
HETATM    8  O   UNL     1     -43.212  58.468 -58.338  1.00  0.00    -0.267 OA
BRANCH   6   9
HETATM    9  C   UNL     1     -45.560  56.838 -58.863  1.00  0.00     0.047 A 
HETATM   10  C   UNL     1     -45.208  55.830 -59.788  1.00  0.00    -0.035 A 
HETATM   11  C   UNL     1     -44.169  54.767 -59.540  1.00  0.00     0.050 C 
HETATM   12  C   UNL     1     -45.894  55.751 -61.015  1.00  0.00     0.009 A 
HETATM   13  C   UNL     1     -46.956  56.601 -61.300  1.00  0.00     0.001 A 
HETATM   14  C   UNL     1     -47.358  57.540 -60.357  1.00  0.00     0.009 A 
HETATM   15  C   UNL     1     -46.677  57.667 -59.135  1.00  0.00    -0.035 A 
HETATM   16  C   UNL     1     -47.151  58.726 -58.172  1.00  0.00     0.050 C 
ENDBRANCH   6   9
ENDBRANCH   2   5
BRANCH   1  17
HETATM   17  C   UNL     1     -43.054  56.443 -53.926  1.00  0.00     0.002 A 
HETATM   18  C   UNL     1     -43.828  56.964 -52.862  1.00  0.00     0.079 A 
HETATM   19  C   UNL     1     -43.555  56.638 -51.530  1.00  0.00     0.047 A 
HETATM   20  C   UNL     1     -42.463  55.831 -51.277  1.00  0.00    -0.020 A 
HETATM   21  C   UNL     1     -41.675  55.353 -52.312  1.00  0.00     0.076 A 
HETATM   22  C   UNL     1     -41.991  55.261 -49.996  1.00  0.00     0.073 C 
HETATM   23  C   UNL     1     -41.949  55.631 -53.638  1.00  0.00     0.051 A 
HETATM   24  O   UNL     1     -40.649  54.547 -51.891  1.00  0.00    -0.345 OA
HETATM   25  C   UNL     1     -40.617  54.748 -50.453  1.00  0.00     0.129 C 
HETATM   26  C   UNL     1     -40.229  53.442 -49.779  1.00  0.00     0.040 C 
BRANCH  18  27
HETATM   27  O   UNL     1     -44.927  57.748 -53.110  1.00  0.00    -0.351 OA
BRANCH  27  28
HETATM   28  C   UNL     1     -44.685  59.106 -52.716  1.00  0.00     0.171 C 
HETATM   29  C   UNL     1     -45.299  60.035 -53.748  1.00  0.00     0.034 C 
ENDBRANCH  27  28
ENDBRANCH  18  27
ENDBRANCH   1  17
TORSDOF 5
ENDMDL
MODEL 10
REMARK VINA RESULT:      -7.3      4.350      6.376
REMARK  5 active torsions:
REMARK  status: ('A' for Active; 'I' for Inactive)
REMARK    1  A    between atoms: C_2  and  O_3 
REMARK    2  A    between atoms: O_3  and  C_4 
REMARK    3  A    between atoms: C_5  and  C_6 
REMARK    4  A    between atoms: C_7  and  C_8 
REMARK       I    between atoms: C_8  and  N_9 
REMARK    5  A    between atoms: N_9  and  C_10 
ROOT
HETATM    1  C   UNL     1     -43.671  57.230 -55.946  1.00  0.00     0.042 C 
HETATM    2  C   UNL     1     -42.600  57.812 -55.375  1.00  0.00     0.113 C 
HETATM    3  C   UNL     1     -42.146  59.108 -55.728  1.00  0.00     0.105 C 
HETATM    4  N   UNL     1     -41.718  60.159 -55.973  1.00  0.00    -0.191 NA
ENDROOT
BRANCH   2   5
HETATM    5  C   UNL     1     -41.844  56.980 -54.374  1.00  0.00     0.266 C 
HETATM    6  N   UNL     1     -42.248  55.660 -54.268  1.00  0.00    -0.321 N 
HETATM    7  H   UNL     1     -42.742  55.255 -55.053  1.00  0.00     0.169 HD
HETATM    8  O   UNL     1     -40.909  57.474 -53.749  1.00  0.00    -0.267 OA
BRANCH   6   9
HETATM    9  C   UNL     1     -41.758  54.728 -53.315  1.00  0.00     0.047 A 
HETATM   10  C   UNL     1     -42.264  54.627 -51.999  1.00  0.00    -0.035 A 
HETATM   11  C   UNL     1     -43.454  55.392 -51.480  1.00  0.00     0.050 C 
HETATM   12  C   UNL     1     -41.672  53.717 -51.102  1.00  0.00     0.009 A 
HETATM   13  C   UNL     1     -40.649  52.870 -51.508  1.00  0.00     0.001 A 
HETATM   14  C   UNL     1     -40.205  52.910 -52.824  1.00  0.00     0.009 A 
HETATM   15  C   UNL     1     -40.751  53.825 -53.740  1.00  0.00    -0.035 A 
HETATM   16  C   UNL     1     -40.201  53.831 -55.143  1.00  0.00     0.050 C 
ENDBRANCH   6   9
ENDBRANCH   2   5
BRANCH   1  17
HETATM   17  C   UNL     1     -44.528  57.805 -56.993  1.00  0.00     0.002 A 
HETATM   18  C   UNL     1     -44.457  57.317 -58.319  1.00  0.00     0.079 A 
HETATM   19  C   UNL     1     -45.355  57.739 -59.303  1.00  0.00     0.047 A 
HETATM   20  C   UNL     1     -46.288  58.696 -58.955  1.00  0.00    -0.020 A 
HETATM   21  C   UNL     1     -46.335  59.209 -57.668  1.00  0.00     0.076 A 
HETATM   22  C   UNL     1     -47.402  59.260 -59.749  1.00  0.00     0.073 C 
HETATM   23  C   UNL     1     -45.481  58.780 -56.669  1.00  0.00     0.051 A 
HETATM   24  O   UNL     1     -47.334  60.130 -57.482  1.00  0.00    -0.345 OA
HETATM   25  C   UNL     1     -47.786  60.429 -58.830  1.00  0.00     0.129 C 
HETATM   26  C   UNL     1     -49.284  60.682 -58.804  1.00  0.00     0.040 C 
BRANCH  18  27
HETATM   27  O   UNL     1     -43.546  56.350 -58.665  1.00  0.00    -0.351 OA
BRANCH  27  28
HETATM   28  C   UNL     1     -43.921  55.710 -59.892  1.00  0.00     0.171 C 
HETATM   29  C   UNL     1     -44.457  54.324 -59.581  1.00  0.00     0.034 C 
ENDBRANCH  27  28
ENDBRANCH  18  27
ENDBRANCH   1  17
TORSDOF 5
ENDMDL
