MODEL 1
REMARK VINA RESULT:      -8.8      0.000      0.000
REMARK  9 active torsions:
REMARK  status: ('A' for Active; 'I' for Inactive)
REMARK    1  A    between atoms: C_2  and  C_3 
REMARK    2  A    between atoms: C_3  and  C_4 
REMARK    3  A    between atoms: C_4  and  O_5 
REMARK    4  A    between atoms: O_5  and  C_6 
REMARK    5  A    between atoms: C_8  and  C_9 
REMARK       I    between atoms: C_9  and  N_10 
REMARK    6  A    between atoms: N_10  and  C_11 
REMARK    7  A    between atoms: N_12  and  C_13 
REMARK    8  A    between atoms: C_15  and  C_16 
REMARK    9  A    between atoms: C_25  and  O_26 
ROOT
HETATM    1  C   UNL     1     -44.209  58.300 -51.898  1.00  0.00     0.179 C 
HETATM    2  N   UNL     1     -44.044  58.861 -53.116  1.00  0.00    -0.333 N 
HETATM    3  S   UNL     1     -45.432  58.888 -50.913  1.00  0.00    -0.040 SA
HETATM    4  H   UNL     1     -44.497  59.766 -53.194  1.00  0.00     0.168 HD
ENDROOT
BRANCH   2   5
HETATM    5  C   UNL     1     -43.518  58.364 -54.327  1.00  0.00     0.035 A 
HETATM    6  C   UNL     1     -42.962  59.163 -55.325  1.00  0.00     0.048 A 
HETATM    7  C   UNL     1     -42.504  58.614 -56.536  1.00  0.00     0.053 A 
HETATM    8  C   UNL     1     -42.523  57.216 -56.686  1.00  0.00     0.086 A 
HETATM    9  C   UNL     1     -43.010  56.386 -55.668  1.00  0.00    -0.026 A 
HETATM   10  C   UNL     1     -42.977  54.889 -55.799  1.00  0.00     0.051 C 
HETATM   11  C   UNL     1     -43.503  56.973 -54.494  1.00  0.00     0.039 A 
BRANCH   7  12
HETATM   12  C   UNL     1     -42.056  59.479 -57.623  1.00  0.00     0.183 A 
HETATM   13  O   UNL     1     -41.225  60.522 -57.296  1.00  0.00    -0.289 OA
HETATM   14  C   UNL     1     -41.055  61.187 -58.473  1.00  0.00     0.106 A 
HETATM   15  C   UNL     1     -41.774  60.516 -59.449  1.00  0.00     0.093 A 
HETATM   16  C   UNL     1     -40.311  62.340 -58.688  1.00  0.00     0.040 A 
HETATM   17  N   UNL     1     -42.392  59.418 -58.903  1.00  0.00    -0.221 NA
HETATM   18  C   UNL     1     -41.775  61.019 -60.755  1.00  0.00     0.034 A 
HETATM   19  C   UNL     1     -41.040  62.186 -61.015  1.00  0.00     0.002 A 
HETATM   20  C   UNL     1     -40.320  62.830 -59.999  1.00  0.00     0.003 A 
ENDBRANCH   7  12
BRANCH   8  21
HETATM   21  O   UNL     1     -42.064  56.603 -57.827  1.00  0.00    -0.359 OA
HETATM   22  H   UNL     1     -42.095  57.249 -58.564  1.00  0.00     0.218 HD
ENDBRANCH   8  21
ENDBRANCH   2   5
BRANCH   1  23
HETATM   23  N   UNL     1     -43.444  57.284 -51.418  1.00  0.00    -0.299 N 
HETATM   24  C   UNL     1     -42.116  57.281 -50.998  1.00  0.00     0.257 C 
HETATM   25  O   UNL     1     -41.470  58.280 -50.711  1.00  0.00    -0.267 OA
HETATM   26  H   UNL     1     -43.999  56.510 -51.076  1.00  0.00     0.171 HD
BRANCH  24  27
HETATM   27  C   UNL     1     -41.517  55.922 -50.825  1.00  0.00     0.035 A 
HETATM   28  C   UNL     1     -41.482  55.050 -51.920  1.00  0.00     0.053 A 
HETATM   29  C   UNL     1     -40.960  53.759 -51.788  1.00  0.00     0.069 A 
HETATM   30  C   UNL     1     -40.467  53.341 -50.550  1.00  0.00     0.037 A 
HETATM   31  C   UNL     1     -40.512  54.199 -49.448  1.00  0.00     0.004 A 
HETATM   32  C   UNL     1     -41.042  55.482 -49.581  1.00  0.00     0.017 A 
BRANCH  29  33
HETATM   33  O   UNL     1     -40.987  53.006 -52.930  1.00  0.00    -0.351 OA
BRANCH  33  34
HETATM   34  C   UNL     1     -39.875  52.143 -53.164  1.00  0.00     0.175 C 
BRANCH  34  35
HETATM   35  C   UNL     1     -40.154  51.280 -54.395  1.00  0.00     0.026 C 
BRANCH  35  36
HETATM   36  C   UNL     1     -39.894  49.796 -54.136  1.00  0.00    -0.002 C 
HETATM   37  C   UNL     1     -39.641  49.528 -52.661  1.00  0.00     0.005 C 
ENDBRANCH  35  36
ENDBRANCH  34  35
ENDBRANCH  33  34
ENDBRANCH  29  33
ENDBRANCH  24  27
ENDBRANCH   1  23
TORSDOF 9
ENDMDL
MODEL 2
REMARK VINA RESULT:      -8.5      2.671      8.186
REMARK  9 active torsions:
REMARK  status: ('A' for Active; 'I' for Inactive)
REMARK    1  A    between atoms: C_2  and  C_3 
REMARK    2  A    between atoms: C_3  and  C_4 
REMARK    3  A    between atoms: C_4  and  O_5 
REMARK    4  A    between atoms: O_5  and  C_6 
REMARK    5  A    between atoms: C_8  and  C_9 
REMARK       I    between atoms: C_9  and  N_10 
REMARK    6  A    between atoms: N_10  and  C_11 
REMARK    7  A    between atoms: N_12  and  C_13 
REMARK    8  A    between atoms: C_15  and  C_16 
REMARK    9  A    between atoms: C_25  and  O_26 
ROOT
HETATM    1  C   UNL     1     -44.534  59.600 -54.976  1.00  0.00     0.179 C 
HETATM    2  N   UNL     1     -44.360  59.382 -53.654  1.00  0.00    -0.333 N 
HETATM    3  S   UNL     1     -45.474  60.906 -55.449  1.00  0.00    -0.040 SA
HETATM    4  H   UNL     1     -45.047  59.867 -53.085  1.00  0.00     0.168 HD
ENDROOT
BRANCH   2   5
HETATM    5  C   UNL     1     -43.327  58.760 -52.923  1.00  0.00     0.035 A 
HETATM    6  C   UNL     1     -42.786  57.514 -53.237  1.00  0.00     0.048 A 
HETATM    7  C   UNL     1     -41.795  56.921 -52.436  1.00  0.00     0.053 A 
HETATM    8  C   UNL     1     -41.277  57.658 -51.356  1.00  0.00     0.086 A 
HETATM    9  C   UNL     1     -41.753  58.942 -51.062  1.00  0.00    -0.026 A 
HETATM   10  C   UNL     1     -41.163  59.757 -49.947  1.00  0.00     0.051 C 
HETATM   11  C   UNL     1     -42.777  59.481 -51.855  1.00  0.00     0.039 A 
BRANCH   7  12
HETATM   12  C   UNL     1     -41.342  55.559 -52.700  1.00  0.00     0.183 A 
HETATM   13  O   UNL     1     -41.000  54.788 -51.617  1.00  0.00    -0.289 OA
HETATM   14  C   UNL     1     -40.542  53.629 -52.170  1.00  0.00     0.106 A 
HETATM   15  C   UNL     1     -40.639  53.748 -53.548  1.00  0.00     0.093 A 
HETATM   16  C   UNL     1     -40.049  52.515 -51.503  1.00  0.00     0.040 A 
HETATM   17  N   UNL     1     -41.168  54.972 -53.875  1.00  0.00    -0.221 NA
HETATM   18  C   UNL     1     -40.209  52.685 -54.351  1.00  0.00     0.034 A 
HETATM   19  C   UNL     1     -39.698  51.542 -53.717  1.00  0.00     0.002 A 
HETATM   20  C   UNL     1     -39.624  51.460 -52.320  1.00  0.00     0.003 A 
ENDBRANCH   7  12
BRANCH   8  21
HETATM   21  O   UNL     1     -40.285  57.158 -50.547  1.00  0.00    -0.359 OA
HETATM   22  H   UNL     1     -39.448  57.624 -50.752  1.00  0.00     0.218 HD
ENDBRANCH   8  21
ENDBRANCH   2   5
BRANCH   1  23
HETATM   23  N   UNL     1     -43.993  58.824 -55.954  1.00  0.00    -0.299 N 
HETATM   24  C   UNL     1     -42.785  58.950 -56.635  1.00  0.00     0.257 C 
HETATM   25  O   UNL     1     -41.842  59.637 -56.266  1.00  0.00    -0.267 OA
HETATM   26  H   UNL     1     -44.404  57.900 -55.986  1.00  0.00     0.171 HD
BRANCH  24  27
HETATM   27  C   UNL     1     -42.662  58.096 -57.856  1.00  0.00     0.035 A 
HETATM   28  C   UNL     1     -43.367  56.888 -57.915  1.00  0.00     0.053 A 
HETATM   29  C   UNL     1     -43.250  56.047 -59.026  1.00  0.00     0.069 A 
HETATM   30  C   UNL     1     -42.421  56.421 -60.086  1.00  0.00     0.037 A 
HETATM   31  C   UNL     1     -41.701  57.616 -60.029  1.00  0.00     0.004 A 
HETATM   32  C   UNL     1     -41.813  58.448 -58.915  1.00  0.00     0.017 A 
BRANCH  29  33
HETATM   33  O   UNL     1     -43.989  54.896 -58.959  1.00  0.00    -0.351 OA
BRANCH  33  34
HETATM   34  C   UNL     1     -44.804  54.583 -60.088  1.00  0.00     0.175 C 
BRANCH  34  35
HETATM   35  C   UNL     1     -45.373  55.874 -60.675  1.00  0.00     0.026 C 
BRANCH  35  36
HETATM   36  C   UNL     1     -46.801  56.149 -60.200  1.00  0.00    -0.002 C 
HETATM   37  C   UNL     1     -46.839  57.284 -59.189  1.00  0.00     0.005 C 
ENDBRANCH  35  36
ENDBRANCH  34  35
ENDBRANCH  33  34
ENDBRANCH  29  33
ENDBRANCH  24  27
ENDBRANCH   1  23
TORSDOF 9
ENDMDL
MODEL 3
REMARK VINA RESULT:      -8.2      2.918     10.213
REMARK  9 active torsions:
REMARK  status: ('A' for Active; 'I' for Inactive)
REMARK    1  A    between atoms: C_2  and  C_3 
REMARK    2  A    between atoms: C_3  and  C_4 
REMARK    3  A    between atoms: C_4  and  O_5 
REMARK    4  A    between atoms: O_5  and  C_6 
REMARK    5  A    between atoms: C_8  and  C_9 
REMARK       I    between atoms: C_9  and  N_10 
REMARK    6  A    between atoms: N_10  and  C_11 
REMARK    7  A    between atoms: N_12  and  C_13 
REMARK    8  A    between atoms: C_15  and  C_16 
REMARK    9  A    between atoms: C_25  and  O_26 
ROOT
HETATM    1  C   UNL     1     -44.351  56.528 -59.077  1.00  0.00     0.179 C 
HETATM    2  N   UNL     1     -43.876  55.702 -58.119  1.00  0.00    -0.333 N 
HETATM    3  S   UNL     1     -45.740  56.075 -59.899  1.00  0.00    -0.040 SA
HETATM    4  H   UNL     1     -44.253  54.762 -58.193  1.00  0.00     0.168 HD
ENDROOT
BRANCH   2   5
HETATM    5  C   UNL     1     -43.106  55.935 -56.960  1.00  0.00     0.035 A 
HETATM    6  C   UNL     1     -42.405  54.944 -56.274  1.00  0.00     0.048 A 
HETATM    7  C   UNL     1     -41.700  55.228 -55.092  1.00  0.00     0.053 A 
HETATM    8  C   UNL     1     -41.627  56.565 -54.661  1.00  0.00     0.086 A 
HETATM    9  C   UNL     1     -42.262  57.590 -55.373  1.00  0.00    -0.026 A 
HETATM   10  C   UNL     1     -42.137  59.027 -54.951  1.00  0.00     0.051 C 
HETATM   11  C   UNL     1     -42.997  57.261 -56.522  1.00  0.00     0.039 A 
BRANCH   7  12
HETATM   12  C   UNL     1     -41.091  54.155 -54.313  1.00  0.00     0.183 A 
HETATM   13  O   UNL     1     -40.880  52.957 -54.949  1.00  0.00    -0.289 OA
HETATM   14  C   UNL     1     -40.397  52.144 -53.967  1.00  0.00     0.106 A 
HETATM   15  C   UNL     1     -40.328  52.885 -52.797  1.00  0.00     0.093 A 
HETATM   16  C   UNL     1     -40.039  50.807 -54.081  1.00  0.00     0.040 A 
HETATM   17  N   UNL     1     -40.753  54.169 -53.031  1.00  0.00    -0.221 NA
HETATM   18  C   UNL     1     -39.876  52.262 -51.628  1.00  0.00     0.034 A 
HETATM   19  C   UNL     1     -39.509  50.909 -51.698  1.00  0.00     0.002 A 
HETATM   20  C   UNL     1     -39.587  50.199 -52.903  1.00  0.00     0.003 A 
ENDBRANCH   7  12
BRANCH   8  21
HETATM   21  O   UNL     1     -40.930  56.926 -53.532  1.00  0.00    -0.359 OA
HETATM   22  H   UNL     1     -39.990  57.060 -53.774  1.00  0.00     0.218 HD
ENDBRANCH   8  21
ENDBRANCH   2   5
BRANCH   1  23
HETATM   23  N   UNL     1     -43.771  57.710 -59.418  1.00  0.00    -0.299 N 
HETATM   24  C   UNL     1     -42.508  57.973 -59.943  1.00  0.00     0.257 C 
HETATM   25  O   UNL     1     -41.782  57.141 -60.470  1.00  0.00    -0.267 OA
HETATM   26  H   UNL     1     -44.450  58.448 -59.557  1.00  0.00     0.171 HD
BRANCH  24  27
HETATM   27  C   UNL     1     -42.100  59.411 -59.904  1.00  0.00     0.035 A 
HETATM   28  C   UNL     1     -41.907  60.096 -61.109  1.00  0.00     0.053 A 
HETATM   29  C   UNL     1     -41.491  61.432 -61.112  1.00  0.00     0.069 A 
HETATM   30  C   UNL     1     -41.270  62.085 -59.898  1.00  0.00     0.037 A 
HETATM   31  C   UNL     1     -41.445  61.404 -58.691  1.00  0.00     0.004 A 
HETATM   32  C   UNL     1     -41.849  60.069 -58.691  1.00  0.00     0.017 A 
BRANCH  29  33
HETATM   33  O   UNL     1     -41.338  61.985 -62.355  1.00  0.00    -0.351 OA
BRANCH  33  34
HETATM   34  C   UNL     1     -40.771  63.294 -62.416  1.00  0.00     0.175 C 
BRANCH  34  35
HETATM   35  C   UNL     1     -39.298  63.189 -62.811  1.00  0.00     0.026 C 
BRANCH  35  36
HETATM   36  C   UNL     1     -38.447  64.293 -62.182  1.00  0.00    -0.002 C 
HETATM   37  C   UNL     1     -38.460  64.202 -60.664  1.00  0.00     0.005 C 
ENDBRANCH  35  36
ENDBRANCH  34  35
ENDBRANCH  33  34
ENDBRANCH  29  33
ENDBRANCH  24  27
ENDBRANCH   1  23
TORSDOF 9
ENDMDL
MODEL 4
REMARK VINA RESULT:      -8.1      3.206      5.480
REMARK  9 active torsions:
REMARK  status: ('A' for Active; 'I' for Inactive)
REMARK    1  A    between atoms: C_2  and  C_3 
REMARK    2  A    between atoms: C_3  and  C_4 
REMARK    3  A    between atoms: C_4  and  O_5 
REMARK    4  A    between atoms: O_5  and  C_6 
REMARK    5  A    between atoms: C_8  and  C_9 
REMARK       I    between atoms: C_9  and  N_10 
REMARK    6  A    between atoms: N_10  and  C_11 
REMARK    7  A    between atoms: N_12  and  C_13 
REMARK    8  A    between atoms: C_15  and  C_16 
REMARK    9  A    between atoms: C_25  and  O_26 
ROOT
HETATM    1  C   UNL     1     -45.752  60.633 -53.078  1.00  0.00     0.179 C 
HETATM    2  N   UNL     1     -45.868  60.449 -54.411  1.00  0.00    -0.333 N 
HETATM    3  S   UNL     1     -46.966  61.476 -52.285  1.00  0.00    -0.040 SA
HETATM    4  H   UNL     1     -46.538  61.082 -54.837  1.00  0.00     0.168 HD
ENDROOT
BRANCH   2   5
HETATM    5  C   UNL     1     -45.371  59.452 -55.278  1.00  0.00     0.035 A 
HETATM    6  C   UNL     1     -44.686  58.315 -54.851  1.00  0.00     0.048 A 
HETATM    7  C   UNL     1     -44.166  57.385 -55.768  1.00  0.00     0.053 A 
HETATM    8  C   UNL     1     -44.438  57.568 -57.135  1.00  0.00     0.086 A 
HETATM    9  C   UNL     1     -45.186  58.664 -57.583  1.00  0.00    -0.026 A 
HETATM   10  C   UNL     1     -45.530  58.834 -59.036  1.00  0.00     0.051 C 
HETATM   11  C   UNL     1     -45.647  59.598 -56.644  1.00  0.00     0.039 A 
BRANCH   7  12
HETATM   12  C   UNL     1     -43.333  56.277 -55.311  1.00  0.00     0.183 A 
HETATM   13  O   UNL     1     -41.979  56.382 -55.512  1.00  0.00    -0.289 OA
HETATM   14  C   UNL     1     -41.488  55.188 -55.076  1.00  0.00     0.106 A 
HETATM   15  C   UNL     1     -42.556  54.428 -54.625  1.00  0.00     0.093 A 
HETATM   16  C   UNL     1     -40.163  54.770 -55.079  1.00  0.00     0.040 A 
HETATM   17  N   UNL     1     -43.724  55.137 -54.760  1.00  0.00    -0.221 NA
HETATM   18  C   UNL     1     -42.312  53.138 -54.139  1.00  0.00     0.034 A 
HETATM   19  C   UNL     1     -40.987  52.674 -54.130  1.00  0.00     0.002 A 
HETATM   20  C   UNL     1     -39.935  53.479 -54.589  1.00  0.00     0.003 A 
ENDBRANCH   7  12
BRANCH   8  21
HETATM   21  O   UNL     1     -43.990  56.685 -58.088  1.00  0.00    -0.359 OA
HETATM   22  H   UNL     1     -43.431  57.172 -58.730  1.00  0.00     0.218 HD
ENDBRANCH   8  21
ENDBRANCH   2   5
BRANCH   1  23
HETATM   23  N   UNL     1     -44.709  60.178 -52.333  1.00  0.00    -0.299 N 
HETATM   24  C   UNL     1     -43.496  60.785 -52.021  1.00  0.00     0.257 C 
HETATM   25  O   UNL     1     -43.264  61.982 -52.128  1.00  0.00    -0.267 OA
HETATM   26  H   UNL     1     -44.976  59.421 -51.717  1.00  0.00     0.171 HD
BRANCH  24  27
HETATM   27  C   UNL     1     -42.467  59.868 -51.441  1.00  0.00     0.035 A 
HETATM   28  C   UNL     1     -42.455  58.524 -51.832  1.00  0.00     0.053 A 
HETATM   29  C   UNL     1     -41.530  57.630 -51.285  1.00  0.00     0.069 A 
HETATM   30  C   UNL     1     -40.609  58.087 -50.340  1.00  0.00     0.037 A 
HETATM   31  C   UNL     1     -40.623  59.422 -49.932  1.00  0.00     0.004 A 
HETATM   32  C   UNL     1     -41.554  60.310 -50.472  1.00  0.00     0.017 A 
BRANCH  29  33
HETATM   33  O   UNL     1     -41.625  56.345 -51.749  1.00  0.00    -0.351 OA
BRANCH  33  34
HETATM   34  C   UNL     1     -42.675  55.539 -51.217  1.00  0.00     0.175 C 
BRANCH  34  35
HETATM   35  C   UNL     1     -42.073  54.417 -50.371  1.00  0.00     0.026 C 
BRANCH  35  36
HETATM   36  C   UNL     1     -40.629  54.104 -50.766  1.00  0.00    -0.002 C 
HETATM   37  C   UNL     1     -39.677  54.329 -49.602  1.00  0.00     0.005 C 
ENDBRANCH  35  36
ENDBRANCH  34  35
ENDBRANCH  33  34
ENDBRANCH  29  33
ENDBRANCH  24  27
ENDBRANCH   1  23
TORSDOF 9
ENDMDL
MODEL 5
REMARK VINA RESULT:      -8.1      2.791      9.677
REMARK  9 active torsions:
REMARK  status: ('A' for Active; 'I' for Inactive)
REMARK    1  A    between atoms: C_2  and  C_3 
REMARK    2  A    between atoms: C_3  and  C_4 
REMARK    3  A    between atoms: C_4  and  O_5 
REMARK    4  A    between atoms: O_5  and  C_6 
REMARK    5  A    between atoms: C_8  and  C_9 
REMARK       I    between atoms: C_9  and  N_10 
REMARK    6  A    between atoms: N_10  and  C_11 
REMARK    7  A    between atoms: N_12  and  C_13 
REMARK    8  A    between atoms: C_15  and  C_16 
REMARK    9  A    between atoms: C_25  and  O_26 
ROOT
HETATM    1  C   UNL     1     -44.499  56.627 -59.148  1.00  0.00     0.179 C 
HETATM    2  N   UNL     1     -44.042  55.843 -58.148  1.00  0.00    -0.333 N 
HETATM    3  S   UNL     1     -45.927  56.189 -59.911  1.00  0.00    -0.040 SA
HETATM    4  H   UNL     1     -44.464  54.920 -58.151  1.00  0.00     0.168 HD
ENDROOT
BRANCH   2   5
HETATM    5  C   UNL     1     -43.234  56.113 -57.023  1.00  0.00     0.035 A 
HETATM    6  C   UNL     1     -42.522  55.142 -56.320  1.00  0.00     0.048 A 
HETATM    7  C   UNL     1     -41.778  55.466 -55.172  1.00  0.00     0.053 A 
HETATM    8  C   UNL     1     -41.679  56.817 -54.796  1.00  0.00     0.086 A 
HETATM    9  C   UNL     1     -42.327  57.820 -55.529  1.00  0.00    -0.026 A 
HETATM   10  C   UNL     1     -42.177  59.271 -55.168  1.00  0.00     0.051 C 
HETATM   11  C   UNL     1     -43.100  57.454 -56.640  1.00  0.00     0.039 A 
BRANCH   7  12
HETATM   12  C   UNL     1     -41.155  54.417 -54.370  1.00  0.00     0.183 A 
HETATM   13  O   UNL     1     -40.900  53.219 -54.988  1.00  0.00    -0.289 OA
HETATM   14  C   UNL     1     -40.414  52.430 -53.989  1.00  0.00     0.106 A 
HETATM   15  C   UNL     1     -40.386  53.185 -52.827  1.00  0.00     0.093 A 
HETATM   16  C   UNL     1     -40.018  51.102 -54.081  1.00  0.00     0.040 A 
HETATM   17  N   UNL     1     -40.841  54.455 -53.083  1.00  0.00    -0.221 NA
HETATM   18  C   UNL     1     -39.939  52.587 -51.642  1.00  0.00     0.034 A 
HETATM   19  C   UNL     1     -39.535  51.244 -51.690  1.00  0.00     0.002 A 
HETATM   20  C   UNL     1     -39.572  50.519 -52.889  1.00  0.00     0.003 A 
ENDBRANCH   7  12
BRANCH   8  21
HETATM   21  O   UNL     1     -40.945  57.215 -53.705  1.00  0.00    -0.359 OA
HETATM   22  H   UNL     1     -40.495  56.430 -53.327  1.00  0.00     0.218 HD
ENDBRANCH   8  21
ENDBRANCH   2   5
BRANCH   1  23
HETATM   23  N   UNL     1     -43.872  57.754 -59.580  1.00  0.00    -0.299 N 
HETATM   24  C   UNL     1     -42.589  57.928 -60.092  1.00  0.00     0.257 C 
HETATM   25  O   UNL     1     -41.879  57.029 -60.522  1.00  0.00    -0.267 OA
HETATM   26  H   UNL     1     -44.522  58.497 -59.802  1.00  0.00     0.171 HD
BRANCH  24  27
HETATM   27  C   UNL     1     -42.134  59.350 -60.172  1.00  0.00     0.035 A 
HETATM   28  C   UNL     1     -42.015  60.093 -58.991  1.00  0.00     0.053 A 
HETATM   29  C   UNL     1     -41.626  61.436 -59.029  1.00  0.00     0.069 A 
HETATM   30  C   UNL     1     -41.349  62.036 -60.260  1.00  0.00     0.037 A 
HETATM   31  C   UNL     1     -41.479  61.306 -61.443  1.00  0.00     0.004 A 
HETATM   32  C   UNL     1     -41.878  59.971 -61.403  1.00  0.00     0.017 A 
BRANCH  29  33
HETATM   33  O   UNL     1     -41.551  62.050 -57.808  1.00  0.00    -0.351 OA
BRANCH  33  34
HETATM   34  C   UNL     1     -42.563  63.008 -57.501  1.00  0.00     0.175 C 
BRANCH  34  35
HETATM   35  C   UNL     1     -43.402  62.498 -56.328  1.00  0.00     0.026 C 
BRANCH  35  36
HETATM   36  C   UNL     1     -44.606  61.676 -56.789  1.00  0.00    -0.002 C 
HETATM   37  C   UNL     1     -45.130  62.168 -58.129  1.00  0.00     0.005 C 
ENDBRANCH  35  36
ENDBRANCH  34  35
ENDBRANCH  33  34
ENDBRANCH  29  33
ENDBRANCH  24  27
ENDBRANCH   1  23
TORSDOF 9
ENDMDL
MODEL 6
REMARK VINA RESULT:      -8.0      3.145      9.052
REMARK  9 active torsions:
REMARK  status: ('A' for Active; 'I' for Inactive)
REMARK    1  A    between atoms: C_2  and  C_3 
REMARK    2  A    between atoms: C_3  and  C_4 
REMARK    3  A    between atoms: C_4  and  O_5 
REMARK    4  A    between atoms: O_5  and  C_6 
REMARK    5  A    between atoms: C_8  and  C_9 
REMARK       I    between atoms: C_9  and  N_10 
REMARK    6  A    between atoms: N_10  and  C_11 
REMARK    7  A    between atoms: N_12  and  C_13 
REMARK    8  A    between atoms: C_15  and  C_16 
REMARK    9  A    between atoms: C_25  and  O_26 
ROOT
HETATM    1  C   UNL     1     -42.669  59.285 -56.543  1.00  0.00     0.179 C 
HETATM    2  N   UNL     1     -42.646  59.366 -55.195  1.00  0.00    -0.333 N 
HETATM    3  S   UNL     1     -41.728  60.362 -57.419  1.00  0.00    -0.040 SA
HETATM    4  H   UNL     1     -42.278  60.252 -54.863  1.00  0.00     0.168 HD
ENDROOT
BRANCH   2   5
HETATM    5  C   UNL     1     -42.872  58.410 -54.182  1.00  0.00     0.035 A 
HETATM    6  C   UNL     1     -42.067  57.291 -53.969  1.00  0.00     0.048 A 
HETATM    7  C   UNL     1     -42.376  56.343 -52.979  1.00  0.00     0.053 A 
HETATM    8  C   UNL     1     -43.465  56.595 -52.127  1.00  0.00     0.086 A 
HETATM    9  C   UNL     1     -44.246  57.749 -52.273  1.00  0.00    -0.026 A 
HETATM   10  C   UNL     1     -45.375  58.053 -51.329  1.00  0.00     0.051 C 
HETATM   11  C   UNL     1     -43.937  58.648 -53.305  1.00  0.00     0.039 A 
BRANCH   7  12
HETATM   12  C   UNL     1     -41.604  55.109 -52.864  1.00  0.00     0.183 A 
HETATM   13  O   UNL     1     -41.454  54.352 -53.999  1.00  0.00    -0.289 OA
HETATM   14  C   UNL     1     -40.783  53.246 -53.570  1.00  0.00     0.106 A 
HETATM   15  C   UNL     1     -40.550  53.390 -52.212  1.00  0.00     0.093 A 
HETATM   16  C   UNL     1     -40.396  52.149 -54.329  1.00  0.00     0.040 A 
HETATM   17  N   UNL     1     -41.058  54.588 -51.775  1.00  0.00    -0.221 NA
HETATM   18  C   UNL     1     -39.885  52.366 -51.527  1.00  0.00     0.034 A 
HETATM   19  C   UNL     1     -39.482  51.236 -52.255  1.00  0.00     0.002 A 
HETATM   20  C   UNL     1     -39.731  51.134 -53.631  1.00  0.00     0.003 A 
ENDBRANCH   7  12
BRANCH   8  21
HETATM   21  O   UNL     1     -43.810  55.731 -51.115  1.00  0.00    -0.359 OA
HETATM   22  H   UNL     1     -43.367  56.020 -50.290  1.00  0.00     0.218 HD
ENDBRANCH   8  21
ENDBRANCH   2   5
BRANCH   1  23
HETATM   23  N   UNL     1     -43.409  58.381 -57.239  1.00  0.00    -0.299 N 
HETATM   24  C   UNL     1     -43.117  57.069 -57.602  1.00  0.00     0.257 C 
HETATM   25  O   UNL     1     -42.235  56.383 -57.099  1.00  0.00    -0.267 OA
HETATM   26  H   UNL     1     -44.393  58.615 -57.252  1.00  0.00     0.171 HD
BRANCH  24  27
HETATM   27  C   UNL     1     -44.033  56.482 -58.627  1.00  0.00     0.035 A 
HETATM   28  C   UNL     1     -45.179  57.194 -59.002  1.00  0.00     0.053 A 
HETATM   29  C   UNL     1     -46.077  56.662 -59.932  1.00  0.00     0.069 A 
HETATM   30  C   UNL     1     -45.823  55.408 -60.492  1.00  0.00     0.037 A 
HETATM   31  C   UNL     1     -44.691  54.684 -60.113  1.00  0.00     0.004 A 
HETATM   32  C   UNL     1     -43.802  55.213 -59.177  1.00  0.00     0.017 A 
BRANCH  29  33
HETATM   33  O   UNL     1     -47.157  57.455 -60.210  1.00  0.00    -0.351 OA
BRANCH  33  34
HETATM   34  C   UNL     1     -47.052  58.837 -59.870  1.00  0.00     0.175 C 
BRANCH  34  35
HETATM   35  C   UNL     1     -46.615  59.629 -61.102  1.00  0.00     0.026 C 
BRANCH  35  36
HETATM   36  C   UNL     1     -45.457  60.582 -60.800  1.00  0.00    -0.002 C 
HETATM   37  C   UNL     1     -44.114  59.928 -61.082  1.00  0.00     0.005 C 
ENDBRANCH  35  36
ENDBRANCH  34  35
ENDBRANCH  33  34
ENDBRANCH  29  33
ENDBRANCH  24  27
ENDBRANCH   1  23
TORSDOF 9
ENDMDL
MODEL 7
REMARK VINA RESULT:      -8.0      3.011      8.722
REMARK  9 active torsions:
REMARK  status: ('A' for Active; 'I' for Inactive)
REMARK    1  A    between atoms: C_2  and  C_3 
REMARK    2  A    between atoms: C_3  and  C_4 
REMARK    3  A    between atoms: C_4  and  O_5 
REMARK    4  A    between atoms: O_5  and  C_6 
REMARK    5  A    between atoms: C_8  and  C_9 
REMARK       I    between atoms: C_9  and  N_10 
REMARK    6  A    between atoms: N_10  and  C_11 
REMARK    7  A    between atoms: N_12  and  C_13 
REMARK    8  A    between atoms: C_15  and  C_16 
REMARK    9  A    between atoms: C_25  and  O_26 
ROOT
HETATM    1  C   UNL     1     -42.533  57.866 -57.893  1.00  0.00     0.179 C 
HETATM    2  N   UNL     1     -42.060  56.772 -57.256  1.00  0.00    -0.333 N 
HETATM    3  S   UNL     1     -42.672  57.813 -59.564  1.00  0.00    -0.040 SA
HETATM    4  H   UNL     1     -41.576  56.136 -57.881  1.00  0.00     0.168 HD
ENDROOT
BRANCH   2   5
HETATM    5  C   UNL     1     -42.255  56.276 -55.950  1.00  0.00     0.035 A 
HETATM    6  C   UNL     1     -41.520  55.230 -55.393  1.00  0.00     0.048 A 
HETATM    7  C   UNL     1     -41.799  54.743 -54.104  1.00  0.00     0.053 A 
HETATM    8  C   UNL     1     -42.776  55.401 -53.336  1.00  0.00     0.086 A 
HETATM    9  C   UNL     1     -43.478  56.500 -53.846  1.00  0.00    -0.026 A 
HETATM   10  C   UNL     1     -44.480  57.243 -53.009  1.00  0.00     0.051 C 
HETATM   11  C   UNL     1     -43.206  56.927 -55.154  1.00  0.00     0.039 A 
BRANCH   7  12
HETATM   12  C   UNL     1     -41.114  53.559 -53.593  1.00  0.00     0.183 A 
HETATM   13  O   UNL     1     -40.965  52.498 -54.451  1.00  0.00    -0.289 OA
HETATM   14  C   UNL     1     -40.386  51.533 -53.683  1.00  0.00     0.106 A 
HETATM   15  C   UNL     1     -40.204  52.053 -52.412  1.00  0.00     0.093 A 
HETATM   16  C   UNL     1     -40.039  50.244 -54.070  1.00  0.00     0.040 A 
HETATM   17  N   UNL     1     -40.653  53.350 -52.369  1.00  0.00    -0.221 NA
HETATM   18  C   UNL     1     -39.639  51.241 -51.422  1.00  0.00     0.034 A 
HETATM   19  C   UNL     1     -39.278  49.929 -51.769  1.00  0.00     0.002 A 
HETATM   20  C   UNL     1     -39.473  49.444 -53.070  1.00  0.00     0.003 A 
ENDBRANCH   7  12
BRANCH   8  21
HETATM   21  O   UNL     1     -43.081  55.002 -52.056  1.00  0.00    -0.359 OA
HETATM   22  H   UNL     1     -44.017  55.229 -51.873  1.00  0.00     0.218 HD
ENDBRANCH   8  21
ENDBRANCH   2   5
BRANCH   1  23
HETATM   23  N   UNL     1     -42.906  59.012 -57.264  1.00  0.00    -0.299 N 
HETATM   24  C   UNL     1     -42.178  60.168 -56.996  1.00  0.00     0.257 C 
HETATM   25  O   UNL     1     -41.128  60.477 -57.546  1.00  0.00    -0.267 OA
HETATM   26  H   UNL     1     -43.911  59.128 -57.235  1.00  0.00     0.171 HD
BRANCH  24  27
HETATM   27  C   UNL     1     -42.816  61.099 -56.017  1.00  0.00     0.035 A 
HETATM   28  C   UNL     1     -42.543  60.943 -54.652  1.00  0.00     0.053 A 
HETATM   29  C   UNL     1     -43.148  61.773 -53.704  1.00  0.00     0.069 A 
HETATM   30  C   UNL     1     -44.032  62.769 -54.126  1.00  0.00     0.037 A 
HETATM   31  C   UNL     1     -44.322  62.922 -55.483  1.00  0.00     0.004 A 
HETATM   32  C   UNL     1     -43.725  62.085 -56.427  1.00  0.00     0.017 A 
BRANCH  29  33
HETATM   33  O   UNL     1     -42.799  61.516 -52.405  1.00  0.00    -0.351 OA
BRANCH  33  34
HETATM   34  C   UNL     1     -43.052  60.200 -51.914  1.00  0.00     0.175 C 
BRANCH  34  35
HETATM   35  C   UNL     1     -41.873  59.746 -51.054  1.00  0.00     0.026 C 
BRANCH  35  36
HETATM   36  C   UNL     1     -41.236  58.457 -51.575  1.00  0.00    -0.002 C 
HETATM   37  C   UNL     1     -40.425  58.711 -52.836  1.00  0.00     0.005 C 
ENDBRANCH  35  36
ENDBRANCH  34  35
ENDBRANCH  33  34
ENDBRANCH  29  33
ENDBRANCH  24  27
ENDBRANCH   1  23
TORSDOF 9
ENDMDL
MODEL 8
REMARK VINA RESULT:      -7.8      2.663      7.388
REMARK  9 active torsions:
REMARK  status: ('A' for Active; 'I' for Inactive)
REMARK    1  A    between atoms: C_2  and  C_3 
REMARK    2  A    between atoms: C_3  and  C_4 
REMARK    3  A    between atoms: C_4  and  O_5 
REMARK    4  A    between atoms: O_5  and  C_6 
REMARK    5  A    between atoms: C_8  and  C_9 
REMARK       I    between atoms: C_9  and  N_10 
REMARK    6  A    between atoms: N_10  and  C_11 
REMARK    7  A    between atoms: N_12  and  C_13 
REMARK    8  A    between atoms: C_15  and  C_16 
REMARK    9  A    between atoms: C_25  and  O_26 
ROOT
HETATM    1  C   UNL     1     -44.368  61.242 -55.935  1.00  0.00     0.179 C 
HETATM    2  N   UNL     1     -44.540  61.672 -54.666  1.00  0.00    -0.333 N 
HETATM    3  S   UNL     1     -44.584  62.342 -57.182  1.00  0.00    -0.040 SA
HETATM    4  H   UNL     1     -45.056  62.545 -54.616  1.00  0.00     0.168 HD
ENDROOT
BRANCH   2   5
HETATM    5  C   UNL     1     -44.004  61.237 -53.435  1.00  0.00     0.035 A 
HETATM    6  C   UNL     1     -43.642  59.918 -53.163  1.00  0.00     0.048 A 
HETATM    7  C   UNL     1     -43.165  59.535 -51.897  1.00  0.00     0.053 A 
HETATM    8  C   UNL     1     -42.961  60.534 -50.928  1.00  0.00     0.086 A 
HETATM    9  C   UNL     1     -43.249  61.877 -51.201  1.00  0.00    -0.026 A 
HETATM   10  C   UNL     1     -42.977  62.955 -50.191  1.00  0.00     0.051 C 
HETATM   11  C   UNL     1     -43.769  62.214 -52.459  1.00  0.00     0.039 A 
BRANCH   7  12
HETATM   12  C   UNL     1     -42.924  58.129 -51.588  1.00  0.00     0.183 A 
HETATM   13  O   UNL     1     -41.711  57.805 -51.035  1.00  0.00    -0.289 OA
HETATM   14  C   UNL     1     -41.743  56.445 -50.945  1.00  0.00     0.106 A 
HETATM   15  C   UNL     1     -42.968  56.016 -51.432  1.00  0.00     0.093 A 
HETATM   16  C   UNL     1     -40.743  55.608 -50.468  1.00  0.00     0.040 A 
HETATM   17  N   UNL     1     -43.721  57.096 -51.820  1.00  0.00    -0.221 NA
HETATM   18  C   UNL     1     -43.240  54.644 -51.464  1.00  0.00     0.034 A 
HETATM   19  C   UNL     1     -42.253  53.762 -50.996  1.00  0.00     0.002 A 
HETATM   20  C   UNL     1     -41.030  54.239 -50.505  1.00  0.00     0.003 A 
ENDBRANCH   7  12
BRANCH   8  21
HETATM   21  O   UNL     1     -42.468  60.241 -49.678  1.00  0.00    -0.359 OA
HETATM   22  H   UNL     1     -43.219  60.182 -49.051  1.00  0.00     0.218 HD
ENDBRANCH   8  21
ENDBRANCH   2   5
BRANCH   1  23
HETATM   23  N   UNL     1     -44.029  59.968 -56.268  1.00  0.00    -0.299 N 
HETATM   24  C   UNL     1     -42.827  59.455 -56.750  1.00  0.00     0.257 C 
HETATM   25  O   UNL     1     -41.747  60.027 -56.688  1.00  0.00    -0.267 OA
HETATM   26  H   UNL     1     -44.647  59.283 -55.854  1.00  0.00     0.171 HD
BRANCH  24  27
HETATM   27  C   UNL     1     -42.913  58.067 -57.298  1.00  0.00     0.035 A 
HETATM   28  C   UNL     1     -42.618  56.985 -56.460  1.00  0.00     0.053 A 
HETATM   29  C   UNL     1     -42.654  55.675 -56.946  1.00  0.00     0.069 A 
HETATM   30  C   UNL     1     -42.991  55.447 -58.282  1.00  0.00     0.037 A 
HETATM   31  C   UNL     1     -43.272  56.521 -59.130  1.00  0.00     0.004 A 
HETATM   32  C   UNL     1     -43.225  57.828 -58.644  1.00  0.00     0.017 A 
BRANCH  29  33
HETATM   33  O   UNL     1     -42.343  54.709 -56.027  1.00  0.00    -0.351 OA
BRANCH  33  34
HETATM   34  C   UNL     1     -41.654  55.131 -54.850  1.00  0.00     0.175 C 
BRANCH  34  35
HETATM   35  C   UNL     1     -40.488  54.181 -54.579  1.00  0.00     0.026 C 
BRANCH  35  36
HETATM   36  C   UNL     1     -40.950  52.738 -54.369  1.00  0.00    -0.002 C 
HETATM   37  C   UNL     1     -39.983  51.972 -53.479  1.00  0.00     0.005 C 
ENDBRANCH  35  36
ENDBRANCH  34  35
ENDBRANCH  33  34
ENDBRANCH  29  33
ENDBRANCH  24  27
ENDBRANCH   1  23
TORSDOF 9
ENDMDL
MODEL 9
REMARK VINA RESULT:      -7.7      2.987      7.492
REMARK  9 active torsions:
REMARK  status: ('A' for Active; 'I' for Inactive)
REMARK    1  A    between atoms: C_2  and  C_3 
REMARK    2  A    between atoms: C_3  and  C_4 
REMARK    3  A    between atoms: C_4  and  O_5 
REMARK    4  A    between atoms: O_5  and  C_6 
REMARK    5  A    between atoms: C_8  and  C_9 
REMARK       I    between atoms: C_9  and  N_10 
REMARK    6  A    between atoms: N_10  and  C_11 
REMARK    7  A    between atoms: N_12  and  C_13 
REMARK    8  A    between atoms: C_15  and  C_16 
REMARK    9  A    between atoms: C_25  and  O_26 
ROOT
HETATM    1  C   UNL     1     -41.804  61.002 -57.696  1.00  0.00     0.179 C 
HETATM    2  N   UNL     1     -41.631  59.816 -58.319  1.00  0.00    -0.333 N 
HETATM    3  S   UNL     1     -41.652  62.405 -58.602  1.00  0.00    -0.040 SA
HETATM    4  H   UNL     1     -41.152  59.909 -59.209  1.00  0.00     0.168 HD
ENDROOT
BRANCH   2   5
HETATM    5  C   UNL     1     -42.130  58.523 -58.055  1.00  0.00     0.035 A 
HETATM    6  C   UNL     1     -42.143  57.933 -56.791  1.00  0.00     0.048 A 
HETATM    7  C   UNL     1     -42.602  56.618 -56.600  1.00  0.00     0.053 A 
HETATM    8  C   UNL     1     -43.150  55.934 -57.700  1.00  0.00     0.086 A 
HETATM    9  C   UNL     1     -43.215  56.532 -58.965  1.00  0.00    -0.026 A 
HETATM   10  C   UNL     1     -43.853  55.828 -60.129  1.00  0.00     0.051 C 
HETATM   11  C   UNL     1     -42.702  57.827 -59.127  1.00  0.00     0.039 A 
BRANCH   7  12
HETATM   12  C   UNL     1     -42.478  55.969 -55.299  1.00  0.00     0.183 A 
HETATM   13  O   UNL     1     -41.275  55.378 -55.002  1.00  0.00    -0.289 OA
HETATM   14  C   UNL     1     -41.487  54.792 -53.790  1.00  0.00     0.106 A 
HETATM   15  C   UNL     1     -42.792  55.064 -53.409  1.00  0.00     0.093 A 
HETATM   16  C   UNL     1     -40.584  54.042 -53.048  1.00  0.00     0.040 A 
HETATM   17  N   UNL     1     -43.409  55.830 -54.366  1.00  0.00    -0.221 NA
HETATM   18  C   UNL     1     -43.263  54.549 -52.195  1.00  0.00     0.034 A 
HETATM   19  C   UNL     1     -42.384  53.779 -51.417  1.00  0.00     0.002 A 
HETATM   20  C   UNL     1     -41.070  53.535 -51.836  1.00  0.00     0.003 A 
ENDBRANCH   7  12
BRANCH   8  21
HETATM   21  O   UNL     1     -43.648  54.658 -57.584  1.00  0.00    -0.359 OA
HETATM   22  H   UNL     1     -43.464  54.173 -58.416  1.00  0.00     0.218 HD
ENDBRANCH   8  21
ENDBRANCH   2   5
BRANCH   1  23
HETATM   23  N   UNL     1     -42.095  61.133 -56.374  1.00  0.00    -0.299 N 
HETATM   24  C   UNL     1     -43.318  61.334 -55.739  1.00  0.00     0.257 C 
HETATM   25  O   UNL     1     -44.413  61.140 -56.250  1.00  0.00    -0.267 OA
HETATM   26  H   UNL     1     -41.364  60.766 -55.779  1.00  0.00     0.171 HD
BRANCH  24  27
HETATM   27  C   UNL     1     -43.220  61.739 -54.303  1.00  0.00     0.035 A 
HETATM   28  C   UNL     1     -42.984  60.757 -53.334  1.00  0.00     0.053 A 
HETATM   29  C   UNL     1     -42.920  61.092 -51.978  1.00  0.00     0.069 A 
HETATM   30  C   UNL     1     -43.091  62.424 -51.591  1.00  0.00     0.037 A 
HETATM   31  C   UNL     1     -43.341  63.408 -52.550  1.00  0.00     0.004 A 
HETATM   32  C   UNL     1     -43.415  63.068 -53.901  1.00  0.00     0.017 A 
BRANCH  29  33
HETATM   33  O   UNL     1     -42.687  60.041 -51.133  1.00  0.00    -0.351 OA
BRANCH  33  34
HETATM   34  C   UNL     1     -41.545  60.133 -50.282  1.00  0.00     0.175 C 
BRANCH  34  35
HETATM   35  C   UNL     1     -40.565  59.012 -50.629  1.00  0.00     0.026 C 
BRANCH  35  36
HETATM   36  C   UNL     1     -41.139  58.035 -51.655  1.00  0.00    -0.002 C 
HETATM   37  C   UNL     1     -40.480  58.210 -53.015  1.00  0.00     0.005 C 
ENDBRANCH  35  36
ENDBRANCH  34  35
ENDBRANCH  33  34
ENDBRANCH  29  33
ENDBRANCH  24  27
ENDBRANCH   1  23
TORSDOF 9
ENDMDL
MODEL 10
REMARK VINA RESULT:      -7.7      2.584      4.994
REMARK  9 active torsions:
REMARK  status: ('A' for Active; 'I' for Inactive)
REMARK    1  A    between atoms: C_2  and  C_3 
REMARK    2  A    between atoms: C_3  and  C_4 
REMARK    3  A    between atoms: C_4  and  O_5 
REMARK    4  A    between atoms: O_5  and  C_6 
REMARK    5  A    between atoms: C_8  and  C_9 
REMARK       I    between atoms: C_9  and  N_10 
REMARK    6  A    between atoms: N_10  and  C_11 
REMARK    7  A    between atoms: N_12  and  C_13 
REMARK    8  A    between atoms: C_15  and  C_16 
REMARK    9  A    between atoms: C_25  and  O_26 
ROOT
HETATM    1  C   UNL     1     -43.007  61.200 -54.289  1.00  0.00     0.179 C 
HETATM    2  N   UNL     1     -42.480  61.709 -55.424  1.00  0.00    -0.333 N 
HETATM    3  S   UNL     1     -43.624  62.267 -53.152  1.00  0.00    -0.040 SA
HETATM    4  H   UNL     1     -42.260  62.697 -55.344  1.00  0.00     0.168 HD
ENDROOT
BRANCH   2   5
HETATM    5  C   UNL     1     -42.339  61.181 -56.725  1.00  0.00     0.035 A 
HETATM    6  C   UNL     1     -42.879  59.964 -57.138  1.00  0.00     0.048 A 
HETATM    7  C   UNL     1     -42.656  59.464 -58.433  1.00  0.00     0.053 A 
HETATM    8  C   UNL     1     -41.956  60.268 -59.350  1.00  0.00     0.086 A 
HETATM    9  C   UNL     1     -41.466  61.527 -58.981  1.00  0.00    -0.026 A 
HETATM   10  C   UNL     1     -40.770  62.415 -59.972  1.00  0.00     0.051 C 
HETATM   11  C   UNL     1     -41.665  61.971 -57.665  1.00  0.00     0.039 A 
BRANCH   7  12
HETATM   12  C   UNL     1     -43.110  58.126 -58.802  1.00  0.00     0.183 A 
HETATM   13  O   UNL     1     -44.018  58.030 -59.827  1.00  0.00    -0.289 OA
HETATM   14  C   UNL     1     -44.314  56.700 -59.879  1.00  0.00     0.106 A 
HETATM   15  C   UNL     1     -43.570  56.060 -58.901  1.00  0.00     0.093 A 
HETATM   16  C   UNL     1     -45.205  56.069 -60.738  1.00  0.00     0.040 A 
HETATM   17  N   UNL     1     -42.792  56.973 -58.232  1.00  0.00    -0.221 NA
HETATM   18  C   UNL     1     -43.714  54.677 -58.738  1.00  0.00     0.034 A 
HETATM   19  C   UNL     1     -44.608  54.001 -59.582  1.00  0.00     0.002 A 
HETATM   20  C   UNL     1     -45.336  54.686 -60.565  1.00  0.00     0.003 A 
ENDBRANCH   7  12
BRANCH   8  21
HETATM   21  O   UNL     1     -41.727  59.861 -60.643  1.00  0.00    -0.359 OA
HETATM   22  H   UNL     1     -41.187  59.043 -60.623  1.00  0.00     0.218 HD
ENDBRANCH   8  21
ENDBRANCH   2   5
BRANCH   1  23
HETATM   23  N   UNL     1     -43.070  59.871 -54.007  1.00  0.00    -0.299 N 
HETATM   24  C   UNL     1     -42.065  58.907 -53.993  1.00  0.00     0.257 C 
HETATM   25  O   UNL     1     -40.865  59.147 -53.952  1.00  0.00    -0.267 OA
HETATM   26  H   UNL     1     -43.901  59.625 -53.484  1.00  0.00     0.171 HD
BRANCH  24  27
HETATM   27  C   UNL     1     -42.551  57.495 -53.942  1.00  0.00     0.035 A 
HETATM   28  C   UNL     1     -41.959  56.603 -53.040  1.00  0.00     0.053 A 
HETATM   29  C   UNL     1     -42.363  55.266 -52.988  1.00  0.00     0.069 A 
HETATM   30  C   UNL     1     -43.372  54.820 -53.844  1.00  0.00     0.037 A 
HETATM   31  C   UNL     1     -43.959  55.698 -54.758  1.00  0.00     0.004 A 
HETATM   32  C   UNL     1     -43.545  57.029 -54.815  1.00  0.00     0.017 A 
BRANCH  29  33
HETATM   33  O   UNL     1     -41.704  54.499 -52.066  1.00  0.00    -0.351 OA
BRANCH  33  34
HETATM   34  C   UNL     1     -40.409  54.021 -52.426  1.00  0.00     0.175 C 
BRANCH  34  35
HETATM   35  C   UNL     1     -40.529  52.600 -52.977  1.00  0.00     0.026 C 
BRANCH  35  36
HETATM   36  C   UNL     1     -40.260  52.536 -54.482  1.00  0.00    -0.002 C 
HETATM   37  C   UNL     1     -40.094  53.927 -55.073  1.00  0.00     0.005 C 
ENDBRANCH  35  36
ENDBRANCH  34  35
ENDBRANCH  33  34
ENDBRANCH  29  33
ENDBRANCH  24  27
ENDBRANCH   1  23
TORSDOF 9
ENDMDL
