MODEL 1
REMARK VINA RESULT:      -9.3      0.000      0.000
REMARK  6 active torsions:
REMARK  status: ('A' for Active; 'I' for Inactive)
REMARK    1  A    between atoms: C_3  and  C_4 
REMARK    2  A    between atoms: C_4  and  C_5 
REMARK    3  A    between atoms: N_8  and  C_10 
REMARK    4  A    between atoms: C_10  and  C_11 
REMARK    5  A    between atoms: N_24  and  C_25 
REMARK    6  A    between atoms: C_25  and  C_26 
ROOT
HETATM    1  C   UNL     1     -42.953  56.910 -55.483  1.00  0.00     0.164 C 
HETATM    2  N   UNL     1     -41.653  57.138 -54.872  1.00  0.00    -0.319 N 
HETATM    3  C   UNL     1     -41.616  58.327 -54.176  1.00  0.00     0.326 C 
HETATM    4  O   UNL     1     -40.581  58.798 -53.740  1.00  0.00    -0.247 OA
HETATM    5  N   UNL     1     -42.868  58.846 -54.114  1.00  0.00    -0.265 N 
HETATM    6  C   UNL     1     -43.686  58.175 -54.979  1.00  0.00     0.263 C 
HETATM    7  O   UNL     1     -44.827  58.492 -55.288  1.00  0.00    -0.270 OA
HETATM    8  H   UNL     1     -40.814  56.949 -55.416  1.00  0.00     0.166 HD
ENDROOT
BRANCH   1   9
HETATM    9  C   UNL     1     -42.785  56.882 -56.999  1.00  0.00     0.072 A 
HETATM   10  C   UNL     1     -43.183  55.806 -57.788  1.00  0.00     0.030 A 
HETATM   11  C   UNL     1     -42.986  55.873 -59.166  1.00  0.00     0.003 A 
HETATM   12  C   UNL     1     -42.389  56.996 -59.723  1.00  0.00     0.019 A 
HETATM   13  C   UNL     1     -41.994  58.013 -58.875  1.00  0.00     0.117 A 
HETATM   14  N   UNL     1     -42.157  57.976 -57.532  1.00  0.00    -0.262 NA
ENDBRANCH   1   9
BRANCH   1  15
HETATM   15  C   UNL     1     -43.658  55.628 -54.912  1.00  0.00     0.033 C 
HETATM   16  C   UNL     1     -43.636  55.511 -53.372  1.00  0.00     0.036 C 
HETATM   17  C   UNL     1     -42.289  55.104 -52.776  1.00  0.00     0.235 C 
HETATM   18  N   UNL     1     -41.729  53.876 -53.457  1.00  0.00    -0.067 N 
HETATM   19  H   UNL     1     -42.307  53.078 -53.155  1.00  0.00     0.280 HD
HETATM   20  C   UNL     1     -41.761  53.927 -54.969  1.00  0.00     0.235 C 
HETATM   21  C   UNL     1     -43.148  54.285 -55.466  1.00  0.00     0.036 C 
BRANCH  18  22
HETATM   22  C   UNL     1     -40.302  53.557 -53.010  1.00  0.00     0.278 C 
BRANCH  22  23
HETATM   23  C   UNL     1     -40.057  52.184 -52.461  1.00  0.00     0.028 A 
HETATM   24  C   UNL     1     -40.075  51.882 -51.095  1.00  0.00     0.045 A 
HETATM   25 CL   UNL     1     -40.338  53.117 -49.918  1.00  0.00    -0.084 Cl
HETATM   26  C   UNL     1     -39.857  50.574 -50.651  1.00  0.00     0.024 A 
HETATM   27  C   UNL     1     -39.623  49.549 -51.568  1.00  0.00     0.005 A 
HETATM   28  C   UNL     1     -39.606  49.832 -52.930  1.00  0.00     0.043 A 
HETATM   29  C   UNL     1     -39.823  51.136 -53.359  1.00  0.00     0.126 A 
HETATM   30  F   UNL     1     -39.798  51.392 -54.674  1.00  0.00    -0.205 F 
ENDBRANCH  22  23
ENDBRANCH  18  22
ENDBRANCH   1  15
BRANCH   5  31
HETATM   31  C   UNL     1     -43.178  60.105 -53.452  1.00  0.00     0.168 C 
BRANCH  31  32
HETATM   32  C   UNL     1     -43.944  59.935 -52.137  1.00  0.00     0.140 C 
HETATM   33  O   UNL     1     -45.368  59.982 -52.358  1.00  0.00    -0.384 OA
HETATM   34  C   UNL     1     -45.948  59.319 -51.225  1.00  0.00     0.168 C 
HETATM   35  C   UNL     1     -45.037  58.141 -50.960  1.00  0.00     0.029 C 
HETATM   36  C   UNL     1     -43.678  58.599 -51.451  1.00  0.00     0.036 C 
ENDBRANCH  31  32
ENDBRANCH   5  31
TORSDOF 6
ENDMDL
MODEL 2
REMARK VINA RESULT:      -9.1      1.861      5.440
REMARK  6 active torsions:
REMARK  status: ('A' for Active; 'I' for Inactive)
REMARK    1  A    between atoms: C_3  and  C_4 
REMARK    2  A    between atoms: C_4  and  C_5 
REMARK    3  A    between atoms: N_8  and  C_10 
REMARK    4  A    between atoms: C_10  and  C_11 
REMARK    5  A    between atoms: N_24  and  C_25 
REMARK    6  A    between atoms: C_25  and  C_26 
ROOT
HETATM    1  C   UNL     1     -42.903  59.080 -52.395  1.00  0.00     0.164 C 
HETATM    2  N   UNL     1     -43.792  57.973 -52.711  1.00  0.00    -0.319 N 
HETATM    3  C   UNL     1     -44.201  58.006 -54.027  1.00  0.00     0.326 C 
HETATM    4  O   UNL     1     -45.082  57.283 -54.456  1.00  0.00    -0.247 OA
HETATM    5  N   UNL     1     -43.502  58.961 -54.688  1.00  0.00    -0.265 N 
HETATM    6  C   UNL     1     -42.836  59.747 -53.789  1.00  0.00     0.263 C 
HETATM    7  O   UNL     1     -42.248  60.791 -54.038  1.00  0.00    -0.270 OA
HETATM    8  H   UNL     1     -44.530  57.732 -52.053  1.00  0.00     0.166 HD
ENDROOT
BRANCH   1   9
HETATM    9  C   UNL     1     -43.570  59.962 -51.344  1.00  0.00     0.072 A 
HETATM   10  C   UNL     1     -42.941  61.059 -50.762  1.00  0.00     0.030 A 
HETATM   11  C   UNL     1     -43.631  61.803 -49.808  1.00  0.00     0.003 A 
HETATM   12  C   UNL     1     -44.920  61.433 -49.446  1.00  0.00     0.019 A 
HETATM   13  C   UNL     1     -45.470  60.316 -50.045  1.00  0.00     0.117 A 
HETATM   14  N   UNL     1     -44.824  59.563 -50.965  1.00  0.00    -0.262 NA
ENDBRANCH   1   9
BRANCH   1  15
HETATM   15  C   UNL     1     -41.472  58.587 -51.975  1.00  0.00     0.033 C 
HETATM   16  C   UNL     1     -40.705  57.820 -53.076  1.00  0.00     0.036 C 
HETATM   17  C   UNL     1     -41.187  56.390 -53.319  1.00  0.00     0.235 C 
HETATM   18  N   UNL     1     -41.283  55.609 -52.029  1.00  0.00    -0.067 N 
HETATM   19  H   UNL     1     -40.317  55.422 -51.722  1.00  0.00     0.280 HD
HETATM   20  C   UNL     1     -41.995  56.333 -50.907  1.00  0.00     0.235 C 
HETATM   21  C   UNL     1     -41.412  57.719 -50.706  1.00  0.00     0.036 C 
BRANCH  18  22
HETATM   22  C   UNL     1     -41.937  54.241 -52.219  1.00  0.00     0.278 C 
BRANCH  22  23
HETATM   23  C   UNL     1     -41.038  53.112 -52.623  1.00  0.00     0.028 A 
HETATM   24  C   UNL     1     -40.141  52.485 -51.750  1.00  0.00     0.045 A 
HETATM   25 CL   UNL     1     -39.975  53.019 -50.117  1.00  0.00    -0.084 Cl
HETATM   26  C   UNL     1     -39.344  51.423 -52.188  1.00  0.00     0.024 A 
HETATM   27  C   UNL     1     -39.435  50.971 -53.505  1.00  0.00     0.005 A 
HETATM   28  C   UNL     1     -40.323  51.582 -54.385  1.00  0.00     0.043 A 
HETATM   29  C   UNL     1     -41.110  52.637 -53.938  1.00  0.00     0.126 A 
HETATM   30  F   UNL     1     -41.956  53.217 -54.799  1.00  0.00    -0.205 F 
ENDBRANCH  22  23
ENDBRANCH  18  22
ENDBRANCH   1  15
BRANCH   5  31
HETATM   31  C   UNL     1     -43.696  59.261 -56.099  1.00  0.00     0.168 C 
BRANCH  31  32
HETATM   32  C   UNL     1     -42.847  58.394 -57.034  1.00  0.00     0.140 C 
HETATM   33  O   UNL     1     -43.671  57.465 -57.768  1.00  0.00    -0.384 OA
HETATM   34  C   UNL     1     -42.898  57.107 -58.922  1.00  0.00     0.168 C 
HETATM   35  C   UNL     1     -42.244  58.396 -59.365  1.00  0.00     0.029 C 
HETATM   36  C   UNL     1     -42.096  59.200 -58.089  1.00  0.00     0.036 C 
ENDBRANCH  31  32
ENDBRANCH   5  31
TORSDOF 6
ENDMDL
MODEL 3
REMARK VINA RESULT:      -8.8      1.738      2.146
REMARK  6 active torsions:
REMARK  status: ('A' for Active; 'I' for Inactive)
REMARK    1  A    between atoms: C_3  and  C_4 
REMARK    2  A    between atoms: C_4  and  C_5 
REMARK    3  A    between atoms: N_8  and  C_10 
REMARK    4  A    between atoms: C_10  and  C_11 
REMARK    5  A    between atoms: N_24  and  C_25 
REMARK    6  A    between atoms: C_25  and  C_26 
ROOT
HETATM    1  C   UNL     1     -42.869  56.929 -54.957  1.00  0.00     0.164 C 
HETATM    2  N   UNL     1     -41.549  57.046 -54.360  1.00  0.00    -0.319 N 
HETATM    3  C   UNL     1     -41.587  57.735 -53.167  1.00  0.00     0.326 C 
HETATM    4  O   UNL     1     -40.579  58.102 -52.589  1.00  0.00    -0.247 OA
HETATM    5  N   UNL     1     -42.880  57.939 -52.811  1.00  0.00    -0.265 N 
HETATM    6  C   UNL     1     -43.698  57.646 -53.866  1.00  0.00     0.263 C 
HETATM    7  O   UNL     1     -44.898  57.876 -53.937  1.00  0.00    -0.270 OA
HETATM    8  H   UNL     1     -40.759  57.290 -54.954  1.00  0.00     0.166 HD
ENDROOT
BRANCH   1   9
HETATM    9  C   UNL     1     -42.873  57.669 -56.292  1.00  0.00     0.072 A 
HETATM   10  C   UNL     1     -43.522  57.190 -57.426  1.00  0.00     0.030 A 
HETATM   11  C   UNL     1     -43.466  57.937 -58.600  1.00  0.00     0.003 A 
HETATM   12  C   UNL     1     -42.758  59.131 -58.624  1.00  0.00     0.019 A 
HETATM   13  C   UNL     1     -42.114  59.530 -57.469  1.00  0.00     0.117 A 
HETATM   14  N   UNL     1     -42.136  58.823 -56.315  1.00  0.00    -0.262 NA
ENDBRANCH   1   9
BRANCH   1  15
HETATM   15  C   UNL     1     -43.334  55.433 -55.076  1.00  0.00     0.033 C 
HETATM   16  C   UNL     1     -43.715  54.768 -53.735  1.00  0.00     0.036 C 
HETATM   17  C   UNL     1     -42.533  54.388 -52.845  1.00  0.00     0.235 C 
HETATM   18  N   UNL     1     -41.494  53.598 -53.607  1.00  0.00    -0.067 N 
HETATM   19  H   UNL     1     -41.896  52.665 -53.778  1.00  0.00     0.280 HD
HETATM   20  C   UNL     1     -41.112  54.191 -54.946  1.00  0.00     0.235 C 
HETATM   21  C   UNL     1     -42.346  54.482 -55.777  1.00  0.00     0.036 C 
BRANCH  18  22
HETATM   22  C   UNL     1     -40.220  53.367 -52.795  1.00  0.00     0.278 C 
BRANCH  22  23
HETATM   23  C   UNL     1     -40.084  52.038 -52.115  1.00  0.00     0.028 A 
HETATM   24  C   UNL     1     -39.751  50.855 -52.785  1.00  0.00     0.045 A 
HETATM   25 CL   UNL     1     -39.516  50.843 -54.495  1.00  0.00    -0.084 Cl
HETATM   26  C   UNL     1     -39.622  49.652 -52.086  1.00  0.00     0.024 A 
HETATM   27  C   UNL     1     -39.820  49.614 -50.706  1.00  0.00     0.005 A 
HETATM   28  C   UNL     1     -40.148  50.782 -50.024  1.00  0.00     0.043 A 
HETATM   29  C   UNL     1     -40.275  51.973 -50.730  1.00  0.00     0.126 A 
HETATM   30  F   UNL     1     -40.597  53.086 -50.059  1.00  0.00    -0.205 F 
ENDBRANCH  22  23
ENDBRANCH  18  22
ENDBRANCH   1  15
BRANCH   5  31
HETATM   31  C   UNL     1     -43.274  58.646 -51.601  1.00  0.00     0.168 C 
BRANCH  31  32
HETATM   32  C   UNL     1     -43.104  60.165 -51.693  1.00  0.00     0.140 C 
HETATM   33  O   UNL     1     -44.381  60.821 -51.824  1.00  0.00    -0.384 OA
HETATM   34  C   UNL     1     -44.159  62.169 -51.387  1.00  0.00     0.168 C 
HETATM   35  C   UNL     1     -43.243  62.042 -50.191  1.00  0.00     0.029 C 
HETATM   36  C   UNL     1     -42.453  60.776 -50.456  1.00  0.00     0.036 C 
ENDBRANCH  31  32
ENDBRANCH   5  31
TORSDOF 6
ENDMDL
MODEL 4
REMARK VINA RESULT:      -8.7      3.379      7.485
REMARK  6 active torsions:
REMARK  status: ('A' for Active; 'I' for Inactive)
REMARK    1  A    between atoms: C_3  and  C_4 
REMARK    2  A    between atoms: C_4  and  C_5 
REMARK    3  A    between atoms: N_8  and  C_10 
REMARK    4  A    between atoms: C_10  and  C_11 
REMARK    5  A    between atoms: N_24  and  C_25 
REMARK    6  A    between atoms: C_25  and  C_26 
ROOT
HETATM    1  C   UNL     1     -42.354  57.350 -52.928  1.00  0.00     0.164 C 
HETATM    2  N   UNL     1     -41.781  57.156 -54.250  1.00  0.00    -0.319 N 
HETATM    3  C   UNL     1     -41.565  55.822 -54.523  1.00  0.00     0.326 C 
HETATM    4  O   UNL     1     -40.932  55.447 -55.494  1.00  0.00    -0.247 OA
HETATM    5  N   UNL     1     -42.125  55.070 -53.544  1.00  0.00    -0.265 N 
HETATM    6  C   UNL     1     -42.470  55.871 -52.491  1.00  0.00     0.263 C 
HETATM    7  O   UNL     1     -42.845  55.494 -51.388  1.00  0.00    -0.270 OA
HETATM    8  H   UNL     1     -41.028  57.769 -54.555  1.00  0.00     0.166 HD
ENDROOT
BRANCH   1   9
HETATM    9  C   UNL     1     -41.369  58.147 -52.077  1.00  0.00     0.072 A 
HETATM   10  C   UNL     1     -41.637  58.537 -50.769  1.00  0.00     0.030 A 
HETATM   11  C   UNL     1     -40.675  59.266 -50.073  1.00  0.00     0.003 A 
HETATM   12  C   UNL     1     -39.480  59.599 -50.696  1.00  0.00     0.019 A 
HETATM   13  C   UNL     1     -39.294  59.203 -52.006  1.00  0.00     0.117 A 
HETATM   14  N   UNL     1     -40.212  58.506 -52.716  1.00  0.00    -0.262 NA
ENDBRANCH   1   9
BRANCH   1  15
HETATM   15  C   UNL     1     -43.784  57.996 -52.991  1.00  0.00     0.033 C 
HETATM   16  C   UNL     1     -44.791  57.246 -53.891  1.00  0.00     0.036 C 
HETATM   17  C   UNL     1     -44.578  57.434 -55.393  1.00  0.00     0.235 C 
HETATM   18  N   UNL     1     -44.453  58.896 -55.758  1.00  0.00    -0.067 N 
HETATM   19  H   UNL     1     -45.392  59.309 -55.657  1.00  0.00     0.280 HD
HETATM   20  C   UNL     1     -43.504  59.683 -54.881  1.00  0.00     0.235 C 
HETATM   21  C   UNL     1     -43.828  59.476 -53.414  1.00  0.00     0.036 C 
BRANCH  18  22
HETATM   22  C   UNL     1     -44.055  59.105 -57.218  1.00  0.00     0.278 C 
BRANCH  22  23
HETATM   23  C   UNL     1     -44.104  57.901 -58.110  1.00  0.00     0.028 A 
HETATM   24  C   UNL     1     -45.263  57.467 -58.762  1.00  0.00     0.045 A 
HETATM   25 CL   UNL     1     -46.766  58.285 -58.535  1.00  0.00    -0.084 Cl
HETATM   26  C   UNL     1     -45.234  56.346 -59.597  1.00  0.00     0.024 A 
HETATM   27  C   UNL     1     -44.044  55.645 -59.795  1.00  0.00     0.005 A 
HETATM   28  C   UNL     1     -42.881  56.066 -59.156  1.00  0.00     0.043 A 
HETATM   29  C   UNL     1     -42.923  57.182 -58.328  1.00  0.00     0.126 A 
HETATM   30  F   UNL     1     -41.795  57.570 -57.718  1.00  0.00    -0.205 F 
ENDBRANCH  22  23
ENDBRANCH  18  22
ENDBRANCH   1  15
BRANCH   5  31
HETATM   31  C   UNL     1     -42.072  53.615 -53.524  1.00  0.00     0.168 C 
BRANCH  31  32
HETATM   32  C   UNL     1     -40.665  53.055 -53.298  1.00  0.00     0.140 C 
HETATM   33  O   UNL     1     -40.531  52.516 -51.967  1.00  0.00    -0.384 OA
HETATM   34  C   UNL     1     -39.431  51.598 -52.042  1.00  0.00     0.168 C 
HETATM   35  C   UNL     1     -39.603  50.895 -53.369  1.00  0.00     0.029 C 
HETATM   36  C   UNL     1     -40.311  51.910 -54.243  1.00  0.00     0.036 C 
ENDBRANCH  31  32
ENDBRANCH   5  31
TORSDOF 6
ENDMDL
MODEL 5
REMARK VINA RESULT:      -8.6      2.458      3.564
REMARK  6 active torsions:
REMARK  status: ('A' for Active; 'I' for Inactive)
REMARK    1  A    between atoms: C_3  and  C_4 
REMARK    2  A    between atoms: C_4  and  C_5 
REMARK    3  A    between atoms: N_8  and  C_10 
REMARK    4  A    between atoms: C_10  and  C_11 
REMARK    5  A    between atoms: N_24  and  C_25 
REMARK    6  A    between atoms: C_25  and  C_26 
ROOT
HETATM    1  C   UNL     1     -42.648  57.000 -51.739  1.00  0.00     0.164 C 
HETATM    2  N   UNL     1     -41.345  57.562 -51.421  1.00  0.00    -0.319 N 
HETATM    3  C   UNL     1     -41.444  58.862 -50.975  1.00  0.00     0.326 C 
HETATM    4  O   UNL     1     -40.471  59.578 -50.824  1.00  0.00    -0.247 OA
HETATM    5  N   UNL     1     -42.751  59.171 -50.789  1.00  0.00    -0.265 N 
HETATM    6  C   UNL     1     -43.536  58.206 -51.357  1.00  0.00     0.263 C 
HETATM    7  O   UNL     1     -44.749  58.260 -51.512  1.00  0.00    -0.270 OA
HETATM    8  H   UNL     1     -40.570  57.401 -52.061  1.00  0.00     0.166 HD
ENDROOT
BRANCH   1   9
HETATM    9  C   UNL     1     -42.693  56.675 -53.229  1.00  0.00     0.072 A 
HETATM   10  C   UNL     1     -41.557  56.631 -54.033  1.00  0.00     0.030 A 
HETATM   11  C   UNL     1     -41.700  56.328 -55.385  1.00  0.00     0.003 A 
HETATM   12  C   UNL     1     -42.964  56.089 -55.908  1.00  0.00     0.019 A 
HETATM   13  C   UNL     1     -44.048  56.178 -55.057  1.00  0.00     0.117 A 
HETATM   14  N   UNL     1     -43.948  56.483 -53.742  1.00  0.00    -0.262 NA
ENDBRANCH   1   9
BRANCH   1  15
HETATM   15  C   UNL     1     -43.002  55.772 -50.826  1.00  0.00     0.033 C 
HETATM   16  C   UNL     1     -42.002  55.515 -49.676  1.00  0.00     0.036 C 
HETATM   17  C   UNL     1     -40.676  54.886 -50.104  1.00  0.00     0.235 C 
HETATM   18  N   UNL     1     -40.894  53.663 -50.966  1.00  0.00    -0.067 N 
HETATM   19  H   UNL     1     -41.252  52.922 -50.346  1.00  0.00     0.280 HD
HETATM   20  C   UNL     1     -41.893  53.854 -52.086  1.00  0.00     0.235 C 
HETATM   21  C   UNL     1     -43.192  54.430 -51.556  1.00  0.00     0.036 C 
BRANCH  18  22
HETATM   22  C   UNL     1     -39.593  53.125 -51.560  1.00  0.00     0.278 C 
BRANCH  22  23
HETATM   23  C   UNL     1     -39.691  51.875 -52.380  1.00  0.00     0.028 A 
HETATM   24  C   UNL     1     -39.806  51.871 -53.775  1.00  0.00     0.045 A 
HETATM   25 CL   UNL     1     -39.895  53.350 -54.660  1.00  0.00    -0.084 Cl
HETATM   26  C   UNL     1     -39.874  50.666 -54.482  1.00  0.00     0.024 A 
HETATM   27  C   UNL     1     -39.823  49.448 -53.804  1.00  0.00     0.005 A 
HETATM   28  C   UNL     1     -39.705  49.435 -52.417  1.00  0.00     0.043 A 
HETATM   29  C   UNL     1     -39.639  50.639 -51.725  1.00  0.00     0.126 A 
HETATM   30  F   UNL     1     -39.531  50.607 -50.391  1.00  0.00    -0.205 F 
ENDBRANCH  22  23
ENDBRANCH  18  22
ENDBRANCH   1  15
BRANCH   5  31
HETATM   31  C   UNL     1     -43.206  60.475 -50.328  1.00  0.00     0.168 C 
BRANCH  31  32
HETATM   32  C   UNL     1     -43.019  61.591 -51.359  1.00  0.00     0.140 C 
HETATM   33  O   UNL     1     -44.135  61.645 -52.271  1.00  0.00    -0.384 OA
HETATM   34  C   UNL     1     -44.116  62.973 -52.814  1.00  0.00     0.168 C 
HETATM   35  C   UNL     1     -43.766  63.863 -51.643  1.00  0.00     0.029 C 
HETATM   36  C   UNL     1     -42.931  62.981 -50.736  1.00  0.00     0.036 C 
ENDBRANCH  31  32
ENDBRANCH   5  31
TORSDOF 6
ENDMDL
MODEL 6
REMARK VINA RESULT:      -8.5      1.670      2.273
REMARK  6 active torsions:
REMARK  status: ('A' for Active; 'I' for Inactive)
REMARK    1  A    between atoms: C_3  and  C_4 
REMARK    2  A    between atoms: C_4  and  C_5 
REMARK    3  A    between atoms: N_8  and  C_10 
REMARK    4  A    between atoms: C_10  and  C_11 
REMARK    5  A    between atoms: N_24  and  C_25 
REMARK    6  A    between atoms: C_25  and  C_26 
ROOT
HETATM    1  C   UNL     1     -43.418  57.589 -54.584  1.00  0.00     0.164 C 
HETATM    2  N   UNL     1     -42.033  57.815 -54.203  1.00  0.00    -0.319 N 
HETATM    3  C   UNL     1     -41.875  59.009 -53.533  1.00  0.00     0.326 C 
HETATM    4  O   UNL     1     -40.780  59.478 -53.281  1.00  0.00    -0.247 OA
HETATM    5  N   UNL     1     -43.096  59.535 -53.265  1.00  0.00    -0.265 N 
HETATM    6  C   UNL     1     -44.051  58.862 -53.974  1.00  0.00     0.263 C 
HETATM    7  O   UNL     1     -45.227  59.182 -54.089  1.00  0.00    -0.270 OA
HETATM    8  H   UNL     1     -41.298  57.618 -54.879  1.00  0.00     0.166 HD
ENDROOT
BRANCH   1   9
HETATM    9  C   UNL     1     -43.509  57.549 -56.106  1.00  0.00     0.072 A 
HETATM   10  C   UNL     1     -42.399  57.390 -56.930  1.00  0.00     0.030 A 
HETATM   11  C   UNL     1     -42.582  57.368 -58.311  1.00  0.00     0.003 A 
HETATM   12  C   UNL     1     -43.858  57.517 -58.839  1.00  0.00     0.019 A 
HETATM   13  C   UNL     1     -44.909  57.699 -57.961  1.00  0.00     0.117 A 
HETATM   14  N   UNL     1     -44.765  57.739 -56.616  1.00  0.00    -0.262 NA
ENDBRANCH   1   9
BRANCH   1  15
HETATM   15  C   UNL     1     -44.022  56.315 -53.892  1.00  0.00     0.033 C 
HETATM   16  C   UNL     1     -43.584  56.109 -52.425  1.00  0.00     0.036 C 
HETATM   17  C   UNL     1     -42.155  55.599 -52.244  1.00  0.00     0.235 C 
HETATM   18  N   UNL     1     -41.885  54.385 -53.104  1.00  0.00    -0.067 N 
HETATM   19  H   UNL     1     -42.409  53.602 -52.685  1.00  0.00     0.280 HD
HETATM   20  C   UNL     1     -42.330  54.524 -54.543  1.00  0.00     0.235 C 
HETATM   21  C   UNL     1     -43.773  54.981 -54.620  1.00  0.00     0.036 C 
BRANCH  18  22
HETATM   22  C   UNL     1     -40.415  53.967 -53.085  1.00  0.00     0.278 C 
BRANCH  22  23
HETATM   23  C   UNL     1     -40.121  52.549 -52.700  1.00  0.00     0.028 A 
HETATM   24  C   UNL     1     -39.986  52.118 -51.375  1.00  0.00     0.045 A 
HETATM   25 CL   UNL     1     -40.104  53.234 -50.064  1.00  0.00    -0.084 Cl
HETATM   26  C   UNL     1     -39.730  50.774 -51.085  1.00  0.00     0.024 A 
HETATM   27  C   UNL     1     -39.609  49.842 -52.116  1.00  0.00     0.005 A 
HETATM   28  C   UNL     1     -39.744  50.254 -53.439  1.00  0.00     0.043 A 
HETATM   29  C   UNL     1     -39.998  51.592 -53.714  1.00  0.00     0.126 A 
HETATM   30  F   UNL     1     -40.120  51.972 -54.993  1.00  0.00    -0.205 F 
ENDBRANCH  22  23
ENDBRANCH  18  22
ENDBRANCH   1  15
BRANCH   5  31
HETATM   31  C   UNL     1     -43.286  60.800 -52.571  1.00  0.00     0.168 C 
BRANCH  31  32
HETATM   32  C   UNL     1     -42.919  62.024 -53.414  1.00  0.00     0.140 C 
HETATM   33  O   UNL     1     -43.661  62.042 -54.651  1.00  0.00    -0.384 OA
HETATM   34  C   UNL     1     -43.643  63.410 -55.082  1.00  0.00     0.168 C 
HETATM   35  C   UNL     1     -43.832  64.216 -53.817  1.00  0.00     0.029 C 
HETATM   36  C   UNL     1     -43.236  63.349 -52.726  1.00  0.00     0.036 C 
ENDBRANCH  31  32
ENDBRANCH   5  31
TORSDOF 6
ENDMDL
MODEL 7
REMARK VINA RESULT:      -8.3      1.999      5.087
REMARK  6 active torsions:
REMARK  status: ('A' for Active; 'I' for Inactive)
REMARK    1  A    between atoms: C_3  and  C_4 
REMARK    2  A    between atoms: C_4  and  C_5 
REMARK    3  A    between atoms: N_8  and  C_10 
REMARK    4  A    between atoms: C_10  and  C_11 
REMARK    5  A    between atoms: N_24  and  C_25 
REMARK    6  A    between atoms: C_25  and  C_26 
ROOT
HETATM    1  C   UNL     1     -42.899  59.016 -53.896  1.00  0.00     0.164 C 
HETATM    2  N   UNL     1     -43.649  57.811 -54.210  1.00  0.00    -0.319 N 
HETATM    3  C   UNL     1     -43.560  57.487 -55.546  1.00  0.00     0.326 C 
HETATM    4  O   UNL     1     -44.251  56.624 -56.058  1.00  0.00    -0.247 OA
HETATM    5  N   UNL     1     -42.643  58.290 -56.140  1.00  0.00    -0.265 N 
HETATM    6  C   UNL     1     -42.319  59.317 -55.298  1.00  0.00     0.263 C 
HETATM    7  O   UNL     1     -41.651  60.302 -55.582  1.00  0.00    -0.270 OA
HETATM    8  H   UNL     1     -44.580  57.694 -53.816  1.00  0.00     0.166 HD
ENDROOT
BRANCH   1   9
HETATM    9  C   UNL     1     -43.871  60.088 -53.411  1.00  0.00     0.072 A 
HETATM   10  C   UNL     1     -45.253  59.958 -53.501  1.00  0.00     0.030 A 
HETATM   11  C   UNL     1     -46.060  60.992 -53.032  1.00  0.00     0.003 A 
HETATM   12  C   UNL     1     -45.475  62.134 -52.500  1.00  0.00     0.019 A 
HETATM   13  C   UNL     1     -44.096  62.206 -52.468  1.00  0.00     0.117 A 
HETATM   14  N   UNL     1     -43.283  61.226 -52.927  1.00  0.00    -0.262 NA
ENDBRANCH   1   9
BRANCH   1  15
HETATM   15  C   UNL     1     -41.727  58.738 -52.887  1.00  0.00     0.033 C 
HETATM   16  C   UNL     1     -40.623  57.801 -53.425  1.00  0.00     0.036 C 
HETATM   17  C   UNL     1     -41.003  56.322 -53.478  1.00  0.00     0.235 C 
HETATM   18  N   UNL     1     -41.574  55.847 -52.162  1.00  0.00    -0.067 N 
HETATM   19  H   UNL     1     -40.790  55.806 -51.495  1.00  0.00     0.280 HD
HETATM   20  C   UNL     1     -42.636  56.751 -51.576  1.00  0.00     0.235 C 
HETATM   21  C   UNL     1     -42.148  58.185 -51.514  1.00  0.00     0.036 C 
BRANCH  18  22
HETATM   22  C   UNL     1     -42.133  54.427 -52.243  1.00  0.00     0.278 C 
BRANCH  22  23
HETATM   23  C   UNL     1     -41.166  53.340 -52.604  1.00  0.00     0.028 A 
HETATM   24  C   UNL     1     -40.212  52.827 -51.718  1.00  0.00     0.045 A 
HETATM   25 CL   UNL     1     -40.051  53.466 -50.123  1.00  0.00    -0.084 Cl
HETATM   26  C   UNL     1     -39.352  51.798 -52.114  1.00  0.00     0.024 A 
HETATM   27  C   UNL     1     -39.438  51.264 -53.400  1.00  0.00     0.005 A 
HETATM   28  C   UNL     1     -40.384  51.761 -54.292  1.00  0.00     0.043 A 
HETATM   29  C   UNL     1     -41.232  52.784 -53.887  1.00  0.00     0.126 A 
HETATM   30  F   UNL     1     -42.134  53.254 -54.760  1.00  0.00    -0.205 F 
ENDBRANCH  22  23
ENDBRANCH  18  22
ENDBRANCH   1  15
BRANCH   5  31
HETATM   31  C   UNL     1     -42.311  58.215 -57.555  1.00  0.00     0.168 C 
BRANCH  31  32
HETATM   32  C   UNL     1     -43.319  58.926 -58.462  1.00  0.00     0.140 C 
HETATM   33  O   UNL     1     -42.933  60.297 -58.689  1.00  0.00    -0.384 OA
HETATM   34  C   UNL     1     -43.603  60.682 -59.898  1.00  0.00     0.168 C 
HETATM   35  C   UNL     1     -43.498  59.474 -60.800  1.00  0.00     0.029 C 
HETATM   36  C   UNL     1     -43.436  58.297 -59.847  1.00  0.00     0.036 C 
ENDBRANCH  31  32
ENDBRANCH   5  31
TORSDOF 6
ENDMDL
MODEL 8
REMARK VINA RESULT:      -8.2      3.247      7.674
REMARK  6 active torsions:
REMARK  status: ('A' for Active; 'I' for Inactive)
REMARK    1  A    between atoms: C_3  and  C_4 
REMARK    2  A    between atoms: C_4  and  C_5 
REMARK    3  A    between atoms: N_8  and  C_10 
REMARK    4  A    between atoms: C_10  and  C_11 
REMARK    5  A    between atoms: N_24  and  C_25 
REMARK    6  A    between atoms: C_25  and  C_26 
ROOT
HETATM    1  C   UNL     1     -44.003  58.432 -51.914  1.00  0.00     0.164 C 
HETATM    2  N   UNL     1     -42.594  58.393 -52.274  1.00  0.00    -0.319 N 
HETATM    3  C   UNL     1     -41.972  57.268 -51.779  1.00  0.00     0.326 C 
HETATM    4  O   UNL     1     -40.763  57.122 -51.809  1.00  0.00    -0.247 OA
HETATM    5  N   UNL     1     -42.905  56.434 -51.258  1.00  0.00    -0.265 N 
HETATM    6  C   UNL     1     -44.098  57.093 -51.147  1.00  0.00     0.263 C 
HETATM    7  O   UNL     1     -45.097  56.687 -50.568  1.00  0.00    -0.270 OA
HETATM    8  H   UNL     1     -42.041  59.243 -52.191  1.00  0.00     0.166 HD
ENDROOT
BRANCH   1   9
HETATM    9  C   UNL     1     -44.250  59.648 -51.025  1.00  0.00     0.072 A 
HETATM   10  C   UNL     1     -45.458  59.882 -50.375  1.00  0.00     0.030 A 
HETATM   11  C   UNL     1     -45.589  61.022 -49.586  1.00  0.00     0.003 A 
HETATM   12  C   UNL     1     -44.524  61.907 -49.473  1.00  0.00     0.019 A 
HETATM   13  C   UNL     1     -43.365  61.625 -50.169  1.00  0.00     0.117 A 
HETATM   14  N   UNL     1     -43.208  60.534 -50.955  1.00  0.00    -0.262 NA
ENDBRANCH   1   9
BRANCH   1  15
HETATM   15  C   UNL     1     -44.937  58.386 -53.176  1.00  0.00     0.033 C 
HETATM   16  C   UNL     1     -44.679  57.196 -54.126  1.00  0.00     0.036 C 
HETATM   17  C   UNL     1     -43.424  57.322 -54.990  1.00  0.00     0.235 C 
HETATM   18  N   UNL     1     -43.372  58.653 -55.704  1.00  0.00    -0.067 N 
HETATM   19  H   UNL     1     -44.094  58.625 -56.439  1.00  0.00     0.280 HD
HETATM   20  C   UNL     1     -43.655  59.850 -54.822  1.00  0.00     0.235 C 
HETATM   21  C   UNL     1     -44.943  59.655 -54.047  1.00  0.00     0.036 C 
BRANCH  18  22
HETATM   22  C   UNL     1     -42.044  58.881 -56.425  1.00  0.00     0.278 C 
BRANCH  22  23
HETATM   23  C   UNL     1     -42.101  59.032 -57.914  1.00  0.00     0.028 A 
HETATM   24  C   UNL     1     -41.963  60.257 -58.575  1.00  0.00     0.045 A 
HETATM   25 CL   UNL     1     -41.761  61.724 -57.687  1.00  0.00    -0.084 Cl
HETATM   26  C   UNL     1     -42.007  60.324 -59.971  1.00  0.00     0.024 A 
HETATM   27  C   UNL     1     -42.185  59.165 -60.727  1.00  0.00     0.005 A 
HETATM   28  C   UNL     1     -42.321  57.937 -60.085  1.00  0.00     0.043 A 
HETATM   29  C   UNL     1     -42.276  57.884 -58.696  1.00  0.00     0.126 A 
HETATM   30  F   UNL     1     -42.414  56.695 -58.095  1.00  0.00    -0.205 F 
ENDBRANCH  22  23
ENDBRANCH  18  22
ENDBRANCH   1  15
BRANCH   5  31
HETATM   31  C   UNL     1     -42.581  55.154 -50.644  1.00  0.00     0.168 C 
BRANCH  31  32
HETATM   32  C   UNL     1     -42.330  54.033 -51.657  1.00  0.00     0.140 C 
HETATM   33  O   UNL     1     -42.719  54.440 -52.985  1.00  0.00    -0.384 OA
HETATM   34  C   UNL     1     -41.990  53.579 -53.872  1.00  0.00     0.168 C 
HETATM   35  C   UNL     1     -40.618  53.456 -53.249  1.00  0.00     0.029 C 
HETATM   36  C   UNL     1     -40.861  53.632 -51.764  1.00  0.00     0.036 C 
ENDBRANCH  31  32
ENDBRANCH   5  31
TORSDOF 6
ENDMDL
MODEL 9
REMARK VINA RESULT:      -8.2      3.300      7.709
REMARK  6 active torsions:
REMARK  status: ('A' for Active; 'I' for Inactive)
REMARK    1  A    between atoms: C_3  and  C_4 
REMARK    2  A    between atoms: C_4  and  C_5 
REMARK    3  A    between atoms: N_8  and  C_10 
REMARK    4  A    between atoms: C_10  and  C_11 
REMARK    5  A    between atoms: N_24  and  C_25 
REMARK    6  A    between atoms: C_25  and  C_26 
ROOT
HETATM    1  C   UNL     1     -44.029  58.452 -51.947  1.00  0.00     0.164 C 
HETATM    2  N   UNL     1     -42.620  58.404 -52.305  1.00  0.00    -0.319 N 
HETATM    3  C   UNL     1     -41.997  57.293 -51.779  1.00  0.00     0.326 C 
HETATM    4  O   UNL     1     -40.788  57.147 -51.805  1.00  0.00    -0.247 OA
HETATM    5  N   UNL     1     -42.930  56.473 -51.236  1.00  0.00    -0.265 N 
HETATM    6  C   UNL     1     -44.123  57.135 -51.143  1.00  0.00     0.263 C 
HETATM    7  O   UNL     1     -45.122  56.744 -50.554  1.00  0.00    -0.270 OA
HETATM    8  H   UNL     1     -42.067  59.256 -52.245  1.00  0.00     0.166 HD
ENDROOT
BRANCH   1   9
HETATM    9  C   UNL     1     -44.276  59.691 -51.092  1.00  0.00     0.072 A 
HETATM   10  C   UNL     1     -45.516  59.999 -50.539  1.00  0.00     0.030 A 
HETATM   11  C   UNL     1     -45.645  61.155 -49.774  1.00  0.00     0.003 A 
HETATM   12  C   UNL     1     -44.545  61.983 -49.587  1.00  0.00     0.019 A 
HETATM   13  C   UNL     1     -43.353  61.630 -50.189  1.00  0.00     0.117 A 
HETATM   14  N   UNL     1     -43.197  60.522 -50.949  1.00  0.00    -0.262 NA
ENDBRANCH   1   9
BRANCH   1  15
HETATM   15  C   UNL     1     -44.962  58.371 -53.207  1.00  0.00     0.033 C 
HETATM   16  C   UNL     1     -44.741  57.126 -54.095  1.00  0.00     0.036 C 
HETATM   17  C   UNL     1     -43.482  57.168 -54.960  1.00  0.00     0.235 C 
HETATM   18  N   UNL     1     -43.387  58.459 -55.741  1.00  0.00    -0.067 N 
HETATM   19  H   UNL     1     -44.108  58.416 -56.476  1.00  0.00     0.280 HD
HETATM   20  C   UNL     1     -43.632  59.707 -54.922  1.00  0.00     0.235 C 
HETATM   21  C   UNL     1     -44.927  59.594 -54.142  1.00  0.00     0.036 C 
BRANCH  18  22
HETATM   22  C   UNL     1     -42.051  58.607 -56.469  1.00  0.00     0.278 C 
BRANCH  22  23
HETATM   23  C   UNL     1     -42.110  58.884 -57.940  1.00  0.00     0.028 A 
HETATM   24  C   UNL     1     -42.461  57.923 -58.896  1.00  0.00     0.045 A 
HETATM   25 CL   UNL     1     -42.809  56.298 -58.431  1.00  0.00    -0.084 Cl
HETATM   26  C   UNL     1     -42.515  58.254 -60.253  1.00  0.00     0.024 A 
HETATM   27  C   UNL     1     -42.224  59.552 -60.674  1.00  0.00     0.005 A 
HETATM   28  C   UNL     1     -41.877  60.520 -59.736  1.00  0.00     0.043 A 
HETATM   29  C   UNL     1     -41.826  60.179 -58.389  1.00  0.00     0.126 A 
HETATM   30  F   UNL     1     -41.485  61.122 -57.501  1.00  0.00    -0.205 F 
ENDBRANCH  22  23
ENDBRANCH  18  22
ENDBRANCH   1  15
BRANCH   5  31
HETATM   31  C   UNL     1     -42.606  55.211 -50.588  1.00  0.00     0.168 C 
BRANCH  31  32
HETATM   32  C   UNL     1     -42.352  54.063 -51.569  1.00  0.00     0.140 C 
HETATM   33  O   UNL     1     -42.752  54.429 -52.906  1.00  0.00    -0.384 OA
HETATM   34  C   UNL     1     -42.021  53.548 -53.772  1.00  0.00     0.168 C 
HETATM   35  C   UNL     1     -40.645  53.453 -53.155  1.00  0.00     0.029 C 
HETATM   36  C   UNL     1     -40.881  53.670 -51.673  1.00  0.00     0.036 C 
ENDBRANCH  31  32
ENDBRANCH   5  31
TORSDOF 6
ENDMDL
MODEL 10
REMARK VINA RESULT:      -8.2      3.008      5.156
REMARK  6 active torsions:
REMARK  status: ('A' for Active; 'I' for Inactive)
REMARK    1  A    between atoms: C_3  and  C_4 
REMARK    2  A    between atoms: C_4  and  C_5 
REMARK    3  A    between atoms: N_8  and  C_10 
REMARK    4  A    between atoms: C_10  and  C_11 
REMARK    5  A    between atoms: N_24  and  C_25 
REMARK    6  A    between atoms: C_25  and  C_26 
ROOT
HETATM    1  C   UNL     1     -43.586  59.102 -52.325  1.00  0.00     0.164 C 
HETATM    2  N   UNL     1     -44.649  58.292 -51.752  1.00  0.00    -0.319 N 
HETATM    3  C   UNL     1     -45.562  59.060 -51.063  1.00  0.00     0.326 C 
HETATM    4  O   UNL     1     -46.429  58.573 -50.360  1.00  0.00    -0.247 OA
HETATM    5  N   UNL     1     -45.297  60.372 -51.281  1.00  0.00    -0.265 N 
HETATM    6  C   UNL     1     -44.071  60.500 -51.873  1.00  0.00     0.263 C 
HETATM    7  O   UNL     1     -43.461  61.545 -52.055  1.00  0.00    -0.270 OA
HETATM    8  H   UNL     1     -44.408  57.419 -51.288  1.00  0.00     0.166 HD
ENDROOT
BRANCH   1   9
HETATM    9  C   UNL     1     -42.261  58.697 -51.687  1.00  0.00     0.072 A 
HETATM   10  C   UNL     1     -42.089  57.511 -50.979  1.00  0.00     0.030 A 
HETATM   11  C   UNL     1     -40.841  57.228 -50.430  1.00  0.00     0.003 A 
HETATM   12  C   UNL     1     -39.799  58.134 -50.585  1.00  0.00     0.019 A 
HETATM   13  C   UNL     1     -40.050  59.304 -51.275  1.00  0.00     0.117 A 
HETATM   14  N   UNL     1     -41.254  59.617 -51.809  1.00  0.00    -0.262 NA
ENDBRANCH   1   9
BRANCH   1  15
HETATM   15  C   UNL     1     -43.567  59.031 -53.894  1.00  0.00     0.033 C 
HETATM   16  C   UNL     1     -44.800  58.344 -54.523  1.00  0.00     0.036 C 
HETATM   17  C   UNL     1     -44.822  56.821 -54.397  1.00  0.00     0.235 C 
HETATM   18  N   UNL     1     -43.520  56.206 -54.857  1.00  0.00    -0.067 N 
HETATM   19  H   UNL     1     -43.493  56.301 -55.883  1.00  0.00     0.280 HD
HETATM   20  C   UNL     1     -42.281  56.868 -54.296  1.00  0.00     0.235 C 
HETATM   21  C   UNL     1     -42.325  58.367 -54.515  1.00  0.00     0.036 C 
BRANCH  18  22
HETATM   22  C   UNL     1     -43.446  54.707 -54.570  1.00  0.00     0.278 C 
BRANCH  22  23
HETATM   23  C   UNL     1     -42.481  54.269 -53.509  1.00  0.00     0.028 A 
HETATM   24  C   UNL     1     -41.147  53.936 -53.766  1.00  0.00     0.045 A 
HETATM   25 CL   UNL     1     -40.521  53.962 -55.375  1.00  0.00    -0.084 Cl
HETATM   26  C   UNL     1     -40.294  53.554 -52.726  1.00  0.00     0.024 A 
HETATM   27  C   UNL     1     -40.764  53.503 -51.413  1.00  0.00     0.005 A 
HETATM   28  C   UNL     1     -42.088  53.834 -51.140  1.00  0.00     0.043 A 
HETATM   29  C   UNL     1     -42.926  54.212 -52.183  1.00  0.00     0.126 A 
HETATM   30  F   UNL     1     -44.199  54.523 -51.904  1.00  0.00    -0.205 F 
ENDBRANCH  22  23
ENDBRANCH  18  22
ENDBRANCH   1  15
BRANCH   5  31
HETATM   31  C   UNL     1     -46.072  61.454 -50.691  1.00  0.00     0.168 C 
BRANCH  31  32
HETATM   32  C   UNL     1     -45.351  62.175 -49.549  1.00  0.00     0.140 C 
HETATM   33  O   UNL     1     -46.144  63.270 -49.047  1.00  0.00    -0.384 OA
HETATM   34  C   UNL     1     -45.652  63.516 -47.722  1.00  0.00     0.168 C 
HETATM   35  C   UNL     1     -45.404  62.142 -47.141  1.00  0.00     0.029 C 
HETATM   36  C   UNL     1     -45.080  61.278 -48.344  1.00  0.00     0.036 C 
ENDBRANCH  31  32
ENDBRANCH   5  31
TORSDOF 6
ENDMDL
