MODEL 1
REMARK VINA RESULT:      -7.9      0.000      0.000
REMARK  6 active torsions:
REMARK  status: ('A' for Active; 'I' for Inactive)
REMARK    1  A    between atoms: C_2  and  C_3 
REMARK    2  A    between atoms: C_7  and  C_8 
REMARK       I    between atoms: C_8  and  N_9 
REMARK    3  A    between atoms: N_9  and  C_10 
REMARK    4  A    between atoms: C_10  and  C_11 
REMARK    5  A    between atoms: C_10  and  C_19 
REMARK    6  A    between atoms: C_14  and  O_15 
ROOT
HETATM    1  C   UNL     1     -42.055  55.599 -53.021  1.00  0.00     0.151 C 
ENDROOT
BRANCH   1   2
HETATM    2  N   UNL     1     -42.332  55.767 -54.436  1.00  0.00    -0.343 N 
HETATM    3  C   UNL     1     -43.522  56.266 -54.896  1.00  0.00     0.270 C 
HETATM    4  O   UNL     1     -44.454  56.568 -54.157  1.00  0.00    -0.266 OA
HETATM    5  H   UNL     1     -41.698  55.330 -55.087  1.00  0.00     0.163 HD
BRANCH   3   6
HETATM    6  C   UNL     1     -43.591  56.438 -56.322  1.00  0.00     0.119 A 
HETATM    7  N   UNL     1     -44.537  57.237 -56.907  1.00  0.00    -0.273 N 
HETATM    8  N   UNL     1     -44.419  57.342 -58.241  1.00  0.00    -0.179 NA
HETATM    9  H   UNL     1     -45.275  57.751 -56.435  1.00  0.00     0.189 HD
HETATM   10  C   UNL     1     -43.353  56.590 -58.530  1.00  0.00     0.056 A 
HETATM   11  C   UNL     1     -42.815  55.982 -57.371  1.00  0.00     0.065 A 
BRANCH  10  12
HETATM   12  C   UNL     1     -42.849  56.494 -59.931  1.00  0.00     0.056 C 
HETATM   13  C   UNL     1     -41.925  57.650 -60.287  1.00  0.00     0.011 C 
ENDBRANCH  10  12
ENDBRANCH   3   6
ENDBRANCH   1   2
BRANCH   1  14
HETATM   14  C   UNL     1     -41.273  54.303 -52.821  1.00  0.00    -0.031 A 
HETATM   15  C   UNL     1     -40.936  53.834 -51.543  1.00  0.00     0.012 A 
HETATM   16  C   UNL     1     -40.248  52.627 -51.389  1.00  0.00     0.037 A 
HETATM   17  C   UNL     1     -39.882  51.867 -52.502  1.00  0.00     0.068 A 
HETATM   18  C   UNL     1     -40.186  52.340 -53.778  1.00  0.00     0.037 A 
HETATM   19  C   UNL     1     -40.871  53.550 -53.936  1.00  0.00     0.012 A 
BRANCH  17  20
HETATM   20  O   UNL     1     -39.233  50.699 -52.211  1.00  0.00    -0.356 OA
HETATM   21  C   UNL     1     -39.571  50.069 -50.982  1.00  0.00     0.210 C 
ENDBRANCH  17  20
ENDBRANCH   1  14
BRANCH   1  22
HETATM   22  C   UNL     1     -41.378  56.837 -52.419  1.00  0.00    -0.031 A 
HETATM   23  C   UNL     1     -40.663  57.754 -53.210  1.00  0.00     0.009 A 
HETATM   24  C   UNL     1     -40.079  58.893 -52.647  1.00  0.00     0.001 A 
HETATM   25  C   UNL     1     -40.218  59.148 -51.287  1.00  0.00     0.000 A 
HETATM   26  C   UNL     1     -40.951  58.273 -50.489  1.00  0.00     0.001 A 
HETATM   27  C   UNL     1     -41.533  57.134 -51.052  1.00  0.00     0.009 A 
ENDBRANCH   1  22
TORSDOF 6
ENDMDL
MODEL 2
REMARK VINA RESULT:      -7.3      2.642      6.833
REMARK  6 active torsions:
REMARK  status: ('A' for Active; 'I' for Inactive)
REMARK    1  A    between atoms: C_2  and  C_3 
REMARK    2  A    between atoms: C_7  and  C_8 
REMARK       I    between atoms: C_8  and  N_9 
REMARK    3  A    between atoms: N_9  and  C_10 
REMARK    4  A    between atoms: C_10  and  C_11 
REMARK    5  A    between atoms: C_10  and  C_19 
REMARK    6  A    between atoms: C_14  and  O_15 
ROOT
HETATM    1  C   UNL     1     -42.083  54.865 -53.350  1.00  0.00     0.151 C 
ENDROOT
BRANCH   1   2
HETATM    2  N   UNL     1     -41.546  56.062 -52.728  1.00  0.00    -0.343 N 
HETATM    3  C   UNL     1     -42.285  56.840 -51.876  1.00  0.00     0.270 C 
HETATM    4  O   UNL     1     -43.460  56.611 -51.607  1.00  0.00    -0.266 OA
HETATM    5  H   UNL     1     -40.673  56.418 -53.084  1.00  0.00     0.163 HD
BRANCH   3   6
HETATM    6  C   UNL     1     -41.568  57.941 -51.291  1.00  0.00     0.119 A 
HETATM    7  N   UNL     1     -42.199  58.891 -50.534  1.00  0.00    -0.273 N 
HETATM    8  N   UNL     1     -41.373  59.810 -50.007  1.00  0.00    -0.179 NA
HETATM    9  H   UNL     1     -43.192  58.946 -50.330  1.00  0.00     0.189 HD
HETATM   10  C   UNL     1     -40.162  59.437 -50.432  1.00  0.00     0.056 A 
HETATM   11  C   UNL     1     -40.231  58.291 -51.258  1.00  0.00     0.065 A 
BRANCH  10  12
HETATM   12  C   UNL     1     -38.944  60.183 -50.003  1.00  0.00     0.056 C 
HETATM   13  C   UNL     1     -37.668  59.396 -50.269  1.00  0.00     0.011 C 
ENDBRANCH  10  12
ENDBRANCH   3   6
ENDBRANCH   1   2
BRANCH   1  14
HETATM   14  C   UNL     1     -42.416  55.173 -54.807  1.00  0.00    -0.031 A 
HETATM   15  C   UNL     1     -43.183  54.297 -55.589  1.00  0.00     0.012 A 
HETATM   16  C   UNL     1     -43.500  54.620 -56.911  1.00  0.00     0.037 A 
HETATM   17  C   UNL     1     -43.059  55.818 -57.480  1.00  0.00     0.068 A 
HETATM   18  C   UNL     1     -42.271  56.681 -56.719  1.00  0.00     0.037 A 
HETATM   19  C   UNL     1     -41.948  56.358 -55.396  1.00  0.00     0.012 A 
BRANCH  17  20
HETATM   20  O   UNL     1     -43.457  56.021 -58.772  1.00  0.00    -0.356 OA
HETATM   21  C   UNL     1     -44.069  54.920 -59.432  1.00  0.00     0.210 C 
ENDBRANCH  17  20
ENDBRANCH   1  14
BRANCH   1  22
HETATM   22  C   UNL     1     -41.156  53.657 -53.161  1.00  0.00    -0.031 A 
HETATM   23  C   UNL     1     -40.669  53.283 -51.896  1.00  0.00     0.009 A 
HETATM   24  C   UNL     1     -39.849  52.160 -51.741  1.00  0.00     0.001 A 
HETATM   25  C   UNL     1     -39.519  51.379 -52.844  1.00  0.00     0.000 A 
HETATM   26  C   UNL     1     -40.017  51.710 -54.101  1.00  0.00     0.001 A 
HETATM   27  C   UNL     1     -40.835  52.833 -54.256  1.00  0.00     0.009 A 
ENDBRANCH   1  22
TORSDOF 6
ENDMDL
MODEL 3
REMARK VINA RESULT:      -7.2      2.691      5.378
REMARK  6 active torsions:
REMARK  status: ('A' for Active; 'I' for Inactive)
REMARK    1  A    between atoms: C_2  and  C_3 
REMARK    2  A    between atoms: C_7  and  C_8 
REMARK       I    between atoms: C_8  and  N_9 
REMARK    3  A    between atoms: N_9  and  C_10 
REMARK    4  A    between atoms: C_10  and  C_11 
REMARK    5  A    between atoms: C_10  and  C_19 
REMARK    6  A    between atoms: C_14  and  O_15 
ROOT
HETATM    1  C   UNL     1     -41.590  56.397 -54.768  1.00  0.00     0.151 C 
ENDROOT
BRANCH   1   2
HETATM    2  N   UNL     1     -42.306  56.198 -56.015  1.00  0.00    -0.343 N 
HETATM    3  C   UNL     1     -42.434  57.188 -56.954  1.00  0.00     0.270 C 
HETATM    4  O   UNL     1     -41.993  58.323 -56.797  1.00  0.00    -0.266 OA
HETATM    5  H   UNL     1     -42.873  55.369 -56.097  1.00  0.00     0.163 HD
BRANCH   3   6
HETATM    6  C   UNL     1     -43.105  56.790 -58.162  1.00  0.00     0.119 A 
HETATM    7  N   UNL     1     -42.432  56.208 -59.202  1.00  0.00    -0.273 N 
HETATM    8  N   UNL     1     -43.220  55.836 -60.225  1.00  0.00    -0.179 NA
HETATM    9  H   UNL     1     -41.435  56.024 -59.255  1.00  0.00     0.189 HD
HETATM   10  C   UNL     1     -44.448  56.182 -59.829  1.00  0.00     0.056 A 
HETATM   11  C   UNL     1     -44.429  56.806 -58.559  1.00  0.00     0.065 A 
BRANCH  10  12
HETATM   12  C   UNL     1     -45.635  55.875 -60.679  1.00  0.00     0.056 C 
HETATM   13  C   UNL     1     -46.918  56.455 -60.101  1.00  0.00     0.011 C 
ENDBRANCH  10  12
ENDBRANCH   3   6
ENDBRANCH   1   2
BRANCH   1  14
HETATM   14  C   UNL     1     -42.477  57.191 -53.812  1.00  0.00    -0.031 A 
HETATM   15  C   UNL     1     -43.827  56.866 -53.616  1.00  0.00     0.012 A 
HETATM   16  C   UNL     1     -44.605  57.589 -52.709  1.00  0.00     0.037 A 
HETATM   17  C   UNL     1     -44.058  58.651 -51.984  1.00  0.00     0.068 A 
HETATM   18  C   UNL     1     -42.725  59.001 -52.196  1.00  0.00     0.037 A 
HETATM   19  C   UNL     1     -41.943  58.280 -53.105  1.00  0.00     0.012 A 
BRANCH  17  20
HETATM   20  O   UNL     1     -44.921  59.261 -51.117  1.00  0.00    -0.356 OA
HETATM   21  C   UNL     1     -46.038  59.929 -51.692  1.00  0.00     0.210 C 
ENDBRANCH  17  20
ENDBRANCH   1  14
BRANCH   1  22
HETATM   22  C   UNL     1     -41.070  55.075 -54.189  1.00  0.00    -0.031 A 
HETATM   23  C   UNL     1     -41.101  54.803 -52.810  1.00  0.00     0.009 A 
HETATM   24  C   UNL     1     -40.650  53.579 -52.305  1.00  0.00     0.001 A 
HETATM   25  C   UNL     1     -40.179  52.598 -53.171  1.00  0.00     0.000 A 
HETATM   26  C   UNL     1     -40.171  52.831 -54.544  1.00  0.00     0.001 A 
HETATM   27  C   UNL     1     -40.620  54.055 -55.048  1.00  0.00     0.009 A 
ENDBRANCH   1  22
TORSDOF 6
ENDMDL
MODEL 4
REMARK VINA RESULT:      -7.2      2.469      7.340
REMARK  6 active torsions:
REMARK  status: ('A' for Active; 'I' for Inactive)
REMARK    1  A    between atoms: C_2  and  C_3 
REMARK    2  A    between atoms: C_7  and  C_8 
REMARK       I    between atoms: C_8  and  N_9 
REMARK    3  A    between atoms: N_9  and  C_10 
REMARK    4  A    between atoms: C_10  and  C_11 
REMARK    5  A    between atoms: C_10  and  C_19 
REMARK    6  A    between atoms: C_14  and  O_15 
ROOT
HETATM    1  C   UNL     1     -43.098  56.864 -55.862  1.00  0.00     0.151 C 
ENDROOT
BRANCH   1   2
HETATM    2  N   UNL     1     -42.235  55.909 -55.192  1.00  0.00    -0.343 N 
HETATM    3  C   UNL     1     -42.728  54.830 -54.506  1.00  0.00     0.270 C 
HETATM    4  O   UNL     1     -43.929  54.612 -54.371  1.00  0.00    -0.266 OA
HETATM    5  H   UNL     1     -41.265  56.159 -55.080  1.00  0.00     0.163 HD
BRANCH   3   6
HETATM    6  C   UNL     1     -41.727  53.946 -53.974  1.00  0.00     0.119 A 
HETATM    7  N   UNL     1     -41.127  54.179 -52.766  1.00  0.00    -0.273 N 
HETATM    8  N   UNL     1     -40.266  53.220 -52.386  1.00  0.00    -0.179 NA
HETATM    9  H   UNL     1     -41.286  54.971 -52.151  1.00  0.00     0.189 HD
HETATM   10  C   UNL     1     -40.317  52.329 -53.380  1.00  0.00     0.056 A 
HETATM   11  C   UNL     1     -41.194  52.747 -54.409  1.00  0.00     0.065 A 
BRANCH  10  12
HETATM   12  C   UNL     1     -39.532  51.063 -53.306  1.00  0.00     0.056 C 
HETATM   13  C   UNL     1     -39.896  50.098 -54.425  1.00  0.00     0.011 C 
ENDBRANCH  10  12
ENDBRANCH   3   6
ENDBRANCH   1   2
BRANCH   1  14
HETATM   14  C   UNL     1     -43.002  58.207 -55.142  1.00  0.00    -0.031 A 
HETATM   15  C   UNL     1     -44.060  59.127 -55.151  1.00  0.00     0.012 A 
HETATM   16  C   UNL     1     -43.956  60.334 -54.455  1.00  0.00     0.037 A 
HETATM   17  C   UNL     1     -42.798  60.649 -53.741  1.00  0.00     0.068 A 
HETATM   18  C   UNL     1     -41.728  59.755 -53.752  1.00  0.00     0.037 A 
HETATM   19  C   UNL     1     -41.828  58.546 -54.450  1.00  0.00     0.012 A 
BRANCH  17  20
HETATM   20  O   UNL     1     -42.834  61.851 -53.089  1.00  0.00    -0.356 OA
HETATM   21  C   UNL     1     -43.201  61.821 -51.715  1.00  0.00     0.210 C 
ENDBRANCH  17  20
ENDBRANCH   1  14
BRANCH   1  22
HETATM   22  C   UNL     1     -42.810  56.939 -57.367  1.00  0.00    -0.031 A 
HETATM   23  C   UNL     1     -42.178  58.051 -57.950  1.00  0.00     0.009 A 
HETATM   24  C   UNL     1     -41.896  58.087 -59.319  1.00  0.00     0.001 A 
HETATM   25  C   UNL     1     -42.223  57.002 -60.127  1.00  0.00     0.000 A 
HETATM   26  C   UNL     1     -42.818  55.876 -59.567  1.00  0.00     0.001 A 
HETATM   27  C   UNL     1     -43.100  55.840 -58.198  1.00  0.00     0.009 A 
ENDBRANCH   1  22
TORSDOF 6
ENDMDL
MODEL 5
REMARK VINA RESULT:      -6.8     15.460     18.001
REMARK  6 active torsions:
REMARK  status: ('A' for Active; 'I' for Inactive)
REMARK    1  A    between atoms: C_2  and  C_3 
REMARK    2  A    between atoms: C_7  and  C_8 
REMARK       I    between atoms: C_8  and  N_9 
REMARK    3  A    between atoms: N_9  and  C_10 
REMARK    4  A    between atoms: C_10  and  C_11 
REMARK    5  A    between atoms: C_10  and  C_19 
REMARK    6  A    between atoms: C_14  and  O_15 
ROOT
HETATM    1  C   UNL     1     -34.889  41.147 -54.896  1.00  0.00     0.151 C 
ENDROOT
BRANCH   1   2
HETATM    2  N   UNL     1     -35.374  40.596 -53.644  1.00  0.00    -0.343 N 
HETATM    3  C   UNL     1     -36.058  41.351 -52.727  1.00  0.00     0.270 C 
HETATM    4  O   UNL     1     -36.275  42.550 -52.873  1.00  0.00    -0.266 OA
HETATM    5  H   UNL     1     -35.032  39.687 -53.374  1.00  0.00     0.163 HD
BRANCH   3   6
HETATM    6  C   UNL     1     -36.532  40.623 -51.582  1.00  0.00     0.119 A 
HETATM    7  N   UNL     1     -37.755  40.008 -51.573  1.00  0.00    -0.273 N 
HETATM    8  N   UNL     1     -38.014  39.314 -50.452  1.00  0.00    -0.179 NA
HETATM    9  H   UNL     1     -38.444  40.014 -52.319  1.00  0.00     0.189 HD
HETATM   10  C   UNL     1     -36.915  39.480 -49.710  1.00  0.00     0.056 A 
HETATM   11  C   UNL     1     -35.970  40.310 -50.358  1.00  0.00     0.065 A 
BRANCH  10  12
HETATM   12  C   UNL     1     -36.783  38.803 -48.387  1.00  0.00     0.056 C 
HETATM   13  C   UNL     1     -35.399  38.201 -48.189  1.00  0.00     0.011 C 
ENDBRANCH  10  12
ENDBRANCH   3   6
ENDBRANCH   1   2
BRANCH   1  14
HETATM   14  C   UNL     1     -33.530  40.529 -55.214  1.00  0.00    -0.031 A 
HETATM   15  C   UNL     1     -33.013  40.513 -56.517  1.00  0.00     0.012 A 
HETATM   16  C   UNL     1     -31.751  39.969 -56.773  1.00  0.00     0.037 A 
HETATM   17  C   UNL     1     -30.983  39.429 -55.739  1.00  0.00     0.068 A 
HETATM   18  C   UNL     1     -31.502  39.412 -54.445  1.00  0.00     0.037 A 
HETATM   19  C   UNL     1     -32.766  39.952 -54.186  1.00  0.00     0.012 A 
BRANCH  17  20
HETATM   20  O   UNL     1     -29.761  38.949 -56.121  1.00  0.00    -0.356 OA
HETATM   21  C   UNL     1     -29.723  38.174 -57.313  1.00  0.00     0.210 C 
ENDBRANCH  17  20
ENDBRANCH   1  14
BRANCH   1  22
HETATM   22  C   UNL     1     -35.920  41.004 -56.022  1.00  0.00    -0.031 A 
HETATM   23  C   UNL     1     -36.796  39.906 -56.096  1.00  0.00     0.009 A 
HETATM   24  C   UNL     1     -37.750  39.809 -57.113  1.00  0.00     0.001 A 
HETATM   25  C   UNL     1     -37.861  40.819 -58.064  1.00  0.00     0.000 A 
HETATM   26  C   UNL     1     -37.029  41.932 -57.992  1.00  0.00     0.001 A 
HETATM   27  C   UNL     1     -36.074  42.029 -56.976  1.00  0.00     0.009 A 
ENDBRANCH   1  22
TORSDOF 6
ENDMDL
MODEL 6
REMARK VINA RESULT:      -6.8      1.400      1.948
REMARK  6 active torsions:
REMARK  status: ('A' for Active; 'I' for Inactive)
REMARK    1  A    between atoms: C_2  and  C_3 
REMARK    2  A    between atoms: C_7  and  C_8 
REMARK       I    between atoms: C_8  and  N_9 
REMARK    3  A    between atoms: N_9  and  C_10 
REMARK    4  A    between atoms: C_10  and  C_11 
REMARK    5  A    between atoms: C_10  and  C_19 
REMARK    6  A    between atoms: C_14  and  O_15 
ROOT
HETATM    1  C   UNL     1     -42.635  56.431 -52.476  1.00  0.00     0.151 C 
ENDROOT
BRANCH   1   2
HETATM    2  N   UNL     1     -42.454  56.473 -53.916  1.00  0.00    -0.343 N 
HETATM    3  C   UNL     1     -43.505  56.611 -54.784  1.00  0.00     0.270 C 
HETATM    4  O   UNL     1     -44.675  56.667 -54.417  1.00  0.00    -0.266 OA
HETATM    5  H   UNL     1     -41.551  56.208 -54.277  1.00  0.00     0.163 HD
BRANCH   3   6
HETATM    6  C   UNL     1     -43.134  56.713 -56.169  1.00  0.00     0.119 A 
HETATM    7  N   UNL     1     -43.490  55.760 -57.084  1.00  0.00    -0.273 N 
HETATM    8  N   UNL     1     -43.123  56.044 -58.344  1.00  0.00    -0.179 NA
HETATM    9  H   UNL     1     -44.005  54.904 -56.901  1.00  0.00     0.189 HD
HETATM   10  C   UNL     1     -42.512  57.228 -58.244  1.00  0.00     0.056 A 
HETATM   11  C   UNL     1     -42.469  57.678 -56.903  1.00  0.00     0.065 A 
BRANCH  10  12
HETATM   12  C   UNL     1     -42.002  57.926 -59.459  1.00  0.00     0.056 C 
HETATM   13  C   UNL     1     -42.202  59.433 -59.379  1.00  0.00     0.011 C 
ENDBRANCH  10  12
ENDBRANCH   3   6
ENDBRANCH   1   2
BRANCH   1  14
HETATM   14  C   UNL     1     -41.980  55.164 -51.933  1.00  0.00    -0.031 A 
HETATM   15  C   UNL     1     -41.180  54.343 -52.740  1.00  0.00     0.012 A 
HETATM   16  C   UNL     1     -40.566  53.206 -52.207  1.00  0.00     0.037 A 
HETATM   17  C   UNL     1     -40.740  52.864 -50.864  1.00  0.00     0.068 A 
HETATM   18  C   UNL     1     -41.558  53.658 -50.061  1.00  0.00     0.037 A 
HETATM   19  C   UNL     1     -42.177  54.795 -50.592  1.00  0.00     0.012 A 
BRANCH  17  20
HETATM   20  O   UNL     1     -40.068  51.742 -50.465  1.00  0.00    -0.356 OA
HETATM   21  C   UNL     1     -39.548  50.910 -51.495  1.00  0.00     0.210 C 
ENDBRANCH  17  20
ENDBRANCH   1  14
BRANCH   1  22
HETATM   22  C   UNL     1     -42.156  57.723 -51.802  1.00  0.00    -0.031 A 
HETATM   23  C   UNL     1     -43.046  58.755 -51.452  1.00  0.00     0.009 A 
HETATM   24  C   UNL     1     -42.593  59.912 -50.810  1.00  0.00     0.001 A 
HETATM   25  C   UNL     1     -41.247  60.049 -50.486  1.00  0.00     0.000 A 
HETATM   26  C   UNL     1     -40.354  59.026 -50.791  1.00  0.00     0.001 A 
HETATM   27  C   UNL     1     -40.805  57.871 -51.434  1.00  0.00     0.009 A 
ENDBRANCH   1  22
TORSDOF 6
ENDMDL
MODEL 7
REMARK VINA RESULT:      -6.8     14.875     16.775
REMARK  6 active torsions:
REMARK  status: ('A' for Active; 'I' for Inactive)
REMARK    1  A    between atoms: C_2  and  C_3 
REMARK    2  A    between atoms: C_7  and  C_8 
REMARK       I    between atoms: C_8  and  N_9 
REMARK    3  A    between atoms: N_9  and  C_10 
REMARK    4  A    between atoms: C_10  and  C_11 
REMARK    5  A    between atoms: C_10  and  C_19 
REMARK    6  A    between atoms: C_14  and  O_15 
ROOT
HETATM    1  C   UNL     1     -35.946  40.593 -51.318  1.00  0.00     0.151 C 
ENDROOT
BRANCH   1   2
HETATM    2  N   UNL     1     -36.390  40.733 -52.693  1.00  0.00    -0.343 N 
HETATM    3  C   UNL     1     -36.203  41.885 -53.410  1.00  0.00     0.270 C 
HETATM    4  O   UNL     1     -35.689  42.894 -52.937  1.00  0.00    -0.266 OA
HETATM    5  H   UNL     1     -37.010  40.025 -53.054  1.00  0.00     0.163 HD
BRANCH   3   6
HETATM    6  C   UNL     1     -36.633  41.818 -54.781  1.00  0.00     0.119 A 
HETATM    7  N   UNL     1     -37.893  41.407 -55.123  1.00  0.00    -0.273 N 
HETATM    8  N   UNL     1     -38.153  41.468 -56.439  1.00  0.00    -0.179 NA
HETATM    9  H   UNL     1     -38.622  41.092 -54.490  1.00  0.00     0.189 HD
HETATM   10  C   UNL     1     -37.022  41.945 -56.969  1.00  0.00     0.056 A 
HETATM   11  C   UNL     1     -36.033  42.155 -55.979  1.00  0.00     0.065 A 
BRANCH  10  12
HETATM   12  C   UNL     1     -36.925  42.219 -58.432  1.00  0.00     0.056 C 
HETATM   13  C   UNL     1     -37.651  41.169 -59.260  1.00  0.00     0.011 C 
ENDBRANCH  10  12
ENDBRANCH   3   6
ENDBRANCH   1   2
BRANCH   1  14
HETATM   14  C   UNL     1     -36.965  39.751 -50.554  1.00  0.00    -0.031 A 
HETATM   15  C   UNL     1     -38.077  39.181 -51.191  1.00  0.00     0.012 A 
HETATM   16  C   UNL     1     -38.975  38.386 -50.473  1.00  0.00     0.037 A 
HETATM   17  C   UNL     1     -38.786  38.148 -49.109  1.00  0.00     0.068 A 
HETATM   18  C   UNL     1     -37.700  38.736 -48.461  1.00  0.00     0.037 A 
HETATM   19  C   UNL     1     -36.800  39.534 -49.176  1.00  0.00     0.012 A 
BRANCH  17  20
HETATM   20  O   UNL     1     -39.724  37.339 -48.532  1.00  0.00    -0.356 OA
HETATM   21  C   UNL     1     -41.048  37.852 -48.453  1.00  0.00     0.210 C 
ENDBRANCH  17  20
ENDBRANCH   1  14
BRANCH   1  22
HETATM   22  C   UNL     1     -34.508  40.068 -51.231  1.00  0.00    -0.031 A 
HETATM   23  C   UNL     1     -33.525  40.713 -50.458  1.00  0.00     0.009 A 
HETATM   24  C   UNL     1     -32.226  40.201 -50.368  1.00  0.00     0.001 A 
HETATM   25  C   UNL     1     -31.893  39.025 -51.030  1.00  0.00     0.000 A 
HETATM   26  C   UNL     1     -32.857  38.350 -51.773  1.00  0.00     0.001 A 
HETATM   27  C   UNL     1     -34.155  38.862 -51.865  1.00  0.00     0.009 A 
ENDBRANCH   1  22
TORSDOF 6
ENDMDL
MODEL 8
REMARK VINA RESULT:      -6.7      2.784      5.767
REMARK  6 active torsions:
REMARK  status: ('A' for Active; 'I' for Inactive)
REMARK    1  A    between atoms: C_2  and  C_3 
REMARK    2  A    between atoms: C_7  and  C_8 
REMARK       I    between atoms: C_8  and  N_9 
REMARK    3  A    between atoms: N_9  and  C_10 
REMARK    4  A    between atoms: C_10  and  C_11 
REMARK    5  A    between atoms: C_10  and  C_19 
REMARK    6  A    between atoms: C_14  and  O_15 
ROOT
HETATM    1  C   UNL     1     -41.408  56.489 -54.859  1.00  0.00     0.151 C 
ENDROOT
BRANCH   1   2
HETATM    2  N   UNL     1     -42.129  57.196 -53.816  1.00  0.00    -0.343 N 
HETATM    3  C   UNL     1     -41.745  58.432 -53.368  1.00  0.00     0.270 C 
HETATM    4  O   UNL     1     -40.747  59.016 -53.781  1.00  0.00    -0.266 OA
HETATM    5  H   UNL     1     -42.813  56.675 -53.291  1.00  0.00     0.163 HD
BRANCH   3   6
HETATM    6  C   UNL     1     -42.621  59.017 -52.389  1.00  0.00     0.119 A 
HETATM    7  N   UNL     1     -42.368  60.243 -51.836  1.00  0.00    -0.273 N 
HETATM    8  N   UNL     1     -43.321  60.672 -50.991  1.00  0.00    -0.179 NA
HETATM    9  H   UNL     1     -41.567  60.839 -52.019  1.00  0.00     0.189 HD
HETATM   10  C   UNL     1     -44.228  59.690 -51.003  1.00  0.00     0.056 A 
HETATM   11  C   UNL     1     -43.826  58.622 -51.840  1.00  0.00     0.065 A 
BRANCH  10  12
HETATM   12  C   UNL     1     -45.492  59.814 -50.222  1.00  0.00     0.056 C 
HETATM   13  C   UNL     1     -45.454  60.990 -49.256  1.00  0.00     0.011 C 
ENDBRANCH  10  12
ENDBRANCH   3   6
ENDBRANCH   1   2
BRANCH   1  14
HETATM   14  C   UNL     1     -41.054  55.092 -54.356  1.00  0.00    -0.031 A 
HETATM   15  C   UNL     1     -40.297  54.200 -55.128  1.00  0.00     0.012 A 
HETATM   16  C   UNL     1     -39.960  52.939 -54.627  1.00  0.00     0.037 A 
HETATM   17  C   UNL     1     -40.372  52.543 -53.353  1.00  0.00     0.068 A 
HETATM   18  C   UNL     1     -41.152  53.412 -52.590  1.00  0.00     0.037 A 
HETATM   19  C   UNL     1     -41.493  54.674 -53.089  1.00  0.00     0.012 A 
BRANCH  17  20
HETATM   20  O   UNL     1     -39.958  51.295 -52.977  1.00  0.00    -0.356 OA
HETATM   21  C   UNL     1     -39.902  50.306 -53.998  1.00  0.00     0.210 C 
ENDBRANCH  17  20
ENDBRANCH   1  14
BRANCH   1  22
HETATM   22  C   UNL     1     -42.170  56.500 -56.190  1.00  0.00    -0.031 A 
HETATM   23  C   UNL     1     -42.785  55.345 -56.707  1.00  0.00     0.009 A 
HETATM   24  C   UNL     1     -43.501  55.383 -57.907  1.00  0.00     0.001 A 
HETATM   25  C   UNL     1     -43.635  56.581 -58.602  1.00  0.00     0.000 A 
HETATM   26  C   UNL     1     -43.065  57.745 -58.094  1.00  0.00     0.001 A 
HETATM   27  C   UNL     1     -42.348  57.707 -56.895  1.00  0.00     0.009 A 
ENDBRANCH   1  22
TORSDOF 6
ENDMDL
MODEL 9
REMARK VINA RESULT:      -6.7      3.329      6.483
REMARK  6 active torsions:
REMARK  status: ('A' for Active; 'I' for Inactive)
REMARK    1  A    between atoms: C_2  and  C_3 
REMARK    2  A    between atoms: C_7  and  C_8 
REMARK       I    between atoms: C_8  and  N_9 
REMARK    3  A    between atoms: N_9  and  C_10 
REMARK    4  A    between atoms: C_10  and  C_11 
REMARK    5  A    between atoms: C_10  and  C_19 
REMARK    6  A    between atoms: C_14  and  O_15 
ROOT
HETATM    1  C   UNL     1     -43.079  55.908 -52.008  1.00  0.00     0.151 C 
ENDROOT
BRANCH   1   2
HETATM    2  N   UNL     1     -43.133  57.321 -51.678  1.00  0.00    -0.343 N 
HETATM    3  C   UNL     1     -44.268  57.918 -51.195  1.00  0.00     0.270 C 
HETATM    4  O   UNL     1     -45.330  57.320 -51.045  1.00  0.00    -0.266 OA
HETATM    5  H   UNL     1     -42.369  57.899 -51.990  1.00  0.00     0.163 HD
BRANCH   3   6
HETATM    6  C   UNL     1     -44.117  59.304 -50.847  1.00  0.00     0.119 A 
HETATM    7  N   UNL     1     -44.907  59.901 -49.901  1.00  0.00    -0.273 N 
HETATM    8  N   UNL     1     -44.589  61.181 -49.647  1.00  0.00    -0.179 NA
HETATM    9  H   UNL     1     -45.667  59.469 -49.384  1.00  0.00     0.189 HD
HETATM   10  C   UNL     1     -43.550  61.421 -50.453  1.00  0.00     0.056 A 
HETATM   11  C   UNL     1     -43.232  60.290 -51.241  1.00  0.00     0.065 A 
BRANCH  10  12
HETATM   12  C   UNL     1     -42.856  62.741 -50.425  1.00  0.00     0.056 C 
HETATM   13  C   UNL     1     -43.580  63.749 -49.544  1.00  0.00     0.011 C 
ENDBRANCH  10  12
ENDBRANCH   3   6
ENDBRANCH   1   2
BRANCH   1  14
HETATM   14  C   UNL     1     -42.968  55.759 -53.523  1.00  0.00    -0.031 A 
HETATM   15  C   UNL     1     -43.400  54.600 -54.184  1.00  0.00     0.012 A 
HETATM   16  C   UNL     1     -43.316  54.505 -55.576  1.00  0.00     0.037 A 
HETATM   17  C   UNL     1     -42.799  55.558 -56.334  1.00  0.00     0.068 A 
HETATM   18  C   UNL     1     -42.339  56.702 -55.683  1.00  0.00     0.037 A 
HETATM   19  C   UNL     1     -42.419  56.799 -54.290  1.00  0.00     0.012 A 
BRANCH  17  20
HETATM   20  O   UNL     1     -42.793  55.345 -57.685  1.00  0.00    -0.356 OA
HETATM   21  C   UNL     1     -43.021  56.479 -58.512  1.00  0.00     0.210 C 
ENDBRANCH  17  20
ENDBRANCH   1  14
BRANCH   1  22
HETATM   22  C   UNL     1     -41.981  55.179 -51.225  1.00  0.00    -0.031 A 
HETATM   23  C   UNL     1     -41.088  54.288 -51.848  1.00  0.00     0.009 A 
HETATM   24  C   UNL     1     -40.074  53.656 -51.122  1.00  0.00     0.001 A 
HETATM   25  C   UNL     1     -39.919  53.919 -49.764  1.00  0.00     0.000 A 
HETATM   26  C   UNL     1     -40.769  54.823 -49.133  1.00  0.00     0.001 A 
HETATM   27  C   UNL     1     -41.783  55.454 -49.858  1.00  0.00     0.009 A 
ENDBRANCH   1  22
TORSDOF 6
ENDMDL
MODEL 10
REMARK VINA RESULT:      -6.6      3.012      6.900
REMARK  6 active torsions:
REMARK  status: ('A' for Active; 'I' for Inactive)
REMARK    1  A    between atoms: C_2  and  C_3 
REMARK    2  A    between atoms: C_7  and  C_8 
REMARK       I    between atoms: C_8  and  N_9 
REMARK    3  A    between atoms: N_9  and  C_10 
REMARK    4  A    between atoms: C_10  and  C_11 
REMARK    5  A    between atoms: C_10  and  C_19 
REMARK    6  A    between atoms: C_14  and  O_15 
ROOT
HETATM    1  C   UNL     1     -43.303  56.001 -55.527  1.00  0.00     0.151 C 
ENDROOT
BRANCH   1   2
HETATM    2  N   UNL     1     -43.459  57.162 -54.669  1.00  0.00    -0.343 N 
HETATM    3  C   UNL     1     -44.650  57.829 -54.548  1.00  0.00     0.270 C 
HETATM    4  O   UNL     1     -45.657  57.526 -55.181  1.00  0.00    -0.266 OA
HETATM    5  H   UNL     1     -42.621  57.585 -54.305  1.00  0.00     0.163 HD
BRANCH   3   6
HETATM    6  C   UNL     1     -44.643  58.905 -53.595  1.00  0.00     0.119 A 
HETATM    7  N   UNL     1     -45.699  59.768 -53.474  1.00  0.00    -0.273 N 
HETATM    8  N   UNL     1     -45.559  60.672 -52.490  1.00  0.00    -0.179 NA
HETATM    9  H   UNL     1     -46.550  59.769 -54.027  1.00  0.00     0.189 HD
HETATM   10  C   UNL     1     -44.373  60.379 -51.949  1.00  0.00     0.056 A 
HETATM   11  C   UNL     1     -43.748  59.301 -52.619  1.00  0.00     0.065 A 
BRANCH  10  12
HETATM   12  C   UNL     1     -43.871  61.133 -50.764  1.00  0.00     0.056 C 
HETATM   13  C   UNL     1     -42.502  60.645 -50.313  1.00  0.00     0.011 C 
ENDBRANCH  10  12
ENDBRANCH   3   6
ENDBRANCH   1   2
BRANCH   1  14
HETATM   14  C   UNL     1     -42.958  56.472 -56.937  1.00  0.00    -0.031 A 
HETATM   15  C   UNL     1     -42.356  57.716 -57.173  1.00  0.00     0.012 A 
HETATM   16  C   UNL     1     -42.021  58.107 -58.472  1.00  0.00     0.037 A 
HETATM   17  C   UNL     1     -42.283  57.270 -59.560  1.00  0.00     0.068 A 
HETATM   18  C   UNL     1     -42.910  56.045 -59.338  1.00  0.00     0.037 A 
HETATM   19  C   UNL     1     -43.249  55.651 -58.039  1.00  0.00     0.012 A 
BRANCH  17  20
HETATM   20  O   UNL     1     -41.887  57.764 -60.772  1.00  0.00    -0.356 OA
HETATM   21  C   UNL     1     -41.932  59.176 -60.932  1.00  0.00     0.210 C 
ENDBRANCH  17  20
ENDBRANCH   1  14
BRANCH   1  22
HETATM   22  C   UNL     1     -42.309  54.988 -54.944  1.00  0.00    -0.031 A 
HETATM   23  C   UNL     1     -41.073  54.719 -55.558  1.00  0.00     0.009 A 
HETATM   24  C   UNL     1     -40.167  53.815 -54.994  1.00  0.00     0.001 A 
HETATM   25  C   UNL     1     -40.472  53.179 -53.795  1.00  0.00     0.000 A 
HETATM   26  C   UNL     1     -41.674  53.455 -53.150  1.00  0.00     0.001 A 
HETATM   27  C   UNL     1     -42.580  54.358 -53.714  1.00  0.00     0.009 A 
ENDBRANCH   1  22
TORSDOF 6
ENDMDL
