MODEL 1
REMARK VINA RESULT:      -6.6      0.000      0.000
REMARK  3 active torsions:
REMARK  status: ('A' for Active; 'I' for Inactive)
REMARK    1  A    between atoms: C_2  and  N_3 
REMARK    2  A    between atoms: C_2  and  C_14 
REMARK       I    between atoms: N_3  and  C_4 
REMARK    3  A    between atoms: C_4  and  C_5 
ROOT
HETATM    1  N   UNL     1     -41.958  55.141 -54.532  1.00  0.00    -0.347 N 
HETATM    2  C   UNL     1     -43.099  55.702 -55.048  1.00  0.00     0.268 C 
HETATM    3  O   UNL     1     -44.127  55.842 -54.392  1.00  0.00    -0.266 OA
HETATM    4  H   UNL     1     -41.137  55.057 -55.112  1.00  0.00     0.163 HD
ENDROOT
BRANCH   1   5
HETATM    5  C   UNL     1     -41.870  54.706 -53.150  1.00  0.00     0.114 C 
HETATM    6  C   UNL     1     -41.324  55.820 -52.251  1.00  0.00     0.037 C 
BRANCH   5   7
HETATM    7  C   UNL     1     -41.043  53.437 -53.069  1.00  0.00    -0.033 A 
HETATM    8  C   UNL     1     -40.892  52.630 -54.203  1.00  0.00     0.028 A 
HETATM    9  C   UNL     1     -40.113  51.487 -54.112  1.00  0.00     0.116 A 
HETATM   10  N   UNL     1     -39.476  51.099 -52.988  1.00  0.00    -0.273 NA
HETATM   11  C   UNL     1     -39.623  51.891 -51.906  1.00  0.00     0.116 A 
HETATM   12  C   UNL     1     -40.380  53.054 -51.897  1.00  0.00     0.028 A 
ENDBRANCH   5   7
ENDBRANCH   1   5
BRANCH   2  13
HETATM   13  C   UNL     1     -43.014  56.126 -56.428  1.00  0.00     0.103 A 
HETATM   14  N   UNL     1     -43.534  55.347 -57.446  1.00  0.00    -0.341 N 
HETATM   15  H   UNL     1     -43.993  54.455 -57.304  1.00  0.00     0.167 HD
HETATM   16  C   UNL     1     -43.334  55.960 -58.642  1.00  0.00     0.126 A 
HETATM   17 CL   UNL     1     -43.901  55.175 -60.035  1.00  0.00    -0.063 Cl
HETATM   18  C   UNL     1     -42.684  57.145 -58.438  1.00  0.00     0.074 A 
HETATM   19 CL   UNL     1     -42.198  58.295 -59.585  1.00  0.00    -0.081 Cl
HETATM   20  C   UNL     1     -42.476  57.255 -57.038  1.00  0.00     0.062 A 
ENDBRANCH   2  13
TORSDOF 3
ENDMDL
MODEL 2
REMARK VINA RESULT:      -6.6      3.558      6.797
REMARK  3 active torsions:
REMARK  status: ('A' for Active; 'I' for Inactive)
REMARK    1  A    between atoms: C_2  and  N_3 
REMARK    2  A    between atoms: C_2  and  C_14 
REMARK       I    between atoms: N_3  and  C_4 
REMARK    3  A    between atoms: C_4  and  C_5 
ROOT
HETATM    1  N   UNL     1     -42.017  55.771 -55.542  1.00  0.00    -0.347 N 
HETATM    2  C   UNL     1     -41.146  55.744 -54.482  1.00  0.00     0.268 C 
HETATM    3  O   UNL     1     -40.723  56.761 -53.942  1.00  0.00    -0.266 OA
HETATM    4  H   UNL     1     -42.341  54.906 -55.944  1.00  0.00     0.163 HD
ENDROOT
BRANCH   1   5
HETATM    5  C   UNL     1     -42.538  57.016 -56.079  1.00  0.00     0.114 C 
HETATM    6  C   UNL     1     -43.904  57.353 -55.472  1.00  0.00     0.037 C 
BRANCH   5   7
HETATM    7  C   UNL     1     -42.579  56.936 -57.593  1.00  0.00    -0.033 A 
HETATM    8  C   UNL     1     -42.056  57.983 -58.360  1.00  0.00     0.028 A 
HETATM    9  C   UNL     1     -42.084  57.880 -59.742  1.00  0.00     0.116 A 
HETATM   10  N   UNL     1     -42.584  56.817 -60.406  1.00  0.00    -0.273 NA
HETATM   11  C   UNL     1     -43.077  55.813 -59.654  1.00  0.00     0.116 A 
HETATM   12  C   UNL     1     -43.094  55.822 -58.267  1.00  0.00     0.028 A 
ENDBRANCH   5   7
ENDBRANCH   1   5
BRANCH   2  13
HETATM   13  C   UNL     1     -40.754  54.425 -54.035  1.00  0.00     0.103 A 
HETATM   14  N   UNL     1     -40.667  54.127 -52.687  1.00  0.00    -0.341 N 
HETATM   15  H   UNL     1     -40.861  54.787 -51.943  1.00  0.00     0.167 HD
HETATM   16  C   UNL     1     -40.287  52.833 -52.526  1.00  0.00     0.126 A 
HETATM   17 CL   UNL     1     -40.119  52.250 -50.941  1.00  0.00    -0.063 Cl
HETATM   18  C   UNL     1     -40.118  52.256 -53.754  1.00  0.00     0.074 A 
HETATM   19 CL   UNL     1     -39.655  50.668 -54.122  1.00  0.00    -0.081 Cl
HETATM   20  C   UNL     1     -40.410  53.261 -54.714  1.00  0.00     0.062 A 
ENDBRANCH   2  13
TORSDOF 3
ENDMDL
MODEL 3
REMARK VINA RESULT:      -6.6      4.647      7.031
REMARK  3 active torsions:
REMARK  status: ('A' for Active; 'I' for Inactive)
REMARK    1  A    between atoms: C_2  and  N_3 
REMARK    2  A    between atoms: C_2  and  C_14 
REMARK       I    between atoms: N_3  and  C_4 
REMARK    3  A    between atoms: C_4  and  C_5 
ROOT
HETATM    1  N   UNL     1     -41.683  54.818 -51.524  1.00  0.00    -0.347 N 
HETATM    2  C   UNL     1     -40.601  54.178 -50.973  1.00  0.00     0.268 C 
HETATM    3  O   UNL     1     -39.966  54.638 -50.029  1.00  0.00    -0.266 OA
HETATM    4  H   UNL     1     -42.175  54.392 -52.294  1.00  0.00     0.163 HD
ENDROOT
BRANCH   1   5
HETATM    5  C   UNL     1     -42.184  56.075 -50.999  1.00  0.00     0.114 C 
HETATM    6  C   UNL     1     -43.707  56.168 -51.141  1.00  0.00     0.037 C 
BRANCH   5   7
HETATM    7  C   UNL     1     -41.466  57.229 -51.673  1.00  0.00    -0.033 A 
HETATM    8  C   UNL     1     -41.636  57.449 -53.045  1.00  0.00     0.028 A 
HETATM    9  C   UNL     1     -40.989  58.522 -53.636  1.00  0.00     0.116 A 
HETATM   10  N   UNL     1     -40.199  59.385 -52.965  1.00  0.00    -0.273 NA
HETATM   11  C   UNL     1     -40.050  59.166 -51.643  1.00  0.00     0.116 A 
HETATM   12  C   UNL     1     -40.657  58.121 -50.960  1.00  0.00     0.028 A 
ENDBRANCH   5   7
ENDBRANCH   1   5
BRANCH   2  13
HETATM   13  C   UNL     1     -40.253  52.913 -51.580  1.00  0.00     0.103 A 
HETATM   14  N   UNL     1     -39.943  51.811 -50.803  1.00  0.00    -0.341 N 
HETATM   15  H   UNL     1     -39.935  51.811 -49.790  1.00  0.00     0.167 HD
HETATM   16  C   UNL     1     -39.657  50.750 -51.602  1.00  0.00     0.126 A 
HETATM   17 CL   UNL     1     -39.250  49.284 -50.852  1.00  0.00    -0.063 Cl
HETATM   18  C   UNL     1     -39.772  51.128 -52.911  1.00  0.00     0.074 A 
HETATM   19 CL   UNL     1     -39.530  50.196 -54.306  1.00  0.00    -0.081 Cl
HETATM   20  C   UNL     1     -40.147  52.498 -52.903  1.00  0.00     0.062 A 
ENDBRANCH   2  13
TORSDOF 3
ENDMDL
MODEL 4
REMARK VINA RESULT:      -6.3      3.435      6.593
REMARK  3 active torsions:
REMARK  status: ('A' for Active; 'I' for Inactive)
REMARK    1  A    between atoms: C_2  and  N_3 
REMARK    2  A    between atoms: C_2  and  C_14 
REMARK       I    between atoms: N_3  and  C_4 
REMARK    3  A    between atoms: C_4  and  C_5 
ROOT
HETATM    1  N   UNL     1     -42.208  55.927 -55.312  1.00  0.00    -0.347 N 
HETATM    2  C   UNL     1     -41.337  55.988 -54.253  1.00  0.00     0.268 C 
HETATM    3  O   UNL     1     -40.898  57.046 -53.814  1.00  0.00    -0.266 OA
HETATM    4  H   UNL     1     -42.546  55.031 -55.629  1.00  0.00     0.163 HD
ENDROOT
BRANCH   1   5
HETATM    5  C   UNL     1     -42.708  57.121 -55.968  1.00  0.00     0.114 C 
HETATM    6  C   UNL     1     -44.131  57.453 -55.507  1.00  0.00     0.037 C 
BRANCH   5   7
HETATM    7  C   UNL     1     -42.611  56.952 -57.473  1.00  0.00    -0.033 A 
HETATM    8  C   UNL     1     -43.119  55.797 -58.079  1.00  0.00     0.028 A 
HETATM    9  C   UNL     1     -43.040  55.674 -59.457  1.00  0.00     0.116 A 
HETATM   10  N   UNL     1     -42.502  56.610 -60.265  1.00  0.00    -0.273 NA
HETATM   11  C   UNL     1     -42.023  57.720 -59.669  1.00  0.00     0.116 A 
HETATM   12  C   UNL     1     -42.057  57.937 -58.299  1.00  0.00     0.028 A 
ENDBRANCH   5   7
ENDBRANCH   1   5
BRANCH   2  13
HETATM   13  C   UNL     1     -40.967  54.714 -53.679  1.00  0.00     0.103 A 
HETATM   14  N   UNL     1     -40.761  53.604 -54.479  1.00  0.00    -0.341 N 
HETATM   15  H   UNL     1     -40.854  53.603 -55.488  1.00  0.00     0.167 HD
HETATM   16  C   UNL     1     -40.420  52.539 -53.708  1.00  0.00     0.126 A 
HETATM   17 CL   UNL     1     -40.117  51.064 -54.491  1.00  0.00    -0.063 Cl
HETATM   18  C   UNL     1     -40.395  52.921 -52.396  1.00  0.00     0.074 A 
HETATM   19 CL   UNL     1     -40.029  51.987 -51.030  1.00  0.00    -0.081 Cl
HETATM   20  C   UNL     1     -40.743  54.297 -52.371  1.00  0.00     0.062 A 
ENDBRANCH   2  13
TORSDOF 3
ENDMDL
MODEL 5
REMARK VINA RESULT:      -6.1      4.271      5.356
REMARK  3 active torsions:
REMARK  status: ('A' for Active; 'I' for Inactive)
REMARK    1  A    between atoms: C_2  and  N_3 
REMARK    2  A    between atoms: C_2  and  C_14 
REMARK       I    between atoms: N_3  and  C_4 
REMARK    3  A    between atoms: C_4  and  C_5 
ROOT
HETATM    1  N   UNL     1     -41.421  55.788 -53.278  1.00  0.00    -0.347 N 
HETATM    2  C   UNL     1     -41.561  57.077 -53.725  1.00  0.00     0.268 C 
HETATM    3  O   UNL     1     -41.720  57.357 -54.908  1.00  0.00    -0.266 OA
HETATM    4  H   UNL     1     -41.301  55.612 -52.292  1.00  0.00     0.163 HD
ENDROOT
BRANCH   1   5
HETATM    5  C   UNL     1     -41.491  54.649 -54.175  1.00  0.00     0.114 C 
HETATM    6  C   UNL     1     -42.943  54.311 -54.529  1.00  0.00     0.037 C 
BRANCH   5   7
HETATM    7  C   UNL     1     -40.754  53.474 -53.562  1.00  0.00    -0.033 A 
HETATM    8  C   UNL     1     -40.485  53.459 -52.189  1.00  0.00     0.028 A 
HETATM    9  C   UNL     1     -39.831  52.364 -51.646  1.00  0.00     0.116 A 
HETATM   10  N   UNL     1     -39.435  51.294 -52.364  1.00  0.00    -0.273 NA
HETATM   11  C   UNL     1     -39.707  51.318 -53.685  1.00  0.00     0.116 A 
HETATM   12  C   UNL     1     -40.358  52.366 -54.320  1.00  0.00     0.028 A 
ENDBRANCH   5   7
ENDBRANCH   1   5
BRANCH   2  13
HETATM   13  C   UNL     1     -41.512  58.098 -52.702  1.00  0.00     0.103 A 
HETATM   14  N   UNL     1     -40.330  58.395 -52.047  1.00  0.00    -0.341 N 
HETATM   15  H   UNL     1     -39.447  57.934 -52.228  1.00  0.00     0.167 HD
HETATM   16  C   UNL     1     -40.543  59.386 -51.142  1.00  0.00     0.126 A 
HETATM   17 CL   UNL     1     -39.217  59.912 -50.222  1.00  0.00    -0.063 Cl
HETATM   18  C   UNL     1     -41.858  59.758 -51.180  1.00  0.00     0.074 A 
HETATM   19 CL   UNL     1     -42.648  60.945 -50.264  1.00  0.00    -0.081 Cl
HETATM   20  C   UNL     1     -42.477  58.945 -52.165  1.00  0.00     0.062 A 
ENDBRANCH   2  13
TORSDOF 3
ENDMDL
MODEL 6
REMARK VINA RESULT:      -6.0      2.398      2.945
REMARK  3 active torsions:
REMARK  status: ('A' for Active; 'I' for Inactive)
REMARK    1  A    between atoms: C_2  and  N_3 
REMARK    2  A    between atoms: C_2  and  C_14 
REMARK       I    between atoms: N_3  and  C_4 
REMARK    3  A    between atoms: C_4  and  C_5 
ROOT
HETATM    1  N   UNL     1     -41.873  55.430 -55.916  1.00  0.00    -0.347 N 
HETATM    2  C   UNL     1     -42.398  56.646 -56.274  1.00  0.00     0.268 C 
HETATM    3  O   UNL     1     -42.138  57.685 -55.674  1.00  0.00    -0.266 OA
HETATM    4  H   UNL     1     -42.113  54.608 -56.448  1.00  0.00     0.163 HD
ENDROOT
BRANCH   1   5
HETATM    5  C   UNL     1     -40.933  55.289 -54.819  1.00  0.00     0.114 C 
HETATM    6  C   UNL     1     -40.021  54.074 -55.022  1.00  0.00     0.037 C 
BRANCH   5   7
HETATM    7  C   UNL     1     -41.690  55.234 -53.506  1.00  0.00    -0.033 A 
HETATM    8  C   UNL     1     -42.569  54.175 -53.252  1.00  0.00     0.028 A 
HETATM    9  C   UNL     1     -43.233  54.132 -52.036  1.00  0.00     0.116 A 
HETATM   10  N   UNL     1     -43.080  55.055 -51.064  1.00  0.00    -0.273 NA
HETATM   11  C   UNL     1     -42.224  56.065 -51.319  1.00  0.00     0.116 A 
HETATM   12  C   UNL     1     -41.513  56.195 -52.503  1.00  0.00     0.028 A 
ENDBRANCH   5   7
ENDBRANCH   1   5
BRANCH   2  13
HETATM   13  C   UNL     1     -43.285  56.629 -57.415  1.00  0.00     0.103 A 
HETATM   14  N   UNL     1     -43.504  55.464 -58.130  1.00  0.00    -0.341 N 
HETATM   15  H   UNL     1     -43.072  54.573 -57.915  1.00  0.00     0.167 HD
HETATM   16  C   UNL     1     -44.374  55.705 -59.145  1.00  0.00     0.126 A 
HETATM   17 CL   UNL     1     -44.788  54.405 -60.154  1.00  0.00    -0.063 Cl
HETATM   18  C   UNL     1     -44.743  57.021 -59.121  1.00  0.00     0.074 A 
HETATM   19 CL   UNL     1     -45.805  57.840 -60.157  1.00  0.00    -0.081 Cl
HETATM   20  C   UNL     1     -44.055  57.612 -58.028  1.00  0.00     0.062 A 
ENDBRANCH   2  13
TORSDOF 3
ENDMDL
MODEL 7
REMARK VINA RESULT:      -6.0      4.143      6.593
REMARK  3 active torsions:
REMARK  status: ('A' for Active; 'I' for Inactive)
REMARK    1  A    between atoms: C_2  and  N_3 
REMARK    2  A    between atoms: C_2  and  C_14 
REMARK       I    between atoms: N_3  and  C_4 
REMARK    3  A    between atoms: C_4  and  C_5 
ROOT
HETATM    1  N   UNL     1     -41.126  55.953 -53.026  1.00  0.00    -0.347 N 
HETATM    2  C   UNL     1     -41.098  54.955 -53.966  1.00  0.00     0.268 C 
HETATM    3  O   UNL     1     -41.430  55.131 -55.134  1.00  0.00    -0.266 OA
HETATM    4  H   UNL     1     -40.835  55.757 -52.081  1.00  0.00     0.163 HD
ENDROOT
BRANCH   1   5
HETATM    5  C   UNL     1     -41.514  57.312 -53.356  1.00  0.00     0.114 C 
HETATM    6  C   UNL     1     -40.429  58.314 -52.946  1.00  0.00     0.037 C 
BRANCH   5   7
HETATM    7  C   UNL     1     -42.859  57.623 -52.727  1.00  0.00    -0.033 A 
HETATM    8  C   UNL     1     -43.262  56.943 -51.572  1.00  0.00     0.028 A 
HETATM    9  C   UNL     1     -44.485  57.260 -51.001  1.00  0.00     0.116 A 
HETATM   10  N   UNL     1     -45.322  58.198 -51.490  1.00  0.00    -0.273 NA
HETATM   11  C   UNL     1     -44.917  58.851 -52.598  1.00  0.00     0.116 A 
HETATM   12  C   UNL     1     -43.712  58.607 -53.241  1.00  0.00     0.028 A 
ENDBRANCH   5   7
ENDBRANCH   1   5
BRANCH   2  13
HETATM   13  C   UNL     1     -40.647  53.666 -53.491  1.00  0.00     0.103 A 
HETATM   14  N   UNL     1     -40.421  52.621 -54.369  1.00  0.00    -0.341 N 
HETATM   15  H   UNL     1     -40.555  52.680 -55.372  1.00  0.00     0.167 HD
HETATM   16  C   UNL     1     -40.001  51.526 -53.683  1.00  0.00     0.126 A 
HETATM   17 CL   UNL     1     -39.661  50.121 -54.571  1.00  0.00    -0.063 Cl
HETATM   18  C   UNL     1     -39.940  51.825 -52.350  1.00  0.00     0.074 A 
HETATM   19 CL   UNL     1     -39.477  50.825 -51.063  1.00  0.00    -0.081 Cl
HETATM   20  C   UNL     1     -40.350  53.178 -52.222  1.00  0.00     0.062 A 
ENDBRANCH   2  13
TORSDOF 3
ENDMDL
MODEL 8
REMARK VINA RESULT:      -6.0     15.122     16.783
REMARK  3 active torsions:
REMARK  status: ('A' for Active; 'I' for Inactive)
REMARK    1  A    between atoms: C_2  and  N_3 
REMARK    2  A    between atoms: C_2  and  C_14 
REMARK       I    between atoms: N_3  and  C_4 
REMARK    3  A    between atoms: C_4  and  C_5 
ROOT
HETATM    1  N   UNL     1     -36.340  40.924 -55.586  1.00  0.00    -0.347 N 
HETATM    2  C   UNL     1     -35.152  41.594 -55.442  1.00  0.00     0.268 C 
HETATM    3  O   UNL     1     -34.984  42.743 -55.839  1.00  0.00    -0.266 OA
HETATM    4  H   UNL     1     -36.428  39.983 -55.235  1.00  0.00     0.163 HD
ENDROOT
BRANCH   1   5
HETATM    5  C   UNL     1     -37.508  41.545 -56.186  1.00  0.00     0.114 C 
HETATM    6  C   UNL     1     -38.788  41.157 -55.438  1.00  0.00     0.037 C 
BRANCH   5   7
HETATM    7  C   UNL     1     -37.568  41.193 -57.660  1.00  0.00    -0.033 A 
HETATM    8  C   UNL     1     -37.193  42.141 -58.619  1.00  0.00     0.028 A 
HETATM    9  C   UNL     1     -37.234  41.791 -59.960  1.00  0.00     0.116 A 
HETATM   10  N   UNL     1     -37.612  40.576 -60.407  1.00  0.00    -0.273 NA
HETATM   11  C   UNL     1     -37.963  39.670 -59.472  1.00  0.00     0.116 A 
HETATM   12  C   UNL     1     -37.954  39.924 -58.108  1.00  0.00     0.028 A 
ENDBRANCH   5   7
ENDBRANCH   1   5
BRANCH   2  13
HETATM   13  C   UNL     1     -34.098  40.855 -54.785  1.00  0.00     0.103 A 
HETATM   14  N   UNL     1     -33.738  41.136 -53.479  1.00  0.00    -0.341 N 
HETATM   15  H   UNL     1     -34.168  41.855 -52.911  1.00  0.00     0.167 HD
HETATM   16  C   UNL     1     -32.733  40.307 -53.091  1.00  0.00     0.126 A 
HETATM   17 CL   UNL     1     -32.136  40.478 -51.512  1.00  0.00    -0.063 Cl
HETATM   18  C   UNL     1     -32.414  39.470 -54.124  1.00  0.00     0.074 A 
HETATM   19 CL   UNL     1     -31.240  38.249 -54.170  1.00  0.00    -0.081 Cl
HETATM   20  C   UNL     1     -33.274  39.814 -55.200  1.00  0.00     0.062 A 
ENDBRANCH   2  13
TORSDOF 3
ENDMDL
MODEL 9
REMARK VINA RESULT:      -6.0      4.322      5.124
REMARK  3 active torsions:
REMARK  status: ('A' for Active; 'I' for Inactive)
REMARK    1  A    between atoms: C_2  and  N_3 
REMARK    2  A    between atoms: C_2  and  C_14 
REMARK       I    between atoms: N_3  and  C_4 
REMARK    3  A    between atoms: C_4  and  C_5 
ROOT
HETATM    1  N   UNL     1     -42.402  55.681 -50.790  1.00  0.00    -0.347 N 
HETATM    2  C   UNL     1     -43.726  56.041 -50.786  1.00  0.00     0.268 C 
HETATM    3  O   UNL     1     -44.605  55.339 -50.298  1.00  0.00    -0.266 OA
HETATM    4  H   UNL     1     -41.718  56.300 -51.197  1.00  0.00     0.163 HD
ENDROOT
BRANCH   1   5
HETATM    5  C   UNL     1     -41.937  54.451 -50.176  1.00  0.00     0.114 C 
HETATM    6  C   UNL     1     -41.076  54.739 -48.941  1.00  0.00     0.037 C 
BRANCH   5   7
HETATM    7  C   UNL     1     -41.207  53.613 -51.209  1.00  0.00    -0.033 A 
HETATM    8  C   UNL     1     -40.237  52.691 -50.800  1.00  0.00     0.028 A 
HETATM    9  C   UNL     1     -39.599  51.920 -51.759  1.00  0.00     0.116 A 
HETATM   10  N   UNL     1     -39.861  51.996 -53.080  1.00  0.00    -0.273 NA
HETATM   11  C   UNL     1     -40.804  52.883 -53.459  1.00  0.00     0.116 A 
HETATM   12  C   UNL     1     -41.497  53.698 -52.576  1.00  0.00     0.028 A 
ENDBRANCH   5   7
ENDBRANCH   1   5
BRANCH   2  13
HETATM   13  C   UNL     1     -44.024  57.317 -51.398  1.00  0.00     0.103 A 
HETATM   14  N   UNL     1     -43.574  58.499 -50.837  1.00  0.00    -0.341 N 
HETATM   15  H   UNL     1     -43.025  58.555 -49.988  1.00  0.00     0.167 HD
HETATM   16  C   UNL     1     -43.978  59.551 -51.596  1.00  0.00     0.126 A 
HETATM   17 CL   UNL     1     -43.530  61.108 -51.090  1.00  0.00    -0.063 Cl
HETATM   18  C   UNL     1     -44.697  59.088 -52.663  1.00  0.00     0.074 A 
HETATM   19 CL   UNL     1     -45.425  59.973 -53.911  1.00  0.00    -0.081 Cl
HETATM   20  C   UNL     1     -44.732  57.674 -52.541  1.00  0.00     0.062 A 
ENDBRANCH   2  13
TORSDOF 3
ENDMDL
MODEL 10
REMARK VINA RESULT:      -5.9     14.516     16.292
REMARK  3 active torsions:
REMARK  status: ('A' for Active; 'I' for Inactive)
REMARK    1  A    between atoms: C_2  and  N_3 
REMARK    2  A    between atoms: C_2  and  C_14 
REMARK       I    between atoms: N_3  and  C_4 
REMARK    3  A    between atoms: C_4  and  C_5 
ROOT
HETATM    1  N   UNL     1     -36.885  41.168 -57.566  1.00  0.00    -0.347 N 
HETATM    2  C   UNL     1     -35.899  41.627 -56.731  1.00  0.00     0.268 C 
HETATM    3  O   UNL     1     -34.827  42.062 -57.141  1.00  0.00    -0.266 OA
HETATM    4  H   UNL     1     -37.751  40.829 -57.177  1.00  0.00     0.163 HD
ENDROOT
BRANCH   1   5
HETATM    5  C   UNL     1     -36.748  41.202 -59.011  1.00  0.00     0.114 C 
HETATM    6  C   UNL     1     -37.243  42.533 -59.585  1.00  0.00     0.037 C 
BRANCH   5   7
HETATM    7  C   UNL     1     -37.461  40.008 -59.616  1.00  0.00    -0.033 A 
HETATM    8  C   UNL     1     -38.227  39.166 -58.801  1.00  0.00     0.028 A 
HETATM    9  C   UNL     1     -38.889  38.094 -59.378  1.00  0.00     0.116 A 
HETATM   10  N   UNL     1     -38.848  37.808 -60.696  1.00  0.00    -0.273 NA
HETATM   11  C   UNL     1     -38.113  38.631 -61.471  1.00  0.00     0.116 A 
HETATM   12  C   UNL     1     -37.416  39.729 -60.987  1.00  0.00     0.028 A 
ENDBRANCH   5   7
ENDBRANCH   1   5
BRANCH   2  13
HETATM   13  C   UNL     1     -36.204  41.569 -55.318  1.00  0.00     0.103 A 
HETATM   14  N   UNL     1     -35.302  42.026 -54.374  1.00  0.00    -0.341 N 
HETATM   15  H   UNL     1     -34.394  42.418 -54.595  1.00  0.00     0.167 HD
HETATM   16  C   UNL     1     -35.821  41.868 -53.129  1.00  0.00     0.126 A 
HETATM   17 CL   UNL     1     -34.876  42.369 -51.811  1.00  0.00    -0.063 Cl
HETATM   18  C   UNL     1     -37.064  41.309 -53.225  1.00  0.00     0.074 A 
HETATM   19 CL   UNL     1     -38.142  40.905 -51.981  1.00  0.00    -0.081 Cl
HETATM   20  C   UNL     1     -37.312  41.115 -54.610  1.00  0.00     0.062 A 
ENDBRANCH   2  13
TORSDOF 3
ENDMDL
