MODEL 1
REMARK VINA RESULT:      -8.2      0.000      0.000
REMARK  2 active torsions:
REMARK  status: ('A' for Active; 'I' for Inactive)
REMARK       I    between atoms: C_2  and  N_3 
REMARK    1  A    between atoms: N_3  and  C_4 
REMARK    2  A    between atoms: C_13  and  N_14 
REMARK       I    between atoms: N_14  and  C_15 
ROOT
HETATM    1  C   UNL     1     -42.938  54.856 -55.702  1.00  0.00     0.035 A 
HETATM    2  C   UNL     1     -42.011  53.942 -55.202  1.00  0.00     0.038 A 
HETATM    3  C   UNL     1     -41.592  54.073 -53.883  1.00  0.00    -0.041 A 
HETATM    4  C   UNL     1     -42.051  55.103 -53.034  1.00  0.00    -0.016 A 
HETATM    5  C   UNL     1     -41.405  54.963 -51.727  1.00  0.00     0.008 A 
HETATM    6  C   UNL     1     -40.610  53.787 -51.771  1.00  0.00    -0.041 A 
HETATM    7  C   UNL     1     -39.900  53.327 -50.675  1.00  0.00     0.008 A 
HETATM    8  C   UNL     1     -39.969  54.067 -49.503  1.00  0.00     0.003 A 
HETATM    9  C   UNL     1     -40.721  55.256 -49.446  1.00  0.00     0.030 A 
HETATM   10  C   UNL     1     -41.447  55.726 -50.552  1.00  0.00     0.046 A 
HETATM   11  C   UNL     1     -40.644  53.157 -53.146  1.00  0.00     0.079 A 
HETATM   12  C   UNL     1     -43.008  55.981 -53.517  1.00  0.00     0.015 A 
HETATM   13  C   UNL     1     -43.439  55.859 -54.849  1.00  0.00     0.030 A 
ENDROOT
BRANCH   1  14
HETATM   14  N   UNL     1     -43.427  54.836 -57.024  1.00  0.00    -0.328 N 
HETATM   15  C   UNL     1     -43.222  55.783 -58.012  1.00  0.00     0.218 C 
HETATM   16  C   UNL     1     -43.925  55.437 -59.302  1.00  0.00     0.117 C 
HETATM   17  O   UNL     1     -42.581  56.824 -57.913  1.00  0.00    -0.274 OA
HETATM   18  H   UNL     1     -44.013  54.046 -57.265  1.00  0.00     0.169 HD
ENDBRANCH   1  14
BRANCH  10  19
HETATM   19  N   UNL     1     -42.106  56.968 -50.554  1.00  0.00    -0.327 N 
HETATM   20  C   UNL     1     -41.735  58.229 -50.908  1.00  0.00     0.218 C 
HETATM   21  C   UNL     1     -40.299  58.581 -51.171  1.00  0.00     0.117 C 
HETATM   22  O   UNL     1     -42.608  59.100 -50.963  1.00  0.00    -0.274 OA
HETATM   23  H   UNL     1     -43.085  56.941 -50.304  1.00  0.00     0.169 HD
ENDBRANCH  10  19
TORSDOF 2
ENDMDL
MODEL 2
REMARK VINA RESULT:      -8.2      2.750      3.973
REMARK  2 active torsions:
REMARK  status: ('A' for Active; 'I' for Inactive)
REMARK       I    between atoms: C_2  and  N_3 
REMARK    1  A    between atoms: N_3  and  C_4 
REMARK    2  A    between atoms: C_13  and  N_14 
REMARK       I    between atoms: N_14  and  C_15 
ROOT
HETATM    1  C   UNL     1     -41.906  56.785 -53.994  1.00  0.00     0.035 A 
HETATM    2  C   UNL     1     -41.207  55.854 -54.759  1.00  0.00     0.038 A 
HETATM    3  C   UNL     1     -40.836  54.650 -54.170  1.00  0.00    -0.041 A 
HETATM    4  C   UNL     1     -41.122  54.339 -52.823  1.00  0.00    -0.016 A 
HETATM    5  C   UNL     1     -40.582  53.012 -52.518  1.00  0.00     0.008 A 
HETATM    6  C   UNL     1     -40.036  52.491 -53.721  1.00  0.00    -0.041 A 
HETATM    7  C   UNL     1     -39.488  51.222 -53.800  1.00  0.00     0.008 A 
HETATM    8  C   UNL     1     -39.466  50.453 -52.644  1.00  0.00     0.003 A 
HETATM    9  C   UNL     1     -39.969  50.963 -51.432  1.00  0.00     0.030 A 
HETATM   10  C   UNL     1     -40.530  52.247 -51.345  1.00  0.00     0.046 A 
HETATM   11  C   UNL     1     -40.127  53.500 -54.844  1.00  0.00     0.079 A 
HETATM   12  C   UNL     1     -41.860  55.245 -52.077  1.00  0.00     0.015 A 
HETATM   13  C   UNL     1     -42.239  56.465 -52.663  1.00  0.00     0.030 A 
ENDROOT
BRANCH   1  14
HETATM   14  N   UNL     1     -42.324  58.043 -54.474  1.00  0.00    -0.328 N 
HETATM   15  C   UNL     1     -41.692  59.262 -54.300  1.00  0.00     0.218 C 
HETATM   16  C   UNL     1     -42.447  60.402 -54.937  1.00  0.00     0.117 C 
HETATM   17  O   UNL     1     -40.652  59.472 -53.683  1.00  0.00    -0.274 OA
HETATM   18  H   UNL     1     -43.198  58.052 -54.985  1.00  0.00     0.169 HD
ENDBRANCH   1  14
BRANCH  10  19
HETATM   19  N   UNL     1     -40.927  52.819 -50.124  1.00  0.00    -0.327 N 
HETATM   20  C   UNL     1     -40.417  53.807 -49.338  1.00  0.00     0.218 C 
HETATM   21  C   UNL     1     -39.039  54.358 -49.565  1.00  0.00     0.117 C 
HETATM   22  O   UNL     1     -41.101  54.212 -48.393  1.00  0.00    -0.274 OA
HETATM   23  H   UNL     1     -41.811  52.492 -49.758  1.00  0.00     0.169 HD
ENDBRANCH  10  19
TORSDOF 2
ENDMDL
MODEL 3
REMARK VINA RESULT:      -7.9      3.084      4.869
REMARK  2 active torsions:
REMARK  status: ('A' for Active; 'I' for Inactive)
REMARK       I    between atoms: C_2  and  N_3 
REMARK    1  A    between atoms: N_3  and  C_4 
REMARK    2  A    between atoms: C_13  and  N_14 
REMARK       I    between atoms: N_14  and  C_15 
ROOT
HETATM    1  C   UNL     1     -44.130  56.526 -51.902  1.00  0.00     0.035 A 
HETATM    2  C   UNL     1     -43.473  56.214 -53.091  1.00  0.00     0.038 A 
HETATM    3  C   UNL     1     -42.563  55.162 -53.093  1.00  0.00    -0.041 A 
HETATM    4  C   UNL     1     -42.262  54.411 -51.937  1.00  0.00    -0.016 A 
HETATM    5  C   UNL     1     -41.258  53.399 -52.277  1.00  0.00     0.008 A 
HETATM    6  C   UNL     1     -41.016  53.497 -53.674  1.00  0.00    -0.041 A 
HETATM    7  C   UNL     1     -40.155  52.643 -54.341  1.00  0.00     0.008 A 
HETATM    8  C   UNL     1     -39.500  51.672 -53.594  1.00  0.00     0.003 A 
HETATM    9  C   UNL     1     -39.696  51.580 -52.204  1.00  0.00     0.030 A 
HETATM   10  C   UNL     1     -40.572  52.440 -51.521  1.00  0.00     0.046 A 
HETATM   11  C   UNL     1     -41.798  54.639 -54.285  1.00  0.00     0.079 A 
HETATM   12  C   UNL     1     -42.950  54.691 -50.767  1.00  0.00     0.015 A 
HETATM   13  C   UNL     1     -43.872  55.752 -50.754  1.00  0.00     0.030 A 
ENDROOT
BRANCH   1  14
HETATM   14  N   UNL     1     -45.062  57.576 -51.771  1.00  0.00    -0.328 N 
HETATM   15  C   UNL     1     -44.806  58.889 -51.414  1.00  0.00     0.218 C 
HETATM   16  C   UNL     1     -46.060  59.727 -51.352  1.00  0.00     0.117 C 
HETATM   17  O   UNL     1     -43.716  59.378 -51.135  1.00  0.00    -0.274 OA
HETATM   18  H   UNL     1     -46.029  57.329 -51.936  1.00  0.00     0.169 HD
ENDBRANCH   1  14
BRANCH  10  19
HETATM   19  N   UNL     1     -40.692  52.444 -50.120  1.00  0.00    -0.327 N 
HETATM   20  C   UNL     1     -40.326  53.323 -49.147  1.00  0.00     0.218 C 
HETATM   21  C   UNL     1     -39.408  54.475 -49.435  1.00  0.00     0.117 C 
HETATM   22  O   UNL     1     -40.732  53.123 -47.999  1.00  0.00    -0.274 OA
HETATM   23  H   UNL     1     -41.214  51.672 -49.727  1.00  0.00     0.169 HD
ENDBRANCH  10  19
TORSDOF 2
ENDMDL
MODEL 4
REMARK VINA RESULT:      -7.8      1.743      5.553
REMARK  2 active torsions:
REMARK  status: ('A' for Active; 'I' for Inactive)
REMARK       I    between atoms: C_2  and  N_3 
REMARK    1  A    between atoms: N_3  and  C_4 
REMARK    2  A    between atoms: C_13  and  N_14 
REMARK       I    between atoms: N_14  and  C_15 
ROOT
HETATM    1  C   UNL     1     -41.848  58.092 -51.201  1.00  0.00     0.035 A 
HETATM    2  C   UNL     1     -41.530  56.930 -50.500  1.00  0.00     0.038 A 
HETATM    3  C   UNL     1     -41.167  55.796 -51.218  1.00  0.00    -0.041 A 
HETATM    4  C   UNL     1     -41.126  55.767 -52.629  1.00  0.00    -0.016 A 
HETATM    5  C   UNL     1     -40.726  54.426 -53.064  1.00  0.00     0.008 A 
HETATM    6  C   UNL     1     -40.448  53.668 -51.895  1.00  0.00    -0.041 A 
HETATM    7  C   UNL     1     -39.988  52.363 -51.947  1.00  0.00     0.008 A 
HETATM    8  C   UNL     1     -39.815  51.788 -53.198  1.00  0.00     0.003 A 
HETATM    9  C   UNL     1     -40.119  52.508 -54.369  1.00  0.00     0.030 A 
HETATM   10  C   UNL     1     -40.582  53.832 -54.325  1.00  0.00     0.046 A 
HETATM   11  C   UNL     1     -40.738  54.468 -50.644  1.00  0.00     0.079 A 
HETATM   12  C   UNL     1     -41.396  56.936 -53.323  1.00  0.00     0.015 A 
HETATM   13  C   UNL     1     -41.763  58.088 -52.607  1.00  0.00     0.030 A 
ENDROOT
BRANCH   1  14
HETATM   14  N   UNL     1     -42.242  59.298 -50.587  1.00  0.00    -0.328 N 
HETATM   15  C   UNL     1     -43.447  59.963 -50.734  1.00  0.00     0.218 C 
HETATM   16  C   UNL     1     -43.504  61.243 -49.938  1.00  0.00     0.117 C 
HETATM   17  O   UNL     1     -44.393  59.626 -51.439  1.00  0.00    -0.274 OA
HETATM   18  H   UNL     1     -41.552  59.734 -49.988  1.00  0.00     0.169 HD
ENDBRANCH   1  14
BRANCH  10  19
HETATM   19  N   UNL     1     -41.003  54.527 -55.472  1.00  0.00    -0.327 N 
HETATM   20  C   UNL     1     -42.224  54.817 -56.000  1.00  0.00     0.218 C 
HETATM   21  C   UNL     1     -43.474  54.156 -55.498  1.00  0.00     0.117 C 
HETATM   22  O   UNL     1     -42.277  55.610 -56.945  1.00  0.00    -0.274 OA
HETATM   23  H   UNL     1     -40.269  54.973 -56.005  1.00  0.00     0.169 HD
ENDBRANCH  10  19
TORSDOF 2
ENDMDL
MODEL 5
REMARK VINA RESULT:      -7.5     15.122     16.833
REMARK  2 active torsions:
REMARK  status: ('A' for Active; 'I' for Inactive)
REMARK       I    between atoms: C_2  and  N_3 
REMARK    1  A    between atoms: N_3  and  C_4 
REMARK    2  A    between atoms: C_13  and  N_14 
REMARK       I    between atoms: N_14  and  C_15 
ROOT
HETATM    1  C   UNL     1     -35.885  41.988 -56.979  1.00  0.00     0.035 A 
HETATM    2  C   UNL     1     -36.518  42.129 -55.745  1.00  0.00     0.038 A 
HETATM    3  C   UNL     1     -35.823  41.771 -54.595  1.00  0.00    -0.041 A 
HETATM    4  C   UNL     1     -34.511  41.252 -54.626  1.00  0.00    -0.016 A 
HETATM    5  C   UNL     1     -34.083  40.964 -53.255  1.00  0.00     0.008 A 
HETATM    6  C   UNL     1     -35.124  41.391 -52.388  1.00  0.00    -0.041 A 
HETATM    7  C   UNL     1     -35.023  41.314 -51.009  1.00  0.00     0.008 A 
HETATM    8  C   UNL     1     -33.857  40.781 -50.476  1.00  0.00     0.003 A 
HETATM    9  C   UNL     1     -32.827  40.318 -51.316  1.00  0.00     0.030 A 
HETATM   10  C   UNL     1     -32.921  40.396 -52.714  1.00  0.00     0.046 A 
HETATM   11  C   UNL     1     -36.312  41.901 -53.173  1.00  0.00     0.079 A 
HETATM   12  C   UNL     1     -33.866  41.157 -55.849  1.00  0.00     0.015 A 
HETATM   13  C   UNL     1     -34.558  41.516 -57.017  1.00  0.00     0.030 A 
ENDROOT
BRANCH   1  14
HETATM   14  N   UNL     1     -36.489  42.303 -58.213  1.00  0.00    -0.328 N 
HETATM   15  C   UNL     1     -37.094  41.431 -59.102  1.00  0.00     0.218 C 
HETATM   16  C   UNL     1     -37.609  42.127 -60.337  1.00  0.00     0.117 C 
HETATM   17  O   UNL     1     -37.204  40.215 -58.981  1.00  0.00    -0.274 OA
HETATM   18  H   UNL     1     -36.454  43.278 -58.484  1.00  0.00     0.169 HD
ENDBRANCH   1  14
BRANCH  10  19
HETATM   19  N   UNL     1     -31.960  39.833 -53.572  1.00  0.00    -0.327 N 
HETATM   20  C   UNL     1     -31.831  38.617 -54.172  1.00  0.00     0.218 C 
HETATM   21  C   UNL     1     -32.691  37.452 -53.776  1.00  0.00     0.117 C 
HETATM   22  O   UNL     1     -30.950  38.479 -55.024  1.00  0.00    -0.274 OA
HETATM   23  H   UNL     1     -31.228  40.461 -53.877  1.00  0.00     0.169 HD
ENDBRANCH  10  19
TORSDOF 2
ENDMDL
MODEL 6
REMARK VINA RESULT:      -7.3      3.000      5.613
REMARK  2 active torsions:
REMARK  status: ('A' for Active; 'I' for Inactive)
REMARK       I    between atoms: C_2  and  N_3 
REMARK    1  A    between atoms: N_3  and  C_4 
REMARK    2  A    between atoms: C_13  and  N_14 
REMARK       I    between atoms: N_14  and  C_15 
ROOT
HETATM    1  C   UNL     1     -40.563  52.700 -52.100  1.00  0.00     0.035 A 
HETATM    2  C   UNL     1     -40.415  52.972 -53.459  1.00  0.00     0.038 A 
HETATM    3  C   UNL     1     -41.178  53.990 -54.021  1.00  0.00    -0.041 A 
HETATM    4  C   UNL     1     -42.109  54.747 -53.277  1.00  0.00    -0.016 A 
HETATM    5  C   UNL     1     -42.750  55.717 -54.167  1.00  0.00     0.008 A 
HETATM    6  C   UNL     1     -42.136  55.592 -55.442  1.00  0.00    -0.041 A 
HETATM    7  C   UNL     1     -42.470  56.405 -56.512  1.00  0.00     0.008 A 
HETATM    8  C   UNL     1     -43.456  57.362 -56.313  1.00  0.00     0.003 A 
HETATM    9  C   UNL     1     -44.104  57.480 -55.069  1.00  0.00     0.030 A 
HETATM   10  C   UNL     1     -43.768  56.661 -53.979  1.00  0.00     0.046 A 
HETATM   11  C   UNL     1     -41.122  54.470 -55.451  1.00  0.00     0.079 A 
HETATM   12  C   UNL     1     -42.220  54.507 -51.916  1.00  0.00     0.015 A 
HETATM   13  C   UNL     1     -41.454  53.480 -51.338  1.00  0.00     0.030 A 
ENDROOT
BRANCH   1  14
HETATM   14  N   UNL     1     -39.857  51.685 -51.420  1.00  0.00    -0.328 N 
HETATM   15  C   UNL     1     -39.633  50.387 -51.844  1.00  0.00     0.218 C 
HETATM   16  C   UNL     1     -38.856  49.575 -50.837  1.00  0.00     0.117 C 
HETATM   17  O   UNL     1     -40.020  49.876 -52.890  1.00  0.00    -0.274 OA
HETATM   18  H   UNL     1     -39.494  51.936 -50.509  1.00  0.00     0.169 HD
ENDBRANCH   1  14
BRANCH  10  19
HETATM   19  N   UNL     1     -44.481  56.682 -52.767  1.00  0.00    -0.327 N 
HETATM   20  C   UNL     1     -44.409  57.451 -51.646  1.00  0.00     0.218 C 
HETATM   21  C   UNL     1     -43.250  58.372 -51.400  1.00  0.00     0.117 C 
HETATM   22  O   UNL     1     -45.303  57.337 -50.803  1.00  0.00    -0.274 OA
HETATM   23  H   UNL     1     -45.262  56.042 -52.712  1.00  0.00     0.169 HD
ENDBRANCH  10  19
TORSDOF 2
ENDMDL
MODEL 7
REMARK VINA RESULT:      -7.3      2.994      4.776
REMARK  2 active torsions:
REMARK  status: ('A' for Active; 'I' for Inactive)
REMARK       I    between atoms: C_2  and  N_3 
REMARK    1  A    between atoms: N_3  and  C_4 
REMARK    2  A    between atoms: C_13  and  N_14 
REMARK       I    between atoms: N_14  and  C_15 
ROOT
HETATM    1  C   UNL     1     -40.844  53.559 -53.852  1.00  0.00     0.035 A 
HETATM    2  C   UNL     1     -40.808  53.915 -52.505  1.00  0.00     0.038 A 
HETATM    3  C   UNL     1     -40.964  55.255 -52.165  1.00  0.00    -0.041 A 
HETATM    4  C   UNL     1     -41.139  56.271 -53.129  1.00  0.00    -0.016 A 
HETATM    5  C   UNL     1     -41.254  57.560 -52.441  1.00  0.00     0.008 A 
HETATM    6  C   UNL     1     -41.227  57.299 -51.045  1.00  0.00    -0.041 A 
HETATM    7  C   UNL     1     -41.370  58.299 -50.099  1.00  0.00     0.008 A 
HETATM    8  C   UNL     1     -41.528  59.602 -50.553  1.00  0.00     0.003 A 
HETATM    9  C   UNL     1     -41.522  59.889 -51.931  1.00  0.00     0.030 A 
HETATM   10  C   UNL     1     -41.381  58.879 -52.897  1.00  0.00     0.046 A 
HETATM   11  C   UNL     1     -41.009  55.828 -50.769  1.00  0.00     0.079 A 
HETATM   12  C   UNL     1     -41.224  55.910 -54.464  1.00  0.00     0.015 A 
HETATM   13  C   UNL     1     -41.067  54.559 -54.819  1.00  0.00     0.030 A 
ENDROOT
BRANCH   1  14
HETATM   14  N   UNL     1     -40.685  52.239 -54.321  1.00  0.00    -0.328 N 
HETATM   15  C   UNL     1     -39.875  51.250 -53.791  1.00  0.00     0.218 C 
HETATM   16  C   UNL     1     -39.942  49.964 -54.577  1.00  0.00     0.117 C 
HETATM   17  O   UNL     1     -39.136  51.346 -52.817  1.00  0.00    -0.274 OA
HETATM   18  H   UNL     1     -41.209  52.002 -55.154  1.00  0.00     0.169 HD
ENDBRANCH   1  14
BRANCH  10  19
HETATM   19  N   UNL     1     -41.253  59.155 -54.270  1.00  0.00    -0.327 N 
HETATM   20  C   UNL     1     -42.145  59.430 -55.261  1.00  0.00     0.218 C 
HETATM   21  C   UNL     1     -43.620  59.228 -55.068  1.00  0.00     0.117 C 
HETATM   22  O   UNL     1     -41.707  59.808 -56.351  1.00  0.00    -0.274 OA
HETATM   23  H   UNL     1     -40.305  59.237 -54.610  1.00  0.00     0.169 HD
ENDBRANCH  10  19
TORSDOF 2
ENDMDL
MODEL 8
REMARK VINA RESULT:      -7.0      2.983      5.176
REMARK  2 active torsions:
REMARK  status: ('A' for Active; 'I' for Inactive)
REMARK       I    between atoms: C_2  and  N_3 
REMARK    1  A    between atoms: N_3  and  C_4 
REMARK    2  A    between atoms: C_13  and  N_14 
REMARK       I    between atoms: N_14  and  C_15 
ROOT
HETATM    1  C   UNL     1     -40.584  53.166 -53.726  1.00  0.00     0.035 A 
HETATM    2  C   UNL     1     -41.340  53.434 -52.586  1.00  0.00     0.038 A 
HETATM    3  C   UNL     1     -42.067  54.618 -52.531  1.00  0.00    -0.041 A 
HETATM    4  C   UNL     1     -42.057  55.569 -53.574  1.00  0.00    -0.016 A 
HETATM    5  C   UNL     1     -42.907  56.700 -53.193  1.00  0.00     0.008 A 
HETATM    6  C   UNL     1     -43.496  56.382 -51.939  1.00  0.00    -0.041 A 
HETATM    7  C   UNL     1     -44.405  57.217 -51.312  1.00  0.00     0.008 A 
HETATM    8  C   UNL     1     -44.726  58.412 -51.941  1.00  0.00     0.003 A 
HETATM    9  C   UNL     1     -44.127  58.764 -53.166  1.00  0.00     0.030 A 
HETATM   10  C   UNL     1     -43.208  57.921 -53.810  1.00  0.00     0.046 A 
HETATM   11  C   UNL     1     -42.983  55.059 -51.415  1.00  0.00     0.079 A 
HETATM   12  C   UNL     1     -41.343  55.280 -54.726  1.00  0.00     0.015 A 
HETATM   13  C   UNL     1     -40.605  54.086 -54.792  1.00  0.00     0.030 A 
ENDROOT
BRANCH   1  14
HETATM   14  N   UNL     1     -39.796  52.009 -53.893  1.00  0.00    -0.328 N 
HETATM   15  C   UNL     1     -40.221  50.750 -54.278  1.00  0.00     0.218 C 
HETATM   16  C   UNL     1     -39.095  49.747 -54.326  1.00  0.00     0.117 C 
HETATM   17  O   UNL     1     -41.371  50.407 -54.535  1.00  0.00    -0.274 OA
HETATM   18  H   UNL     1     -38.811  52.113 -53.684  1.00  0.00     0.169 HD
ENDBRANCH   1  14
BRANCH  10  19
HETATM   19  N   UNL     1     -42.511  58.304 -54.969  1.00  0.00    -0.327 N 
HETATM   20  C   UNL     1     -42.805  58.269 -56.298  1.00  0.00     0.218 C 
HETATM   21  C   UNL     1     -43.983  57.500 -56.821  1.00  0.00     0.117 C 
HETATM   22  O   UNL     1     -42.045  58.849 -57.078  1.00  0.00    -0.274 OA
HETATM   23  H   UNL     1     -41.626  58.766 -54.811  1.00  0.00     0.169 HD
ENDBRANCH  10  19
TORSDOF 2
ENDMDL
MODEL 9
REMARK VINA RESULT:      -7.0      3.074      5.410
REMARK  2 active torsions:
REMARK  status: ('A' for Active; 'I' for Inactive)
REMARK       I    between atoms: C_2  and  N_3 
REMARK    1  A    between atoms: N_3  and  C_4 
REMARK    2  A    between atoms: C_13  and  N_14 
REMARK       I    between atoms: N_14  and  C_15 
ROOT
HETATM    1  C   UNL     1     -40.706  53.043 -52.198  1.00  0.00     0.035 A 
HETATM    2  C   UNL     1     -41.747  53.197 -53.112  1.00  0.00     0.038 A 
HETATM    3  C   UNL     1     -42.396  54.425 -53.182  1.00  0.00    -0.041 A 
HETATM    4  C   UNL     1     -42.057  55.516 -52.352  1.00  0.00    -0.016 A 
HETATM    5  C   UNL     1     -42.939  56.642 -52.668  1.00  0.00     0.008 A 
HETATM    6  C   UNL     1     -43.762  56.244 -53.755  1.00  0.00    -0.041 A 
HETATM    7  C   UNL     1     -44.681  57.096 -54.344  1.00  0.00     0.008 A 
HETATM    8  C   UNL     1     -44.797  58.379 -53.826  1.00  0.00     0.003 A 
HETATM    9  C   UNL     1     -44.018  58.784 -52.725  1.00  0.00     0.030 A 
HETATM   10  C   UNL     1     -43.082  57.927 -52.126  1.00  0.00     0.046 A 
HETATM   11  C   UNL     1     -43.502  54.803 -54.137  1.00  0.00     0.079 A 
HETATM   12  C   UNL     1     -40.991  55.376 -51.478  1.00  0.00     0.015 A 
HETATM   13  C   UNL     1     -40.328  54.140 -51.400  1.00  0.00     0.030 A 
ENDROOT
BRANCH   1  14
HETATM   14  N   UNL     1     -39.983  51.845 -52.025  1.00  0.00    -0.328 N 
HETATM   15  C   UNL     1     -39.956  51.032 -50.906  1.00  0.00     0.218 C 
HETATM   16  C   UNL     1     -39.045  49.841 -51.075  1.00  0.00     0.117 C 
HETATM   17  O   UNL     1     -40.553  51.213 -49.849  1.00  0.00    -0.274 OA
HETATM   18  H   UNL     1     -39.401  51.565 -52.805  1.00  0.00     0.169 HD
ENDBRANCH   1  14
BRANCH  10  19
HETATM   19  N   UNL     1     -42.381  58.269 -50.956  1.00  0.00    -0.327 N 
HETATM   20  C   UNL     1     -41.174  58.854 -50.720  1.00  0.00     0.218 C 
HETATM   21  C   UNL     1     -40.166  59.043 -51.815  1.00  0.00     0.117 C 
HETATM   22  O   UNL     1     -40.905  59.186 -49.562  1.00  0.00    -0.274 OA
HETATM   23  H   UNL     1     -42.881  58.118 -50.090  1.00  0.00     0.169 HD
ENDBRANCH  10  19
TORSDOF 2
ENDMDL
MODEL 10
REMARK VINA RESULT:      -7.0      3.144      6.888
REMARK  2 active torsions:
REMARK  status: ('A' for Active; 'I' for Inactive)
REMARK       I    between atoms: C_2  and  N_3 
REMARK    1  A    between atoms: N_3  and  C_4 
REMARK    2  A    between atoms: C_13  and  N_14 
REMARK       I    between atoms: N_14  and  C_15 
ROOT
HETATM    1  C   UNL     1     -41.113  54.129 -53.713  1.00  0.00     0.035 A 
HETATM    2  C   UNL     1     -42.100  54.953 -53.176  1.00  0.00     0.038 A 
HETATM    3  C   UNL     1     -42.819  55.778 -54.035  1.00  0.00    -0.041 A 
HETATM    4  C   UNL     1     -42.578  55.828 -55.425  1.00  0.00    -0.016 A 
HETATM    5  C   UNL     1     -43.489  56.803 -56.029  1.00  0.00     0.008 A 
HETATM    6  C   UNL     1     -44.340  57.283 -54.997  1.00  0.00    -0.041 A 
HETATM    7  C   UNL     1     -45.363  58.185 -55.235  1.00  0.00     0.008 A 
HETATM    8  C   UNL     1     -45.536  58.637 -56.536  1.00  0.00     0.003 A 
HETATM    9  C   UNL     1     -44.682  58.204 -57.568  1.00  0.00     0.030 A 
HETATM   10  C   UNL     1     -43.645  57.286 -57.335  1.00  0.00     0.046 A 
HETATM   11  C   UNL     1     -43.957  56.695 -53.657  1.00  0.00     0.079 A 
HETATM   12  C   UNL     1     -41.630  54.973 -55.964  1.00  0.00     0.015 A 
HETATM   13  C   UNL     1     -40.897  54.136 -55.105  1.00  0.00     0.030 A 
ENDROOT
BRANCH   1  14
HETATM   14  N   UNL     1     -40.310  53.261 -52.945  1.00  0.00    -0.328 N 
HETATM   15  C   UNL     1     -40.052  51.922 -53.182  1.00  0.00     0.218 C 
HETATM   16  C   UNL     1     -39.164  51.308 -52.128  1.00  0.00     0.117 C 
HETATM   17  O   UNL     1     -40.488  51.239 -54.103  1.00  0.00    -0.274 OA
HETATM   18  H   UNL     1     -39.894  53.665 -52.115  1.00  0.00     0.169 HD
ENDBRANCH   1  14
BRANCH  10  19
HETATM   19  N   UNL     1     -42.710  56.932 -58.323  1.00  0.00    -0.327 N 
HETATM   20  C   UNL     1     -42.760  56.128 -59.420  1.00  0.00     0.218 C 
HETATM   21  C   UNL     1     -43.905  55.185 -59.651  1.00  0.00     0.117 C 
HETATM   22  O   UNL     1     -41.809  56.155 -60.206  1.00  0.00    -0.274 OA
HETATM   23  H   UNL     1     -41.820  57.410 -58.270  1.00  0.00     0.169 HD
ENDBRANCH  10  19
TORSDOF 2
ENDMDL
