MODEL 1
REMARK VINA RESULT:      -8.1      0.000      0.000
REMARK  4 active torsions:
REMARK  status: ('A' for Active; 'I' for Inactive)
REMARK    1  A    between atoms: C_5  and  C_6 
REMARK    2  A    between atoms: C_6  and  N_7 
REMARK    3  A    between atoms: C_6  and  C_18 
REMARK    4  A    between atoms: N_7  and  C_8 
ROOT
HETATM    1  C   UNL     1     -42.460  55.473 -52.437  1.00  0.00     0.290 C 
ENDROOT
BRANCH   1   2
HETATM    2  C   UNL     1     -41.548  54.245 -52.423  1.00  0.00     0.021 A 
HETATM    3  C   UNL     1     -41.300  53.487 -53.584  1.00  0.00     0.055 A 
HETATM    4  C   UNL     1     -40.418  52.405 -53.563  1.00  0.00     0.117 A 
HETATM    5  C   UNL     1     -39.725  52.064 -52.412  1.00  0.00     0.045 A 
HETATM    6  F   UNL     1     -40.232  51.692 -54.680  1.00  0.00    -0.206 F 
HETATM    7  C   UNL     1     -39.907  52.829 -51.266  1.00  0.00     0.046 A 
HETATM    8  C   UNL     1     -40.794  53.909 -51.282  1.00  0.00     0.125 A 
HETATM    9  F   UNL     1     -40.903  54.624 -50.153  1.00  0.00    -0.205 F 
ENDBRANCH   1   2
BRANCH   1  10
HETATM   10  N   UNL     1     -43.548  55.459 -53.443  1.00  0.00     0.101 NA
HETATM   11  H   UNL     1     -44.413  55.652 -52.934  1.00  0.00     0.317 HD
BRANCH  10  12
HETATM   12  C   UNL     1     -43.463  56.322 -54.623  1.00  0.00     0.225 C 
HETATM   13  C   UNL     1     -43.170  55.561 -55.932  1.00  0.00     0.069 C 
HETATM   14  C   UNL     1     -43.234  56.515 -57.110  1.00  0.00     0.190 C 
HETATM   15  N   UNL     1     -44.610  57.118 -57.161  1.00  0.00    -0.067 N 
HETATM   16  C   UNL     1     -43.125  55.909 -58.493  1.00  0.00     0.035 C 
HETATM   17  H   UNL     1     -45.293  56.345 -57.160  1.00  0.00     0.280 HD
HETATM   18  C   UNL     1     -44.901  57.964 -55.967  1.00  0.00     0.237 C 
HETATM   19  C   UNL     1     -44.716  57.769 -58.515  1.00  0.00     0.235 C 
HETATM   20  C   UNL     1     -44.812  57.077 -54.728  1.00  0.00     0.063 C 
HETATM   21  C   UNL     1     -43.725  56.995 -59.385  1.00  0.00     0.030 C 
ENDBRANCH  10  12
ENDBRANCH   1  10
BRANCH   1  22
HETATM   22  C   UNL     1     -41.813  56.857 -52.357  1.00  0.00    -0.018 A 
HETATM   23  C   UNL     1     -42.288  57.785 -51.417  1.00  0.00     0.029 A 
HETATM   24  C   UNL     1     -41.737  59.056 -51.386  1.00  0.00     0.116 A 
HETATM   25  N   UNL     1     -40.762  59.467 -52.221  1.00  0.00    -0.273 NA
HETATM   26  C   UNL     1     -40.304  58.570 -53.114  1.00  0.00     0.116 A 
HETATM   27  C   UNL     1     -40.796  57.278 -53.226  1.00  0.00     0.029 A 
ENDBRANCH   1  22
TORSDOF 4
ENDMDL
MODEL 2
REMARK VINA RESULT:      -7.9      2.422      5.121
REMARK  4 active torsions:
REMARK  status: ('A' for Active; 'I' for Inactive)
REMARK    1  A    between atoms: C_5  and  C_6 
REMARK    2  A    between atoms: C_6  and  N_7 
REMARK    3  A    between atoms: C_6  and  C_18 
REMARK    4  A    between atoms: N_7  and  C_8 
ROOT
HETATM    1  C   UNL     1     -40.891  54.497 -52.380  1.00  0.00     0.290 C 
ENDROOT
BRANCH   1   2
HETATM    2  C   UNL     1     -40.411  53.096 -51.993  1.00  0.00     0.021 A 
HETATM    3  C   UNL     1     -40.640  52.557 -50.712  1.00  0.00     0.055 A 
HETATM    4  C   UNL     1     -40.246  51.256 -50.398  1.00  0.00     0.117 A 
HETATM    5  C   UNL     1     -39.654  50.435 -51.345  1.00  0.00     0.045 A 
HETATM    6  F   UNL     1     -40.455  50.791 -49.161  1.00  0.00    -0.206 F 
HETATM    7  C   UNL     1     -39.467  50.921 -52.634  1.00  0.00     0.046 A 
HETATM    8  C   UNL     1     -39.855  52.226 -52.950  1.00  0.00     0.125 A 
HETATM    9  F   UNL     1     -39.674  52.625 -54.217  1.00  0.00    -0.205 F 
ENDBRANCH   1   2
BRANCH   1  10
HETATM   10  N   UNL     1     -41.608  55.250 -51.324  1.00  0.00     0.101 NA
HETATM   11  H   UNL     1     -40.980  55.286 -50.520  1.00  0.00     0.317 HD
BRANCH  10  12
HETATM   12  C   UNL     1     -42.128  56.590 -51.608  1.00  0.00     0.225 C 
HETATM   13  C   UNL     1     -43.613  56.773 -51.236  1.00  0.00     0.069 C 
HETATM   14  C   UNL     1     -44.021  58.220 -51.438  1.00  0.00     0.190 C 
HETATM   15  N   UNL     1     -43.159  59.086 -50.562  1.00  0.00    -0.067 N 
HETATM   16  C   UNL     1     -45.407  58.616 -50.974  1.00  0.00     0.035 C 
HETATM   17  H   UNL     1     -43.223  58.723 -49.598  1.00  0.00     0.280 HD
HETATM   18  C   UNL     1     -41.721  59.035 -50.956  1.00  0.00     0.237 C 
HETATM   19  C   UNL     1     -43.826  60.436 -50.545  1.00  0.00     0.235 C 
HETATM   20  C   UNL     1     -41.246  57.591 -50.820  1.00  0.00     0.063 C 
HETATM   21  C   UNL     1     -45.297  60.134 -50.840  1.00  0.00     0.030 C 
ENDBRANCH  10  12
ENDBRANCH   1  10
BRANCH   1  22
HETATM   22  C   UNL     1     -41.577  54.678 -53.736  1.00  0.00    -0.018 A 
HETATM   23  C   UNL     1     -41.057  55.608 -54.650  1.00  0.00     0.029 A 
HETATM   24  C   UNL     1     -41.714  55.810 -55.854  1.00  0.00     0.116 A 
HETATM   25  N   UNL     1     -42.844  55.165 -56.204  1.00  0.00    -0.273 NA
HETATM   26  C   UNL     1     -43.332  54.267 -55.328  1.00  0.00     0.116 A 
HETATM   27  C   UNL     1     -42.750  54.001 -54.097  1.00  0.00     0.029 A 
ENDBRANCH   1  22
TORSDOF 4
ENDMDL
MODEL 3
REMARK VINA RESULT:      -7.9      2.475      5.125
REMARK  4 active torsions:
REMARK  status: ('A' for Active; 'I' for Inactive)
REMARK    1  A    between atoms: C_5  and  C_6 
REMARK    2  A    between atoms: C_6  and  N_7 
REMARK    3  A    between atoms: C_6  and  C_18 
REMARK    4  A    between atoms: N_7  and  C_8 
ROOT
HETATM    1  C   UNL     1     -40.128  53.410 -52.944  1.00  0.00     0.290 C 
ENDROOT
BRANCH   1   2
HETATM    2  C   UNL     1     -40.898  53.926 -51.726  1.00  0.00     0.021 A 
HETATM    3  C   UNL     1     -42.305  53.951 -51.689  1.00  0.00     0.055 A 
HETATM    4  C   UNL     1     -42.988  54.370 -50.547  1.00  0.00     0.117 A 
HETATM    5  C   UNL     1     -42.308  54.738 -49.396  1.00  0.00     0.045 A 
HETATM    6  F   UNL     1     -44.326  54.407 -50.561  1.00  0.00    -0.206 F 
HETATM    7  C   UNL     1     -40.920  54.670 -49.385  1.00  0.00     0.046 A 
HETATM    8  C   UNL     1     -40.232  54.257 -50.530  1.00  0.00     0.125 A 
HETATM    9  F   UNL     1     -38.897  54.185 -50.445  1.00  0.00    -0.205 F 
ENDBRANCH   1   2
BRANCH   1  10
HETATM   10  N   UNL     1     -40.457  54.054 -54.237  1.00  0.00     0.101 NA
HETATM   11  H   UNL     1     -40.780  53.308 -54.856  1.00  0.00     0.317 HD
BRANCH  10  12
HETATM   12  C   UNL     1     -41.398  55.175 -54.277  1.00  0.00     0.225 C 
HETATM   13  C   UNL     1     -40.762  56.536 -53.929  1.00  0.00     0.069 C 
HETATM   14  C   UNL     1     -41.776  57.646 -54.127  1.00  0.00     0.190 C 
HETATM   15  N   UNL     1     -42.219  57.637 -55.564  1.00  0.00    -0.067 N 
HETATM   16  C   UNL     1     -41.278  59.068 -53.981  1.00  0.00     0.035 C 
HETATM   17  H   UNL     1     -41.374  57.677 -56.154  1.00  0.00     0.280 HD
HETATM   18  C   UNL     1     -42.947  56.385 -55.923  1.00  0.00     0.237 C 
HETATM   19  C   UNL     1     -42.940  58.942 -55.774  1.00  0.00     0.235 C 
HETATM   20  C   UNL     1     -41.998  55.209 -55.705  1.00  0.00     0.063 C 
HETATM   21  C   UNL     1     -42.343  59.877 -54.721  1.00  0.00     0.030 C 
ENDBRANCH  10  12
ENDBRANCH   1  10
BRANCH   1  22
HETATM   22  C   UNL     1     -39.973  51.898 -53.114  1.00  0.00    -0.018 A 
HETATM   23  C   UNL     1     -39.629  51.113 -52.002  1.00  0.00     0.029 A 
HETATM   24  C   UNL     1     -39.434  49.751 -52.172  1.00  0.00     0.116 A 
HETATM   25  N   UNL     1     -39.547  49.124 -53.359  1.00  0.00    -0.273 NA
HETATM   26  C   UNL     1     -39.886  49.880 -54.420  1.00  0.00     0.116 A 
HETATM   27  C   UNL     1     -40.096  51.250 -54.351  1.00  0.00     0.029 A 
ENDBRANCH   1  22
TORSDOF 4
ENDMDL
MODEL 4
REMARK VINA RESULT:      -7.8      2.479      4.918
REMARK  4 active torsions:
REMARK  status: ('A' for Active; 'I' for Inactive)
REMARK    1  A    between atoms: C_5  and  C_6 
REMARK    2  A    between atoms: C_6  and  N_7 
REMARK    3  A    between atoms: C_6  and  C_18 
REMARK    4  A    between atoms: N_7  and  C_8 
ROOT
HETATM    1  C   UNL     1     -41.145  53.632 -52.472  1.00  0.00     0.290 C 
ENDROOT
BRANCH   1   2
HETATM    2  C   UNL     1     -40.544  52.226 -52.537  1.00  0.00     0.021 A 
HETATM    3  C   UNL     1     -40.353  51.552 -53.759  1.00  0.00     0.055 A 
HETATM    4  C   UNL     1     -39.749  50.295 -53.801  1.00  0.00     0.117 A 
HETATM    5  C   UNL     1     -39.279  49.684 -52.649  1.00  0.00     0.045 A 
HETATM    6  F   UNL     1     -39.613  49.675 -54.979  1.00  0.00    -0.206 F 
HETATM    7  C   UNL     1     -39.402  50.350 -51.435  1.00  0.00     0.046 A 
HETATM    8  C   UNL     1     -40.013  51.607 -51.389  1.00  0.00     0.125 A 
HETATM    9  F   UNL     1     -40.075  52.209 -50.193  1.00  0.00    -0.205 F 
ENDBRANCH   1   2
BRANCH   1  10
HETATM   10  N   UNL     1     -42.136  53.862 -51.396  1.00  0.00     0.101 NA
HETATM   11  H   UNL     1     -41.938  53.173 -50.669  1.00  0.00     0.317 HD
BRANCH  10  12
HETATM   12  C   UNL     1     -42.268  55.192 -50.797  1.00  0.00     0.225 C 
HETATM   13  C   UNL     1     -41.019  56.080 -50.968  1.00  0.00     0.069 C 
HETATM   14  C   UNL     1     -41.298  57.473 -50.438  1.00  0.00     0.190 C 
HETATM   15  N   UNL     1     -42.452  58.054 -51.207  1.00  0.00    -0.067 N 
HETATM   16  C   UNL     1     -40.232  58.524 -50.666  1.00  0.00     0.035 C 
HETATM   17  H   UNL     1     -42.229  57.982 -52.212  1.00  0.00     0.280 HD
HETATM   18  C   UNL     1     -43.718  57.298 -50.983  1.00  0.00     0.237 C 
HETATM   19  C   UNL     1     -42.455  59.525 -50.883  1.00  0.00     0.235 C 
HETATM   20  C   UNL     1     -43.501  55.863 -51.455  1.00  0.00     0.063 C 
HETATM   21  C   UNL     1     -41.006  59.831 -50.504  1.00  0.00     0.030 C 
ENDBRANCH  10  12
ENDBRANCH   1  10
BRANCH   1  22
HETATM   22  C   UNL     1     -41.600  54.285 -53.779  1.00  0.00    -0.018 A 
HETATM   23  C   UNL     1     -42.771  53.828 -54.404  1.00  0.00     0.029 A 
HETATM   24  C   UNL     1     -43.149  54.384 -55.616  1.00  0.00     0.116 A 
HETATM   25  N   UNL     1     -42.448  55.346 -56.247  1.00  0.00    -0.273 NA
HETATM   26  C   UNL     1     -41.331  55.787 -55.638  1.00  0.00     0.116 A 
HETATM   27  C   UNL     1     -40.868  55.289 -54.429  1.00  0.00     0.029 A 
ENDBRANCH   1  22
TORSDOF 4
ENDMDL
MODEL 5
REMARK VINA RESULT:      -7.7      1.945      4.328
REMARK  4 active torsions:
REMARK  status: ('A' for Active; 'I' for Inactive)
REMARK    1  A    between atoms: C_5  and  C_6 
REMARK    2  A    between atoms: C_6  and  N_7 
REMARK    3  A    between atoms: C_6  and  C_18 
REMARK    4  A    between atoms: N_7  and  C_8 
ROOT
HETATM    1  C   UNL     1     -41.274  54.746 -53.919  1.00  0.00     0.290 C 
ENDROOT
BRANCH   1   2
HETATM    2  C   UNL     1     -41.633  55.781 -52.851  1.00  0.00     0.021 A 
HETATM    3  C   UNL     1     -40.984  57.029 -52.773  1.00  0.00     0.055 A 
HETATM    4  C   UNL     1     -41.366  57.981 -51.828  1.00  0.00     0.117 A 
HETATM    5  C   UNL     1     -42.423  57.750 -50.960  1.00  0.00     0.045 A 
HETATM    6  F   UNL     1     -40.705  59.144 -51.767  1.00  0.00    -0.206 F 
HETATM    7  C   UNL     1     -43.118  56.551 -51.051  1.00  0.00     0.046 A 
HETATM    8  C   UNL     1     -42.733  55.591 -51.993  1.00  0.00     0.125 A 
HETATM    9  F   UNL     1     -43.462  54.468 -52.049  1.00  0.00    -0.205 F 
ENDBRANCH   1   2
BRANCH   1  10
HETATM   10  N   UNL     1     -42.282  54.542 -54.986  1.00  0.00     0.101 NA
HETATM   11  H   UNL     1     -43.162  54.327 -54.513  1.00  0.00     0.317 HD
BRANCH  10  12
HETATM   12  C   UNL     1     -42.501  55.582 -55.994  1.00  0.00     0.225 C 
HETATM   13  C   UNL     1     -42.860  55.032 -57.389  1.00  0.00     0.069 C 
HETATM   14  C   UNL     1     -43.198  56.177 -58.324  1.00  0.00     0.190 C 
HETATM   15  N   UNL     1     -44.365  56.932 -57.752  1.00  0.00    -0.067 N 
HETATM   16  C   UNL     1     -43.725  55.814 -59.696  1.00  0.00     0.035 C 
HETATM   17  H   UNL     1     -45.120  56.253 -57.567  1.00  0.00     0.280 HD
HETATM   18  C   UNL     1     -44.034  57.584 -56.451  1.00  0.00     0.237 C 
HETATM   19  C   UNL     1     -44.861  57.817 -58.865  1.00  0.00     0.235 C 
HETATM   20  C   UNL     1     -43.638  56.491 -55.463  1.00  0.00     0.063 C 
HETATM   21  C   UNL     1     -44.421  57.099 -60.142  1.00  0.00     0.030 C 
ENDBRANCH  10  12
ENDBRANCH   1  10
BRANCH   1  22
HETATM   22  C   UNL     1     -40.687  53.409 -53.464  1.00  0.00    -0.018 A 
HETATM   23  C   UNL     1     -40.297  53.250 -52.125  1.00  0.00     0.029 A 
HETATM   24  C   UNL     1     -39.713  52.056 -51.729  1.00  0.00     0.116 A 
HETATM   25  N   UNL     1     -39.484  51.025 -52.565  1.00  0.00    -0.273 NA
HETATM   26  C   UNL     1     -39.869  51.180 -53.846  1.00  0.00     0.116 A 
HETATM   27  C   UNL     1     -40.455  52.337 -54.338  1.00  0.00     0.029 A 
ENDBRANCH   1  22
TORSDOF 4
ENDMDL
MODEL 6
REMARK VINA RESULT:      -7.6      3.444      6.751
REMARK  4 active torsions:
REMARK  status: ('A' for Active; 'I' for Inactive)
REMARK    1  A    between atoms: C_5  and  C_6 
REMARK    2  A    between atoms: C_6  and  N_7 
REMARK    3  A    between atoms: C_6  and  C_18 
REMARK    4  A    between atoms: N_7  and  C_8 
ROOT
HETATM    1  C   UNL     1     -43.513  56.966 -57.368  1.00  0.00     0.290 C 
ENDROOT
BRANCH   1   2
HETATM    2  C   UNL     1     -44.436  56.691 -58.557  1.00  0.00     0.021 A 
HETATM    3  C   UNL     1     -44.190  55.644 -59.466  1.00  0.00     0.055 A 
HETATM    4  C   UNL     1     -45.075  55.374 -60.510  1.00  0.00     0.117 A 
HETATM    5  C   UNL     1     -46.247  56.098 -60.665  1.00  0.00     0.045 A 
HETATM    6  F   UNL     1     -44.790  54.389 -61.370  1.00  0.00    -0.206 F 
HETATM    7  C   UNL     1     -46.545  57.100 -59.750  1.00  0.00     0.046 A 
HETATM    8  C   UNL     1     -45.656  57.378 -58.707  1.00  0.00     0.125 A 
HETATM    9  F   UNL     1     -46.015  58.337 -57.841  1.00  0.00    -0.205 F 
ENDBRANCH   1   2
BRANCH   1  10
HETATM   10  N   UNL     1     -44.063  56.636 -56.033  1.00  0.00     0.101 NA
HETATM   11  H   UNL     1     -45.078  56.592 -56.141  1.00  0.00     0.317 HD
BRANCH  10  12
HETATM   12  C   UNL     1     -43.589  55.446 -55.321  1.00  0.00     0.225 C 
HETATM   13  C   UNL     1     -42.159  55.017 -55.708  1.00  0.00     0.069 C 
HETATM   14  C   UNL     1     -41.709  53.867 -54.827  1.00  0.00     0.190 C 
HETATM   15  N   UNL     1     -41.741  54.321 -53.395  1.00  0.00    -0.067 N 
HETATM   16  C   UNL     1     -40.269  53.418 -54.963  1.00  0.00     0.035 C 
HETATM   17  H   UNL     1     -41.191  55.192 -53.328  1.00  0.00     0.280 HD
HETATM   18  C   UNL     1     -43.124  54.639 -52.933  1.00  0.00     0.237 C 
HETATM   19  C   UNL     1     -40.973  53.281 -52.623  1.00  0.00     0.235 C 
HETATM   20  C   UNL     1     -43.665  55.767 -53.807  1.00  0.00     0.063 C 
HETATM   21  C   UNL     1     -40.024  52.669 -53.654  1.00  0.00     0.030 C 
ENDBRANCH  10  12
ENDBRANCH   1  10
BRANCH   1  22
HETATM   22  C   UNL     1     -42.758  58.296 -57.330  1.00  0.00    -0.018 A 
HETATM   23  C   UNL     1     -42.714  59.028 -56.133  1.00  0.00     0.029 A 
HETATM   24  C   UNL     1     -42.077  60.259 -56.118  1.00  0.00     0.116 A 
HETATM   25  N   UNL     1     -41.494  60.810 -57.200  1.00  0.00    -0.273 NA
HETATM   26  C   UNL     1     -41.531  60.099 -58.343  1.00  0.00     0.116 A 
HETATM   27  C   UNL     1     -42.149  58.863 -58.459  1.00  0.00     0.029 A 
ENDBRANCH   1  22
TORSDOF 4
ENDMDL
MODEL 7
REMARK VINA RESULT:      -7.5      2.932      7.121
REMARK  4 active torsions:
REMARK  status: ('A' for Active; 'I' for Inactive)
REMARK    1  A    between atoms: C_5  and  C_6 
REMARK    2  A    between atoms: C_6  and  N_7 
REMARK    3  A    between atoms: C_6  and  C_18 
REMARK    4  A    between atoms: N_7  and  C_8 
ROOT
HETATM    1  C   UNL     1     -42.805  56.617 -56.163  1.00  0.00     0.290 C 
ENDROOT
BRANCH   1   2
HETATM    2  C   UNL     1     -43.250  57.897 -55.453  1.00  0.00     0.021 A 
HETATM    3  C   UNL     1     -42.331  58.753 -54.815  1.00  0.00     0.055 A 
HETATM    4  C   UNL     1     -42.750  59.946 -54.224  1.00  0.00     0.117 A 
HETATM    5  C   UNL     1     -44.075  60.350 -54.279  1.00  0.00     0.045 A 
HETATM    6  F   UNL     1     -41.850  60.717 -53.601  1.00  0.00    -0.206 F 
HETATM    7  C   UNL     1     -44.994  59.553 -54.952  1.00  0.00     0.046 A 
HETATM    8  C   UNL     1     -44.579  58.354 -55.539  1.00  0.00     0.125 A 
HETATM    9  F   UNL     1     -45.507  57.646 -56.197  1.00  0.00    -0.205 F 
ENDBRANCH   1   2
BRANCH   1  10
HETATM   10  N   UNL     1     -41.549  56.005 -55.669  1.00  0.00     0.101 NA
HETATM   11  H   UNL     1     -40.958  56.777 -55.354  1.00  0.00     0.317 HD
BRANCH  10  12
HETATM   12  C   UNL     1     -41.599  54.965 -54.640  1.00  0.00     0.225 C 
HETATM   13  C   UNL     1     -40.644  53.783 -54.902  1.00  0.00     0.069 C 
HETATM   14  C   UNL     1     -40.667  52.829 -53.723  1.00  0.00     0.190 C 
HETATM   15  N   UNL     1     -40.235  53.578 -52.494  1.00  0.00    -0.067 N 
HETATM   16  C   UNL     1     -39.671  51.688 -53.740  1.00  0.00     0.035 C 
HETATM   17  H   UNL     1     -39.330  54.028 -52.701  1.00  0.00     0.280 HD
HETATM   18  C   UNL     1     -41.191  54.663 -52.127  1.00  0.00     0.237 C 
HETATM   19  C   UNL     1     -39.951  52.524 -51.456  1.00  0.00     0.235 C 
HETATM   20  C   UNL     1     -41.256  55.648 -53.292  1.00  0.00     0.063 C 
HETATM   21  C   UNL     1     -39.605  51.277 -52.270  1.00  0.00     0.030 C 
ENDBRANCH  10  12
ENDBRANCH   1  10
BRANCH   1  22
HETATM   22  C   UNL     1     -42.862  56.580 -57.692  1.00  0.00    -0.018 A 
HETATM   23  C   UNL     1     -42.325  57.649 -58.426  1.00  0.00     0.029 A 
HETATM   24  C   UNL     1     -42.429  57.638 -59.808  1.00  0.00     0.116 A 
HETATM   25  N   UNL     1     -43.030  56.653 -60.503  1.00  0.00    -0.273 NA
HETATM   26  C   UNL     1     -43.534  55.625 -59.794  1.00  0.00     0.116 A 
HETATM   27  C   UNL     1     -43.485  55.550 -58.410  1.00  0.00     0.029 A 
ENDBRANCH   1  22
TORSDOF 4
ENDMDL
MODEL 8
REMARK VINA RESULT:      -7.4      2.508      6.176
REMARK  4 active torsions:
REMARK  status: ('A' for Active; 'I' for Inactive)
REMARK    1  A    between atoms: C_5  and  C_6 
REMARK    2  A    between atoms: C_6  and  N_7 
REMARK    3  A    between atoms: C_6  and  C_18 
REMARK    4  A    between atoms: N_7  and  C_8 
ROOT
HETATM    1  C   UNL     1     -42.650  56.994 -53.162  1.00  0.00     0.290 C 
ENDROOT
BRANCH   1   2
HETATM    2  C   UNL     1     -43.665  57.673 -54.084  1.00  0.00     0.021 A 
HETATM    3  C   UNL     1     -44.335  58.854 -53.712  1.00  0.00     0.055 A 
HETATM    4  C   UNL     1     -45.213  59.490 -54.591  1.00  0.00     0.117 A 
HETATM    5  C   UNL     1     -45.425  59.006 -55.873  1.00  0.00     0.045 A 
HETATM    6  F   UNL     1     -45.854  60.595 -54.189  1.00  0.00    -0.206 F 
HETATM    7  C   UNL     1     -44.733  57.874 -56.287  1.00  0.00     0.046 A 
HETATM    8  C   UNL     1     -43.858  57.231 -55.407  1.00  0.00     0.125 A 
HETATM    9  F   UNL     1     -43.200  56.162 -55.876  1.00  0.00    -0.205 F 
ENDBRANCH   1   2
BRANCH   1  10
HETATM   10  N   UNL     1     -43.200  55.992 -52.220  1.00  0.00     0.101 NA
HETATM   11  H   UNL     1     -44.208  55.963 -52.386  1.00  0.00     0.317 HD
BRANCH  10  12
HETATM   12  C   UNL     1     -42.661  54.631 -52.203  1.00  0.00     0.225 C 
HETATM   13  C   UNL     1     -41.831  54.273 -53.453  1.00  0.00     0.069 C 
HETATM   14  C   UNL     1     -41.207  52.902 -53.284  1.00  0.00     0.190 C 
HETATM   15  N   UNL     1     -40.322  52.926 -52.068  1.00  0.00    -0.067 N 
HETATM   16  C   UNL     1     -40.230  52.453 -54.351  1.00  0.00     0.035 C 
HETATM   17  H   UNL     1     -39.669  53.718 -52.170  1.00  0.00     0.280 HD
HETATM   18  C   UNL     1     -41.095  53.153 -50.812  1.00  0.00     0.237 C 
HETATM   19  C   UNL     1     -39.485  51.678 -52.152  1.00  0.00     0.235 C 
HETATM   20  C   UNL     1     -41.793  54.506 -50.926  1.00  0.00     0.063 C 
HETATM   21  C   UNL     1     -39.443  51.350 -53.645  1.00  0.00     0.030 C 
ENDBRANCH  10  12
ENDBRANCH   1  10
BRANCH   1  22
HETATM   22  C   UNL     1     -41.600  57.867 -52.473  1.00  0.00    -0.018 A 
HETATM   23  C   UNL     1     -40.481  58.301 -53.202  1.00  0.00     0.029 A 
HETATM   24  C   UNL     1     -39.504  59.045 -52.558  1.00  0.00     0.116 A 
HETATM   25  N   UNL     1     -39.557  59.377 -51.253  1.00  0.00    -0.273 NA
HETATM   26  C   UNL     1     -40.637  58.966 -50.562  1.00  0.00     0.116 A 
HETATM   27  C   UNL     1     -41.662  58.213 -51.116  1.00  0.00     0.029 A 
ENDBRANCH   1  22
TORSDOF 4
ENDMDL
MODEL 9
REMARK VINA RESULT:      -7.3      1.917      2.410
REMARK  4 active torsions:
REMARK  status: ('A' for Active; 'I' for Inactive)
REMARK    1  A    between atoms: C_5  and  C_6 
REMARK    2  A    between atoms: C_6  and  N_7 
REMARK    3  A    between atoms: C_6  and  C_18 
REMARK    4  A    between atoms: N_7  and  C_8 
ROOT
HETATM    1  C   UNL     1     -42.787  56.469 -54.569  1.00  0.00     0.290 C 
ENDROOT
BRANCH   1   2
HETATM    2  C   UNL     1     -42.092  55.233 -53.995  1.00  0.00     0.021 A 
HETATM    3  C   UNL     1     -42.190  53.969 -54.609  1.00  0.00     0.055 A 
HETATM    4  C   UNL     1     -41.501  52.867 -54.103  1.00  0.00     0.117 A 
HETATM    5  C   UNL     1     -40.663  52.984 -53.004  1.00  0.00     0.045 A 
HETATM    6  F   UNL     1     -41.644  51.676 -54.698  1.00  0.00    -0.206 F 
HETATM    7  C   UNL     1     -40.502  54.231 -52.412  1.00  0.00     0.046 A 
HETATM    8  C   UNL     1     -41.197  55.336 -52.913  1.00  0.00     0.125 A 
HETATM    9  F   UNL     1     -40.976  56.516 -52.316  1.00  0.00    -0.205 F 
ENDBRANCH   1   2
BRANCH   1  10
HETATM   10  N   UNL     1     -42.088  57.143 -55.688  1.00  0.00     0.101 NA
HETATM   11  H   UNL     1     -41.150  56.742 -55.726  1.00  0.00     0.317 HD
BRANCH  10  12
HETATM   12  C   UNL     1     -42.682  57.144 -57.027  1.00  0.00     0.225 C 
HETATM   13  C   UNL     1     -42.982  55.734 -57.576  1.00  0.00     0.069 C 
HETATM   14  C   UNL     1     -43.715  55.841 -58.900  1.00  0.00     0.190 C 
HETATM   15  N   UNL     1     -44.998  56.590 -58.676  1.00  0.00    -0.067 N 
HETATM   16  C   UNL     1     -44.227  54.553 -59.509  1.00  0.00     0.035 C 
HETATM   17  H   UNL     1     -45.506  56.125 -57.908  1.00  0.00     0.280 HD
HETATM   18  C   UNL     1     -44.762  58.002 -58.254  1.00  0.00     0.237 C 
HETATM   19  C   UNL     1     -45.820  56.366 -59.918  1.00  0.00     0.235 C 
HETATM   20  C   UNL     1     -43.985  57.978 -56.941  1.00  0.00     0.063 C 
HETATM   21  C   UNL     1     -45.300  55.042 -60.481  1.00  0.00     0.030 C 
ENDBRANCH  10  12
ENDBRANCH   1  10
BRANCH   1  22
HETATM   22  C   UNL     1     -43.363  57.495 -53.591  1.00  0.00    -0.018 A 
HETATM   23  C   UNL     1     -44.376  57.104 -52.702  1.00  0.00     0.029 A 
HETATM   24  C   UNL     1     -44.934  58.050 -51.856  1.00  0.00     0.116 A 
HETATM   25  N   UNL     1     -44.565  59.346 -51.840  1.00  0.00    -0.273 NA
HETATM   26  C   UNL     1     -43.586  59.713 -52.689  1.00  0.00     0.116 A 
HETATM   27  C   UNL     1     -42.972  58.841 -53.576  1.00  0.00     0.029 A 
ENDBRANCH   1  22
TORSDOF 4
ENDMDL
MODEL 10
REMARK VINA RESULT:      -7.3      2.387      6.469
REMARK  4 active torsions:
REMARK  status: ('A' for Active; 'I' for Inactive)
REMARK    1  A    between atoms: C_5  and  C_6 
REMARK    2  A    between atoms: C_6  and  N_7 
REMARK    3  A    between atoms: C_6  and  C_18 
REMARK    4  A    between atoms: N_7  and  C_8 
ROOT
HETATM    1  C   UNL     1     -43.064  56.400 -54.746  1.00  0.00     0.290 C 
ENDROOT
BRANCH   1   2
HETATM    2  C   UNL     1     -43.203  57.426 -53.619  1.00  0.00     0.021 A 
HETATM    3  C   UNL     1     -44.136  57.266 -52.576  1.00  0.00     0.055 A 
HETATM    4  C   UNL     1     -44.207  58.183 -51.527  1.00  0.00     0.117 A 
HETATM    5  C   UNL     1     -43.337  59.259 -51.451  1.00  0.00     0.045 A 
HETATM    6  F   UNL     1     -45.128  58.011 -50.570  1.00  0.00    -0.206 F 
HETATM    7  C   UNL     1     -42.368  59.410 -52.436  1.00  0.00     0.046 A 
HETATM    8  C   UNL     1     -42.298  58.497 -53.492  1.00  0.00     0.125 A 
HETATM    9  F   UNL     1     -41.324  58.683 -54.394  1.00  0.00    -0.205 F 
ENDBRANCH   1   2
BRANCH   1  10
HETATM   10  N   UNL     1     -41.802  55.624 -54.761  1.00  0.00     0.101 NA
HETATM   11  H   UNL     1     -41.064  56.267 -54.468  1.00  0.00     0.317 HD
BRANCH  10  12
HETATM   12  C   UNL     1     -41.703  54.375 -54.001  1.00  0.00     0.225 C 
HETATM   13  C   UNL     1     -41.000  53.235 -54.765  1.00  0.00     0.069 C 
HETATM   14  C   UNL     1     -40.825  52.034 -53.854  1.00  0.00     0.190 C 
HETATM   15  N   UNL     1     -39.997  52.449 -52.670  1.00  0.00    -0.067 N 
HETATM   16  C   UNL     1     -40.014  50.875 -54.391  1.00  0.00     0.035 C 
HETATM   17  H   UNL     1     -39.132  52.883 -53.027  1.00  0.00     0.280 HD
HETATM   18  C   UNL     1     -40.686  53.471 -51.829  1.00  0.00     0.237 C 
HETATM   19  C   UNL     1     -39.578  51.167 -52.000  1.00  0.00     0.235 C 
HETATM   20  C   UNL     1     -40.937  54.703 -52.695  1.00  0.00     0.063 C 
HETATM   21  C   UNL     1     -39.612  50.127 -53.121  1.00  0.00     0.030 C 
ENDBRANCH  10  12
ENDBRANCH   1  10
BRANCH   1  22
HETATM   22  C   UNL     1     -43.458  56.823 -56.162  1.00  0.00    -0.018 A 
HETATM   23  C   UNL     1     -44.443  57.808 -56.336  1.00  0.00     0.029 A 
HETATM   24  C   UNL     1     -44.838  58.147 -57.621  1.00  0.00     0.116 A 
HETATM   25  N   UNL     1     -44.333  57.576 -58.732  1.00  0.00    -0.273 NA
HETATM   26  C   UNL     1     -43.381  56.639 -58.559  1.00  0.00     0.116 A 
HETATM   27  C   UNL     1     -42.926  56.228 -57.315  1.00  0.00     0.029 A 
ENDBRANCH   1  22
TORSDOF 4
ENDMDL
