MODEL 1
REMARK VINA RESULT:      -7.6      0.000      0.000
REMARK  7 active torsions:
REMARK  status: ('A' for Active; 'I' for Inactive)
REMARK    1  A    between atoms: C_2  and  N_3 
REMARK    2  A    between atoms: N_3  and  C_4 
REMARK    3  A    between atoms: C_6  and  C_7 
REMARK    4  A    between atoms: C_7  and  N_8 
REMARK       I    between atoms: N_8  and  C_9 
REMARK       I    between atoms: C_9  and  N_10 
REMARK    5  A    between atoms: N_10  and  C_11 
REMARK    6  A    between atoms: C_11  and  C_12 
REMARK    7  A    between atoms: C_12  and  N_13 
ROOT
HETATM    1  N   UNL     1     -41.434  55.335 -54.922  1.00  0.00    -0.339 N 
HETATM    2  C   UNL     1     -42.430  56.259 -54.954  1.00  0.00     0.316 C 
HETATM    3  N   UNL     1     -41.956  57.541 -54.918  1.00  0.00    -0.342 N 
HETATM    4  O   UNL     1     -43.628  56.004 -54.974  1.00  0.00    -0.248 OA
HETATM    5  H   UNL     1     -40.516  55.617 -54.615  1.00  0.00     0.164 HD
HETATM    6  H   UNL     1     -40.963  57.617 -55.104  1.00  0.00     0.164 HD
ENDROOT
BRANCH   1   7
HETATM    7  C   UNL     1     -41.705  53.911 -54.921  1.00  0.00     0.162 C 
BRANCH   7   8
HETATM    8  C   UNL     1     -40.881  53.170 -53.900  1.00  0.00    -0.039 A 
HETATM    9  C   UNL     1     -40.619  53.753 -52.648  1.00  0.00     0.032 A 
HETATM   10  C   UNL     1     -39.954  53.054 -51.631  1.00  0.00     0.009 A 
HETATM   11  C   UNL     1     -39.462  51.780 -51.921  1.00  0.00     0.023 A 
HETATM   12  C   UNL     1     -39.702  51.185 -53.162  1.00  0.00     0.002 A 
HETATM   13  C   UNL     1     -40.422  51.869 -54.140  1.00  0.00     0.009 A 
BRANCH  10  14
HETATM   14  N   UNL     1     -39.716  53.731 -50.426  1.00  0.00    -0.289 NA
HETATM   15  H   UNL     1     -39.041  53.188 -49.887  1.00  0.00     0.128 HD
BRANCH  14  16
HETATM   16  C   UNL     1     -40.858  54.116 -49.579  1.00  0.00     0.052 C 
HETATM   17  C   UNL     1     -41.180  55.603 -49.740  1.00  0.00     0.026 C 
HETATM   18  C   UNL     1     -40.487  53.832 -48.121  1.00  0.00     0.026 C 
ENDBRANCH  14  16
ENDBRANCH  10  14
ENDBRANCH   7   8
ENDBRANCH   1   7
BRANCH   3  19
HETATM   19  C   UNL     1     -42.734  58.739 -55.229  1.00  0.00     0.152 C 
BRANCH  19  20
HETATM   20  C   UNL     1     -42.982  59.122 -56.704  1.00  0.00     0.255 C 
BRANCH  20  21
HETATM   21  N   UNL     1     -43.536  57.999 -57.540  1.00  0.00    -0.065 N 
HETATM   22  H   UNL     1     -43.656  57.220 -56.864  1.00  0.00     0.280 HD
HETATM   23  C   UNL     1     -44.889  58.273 -58.152  1.00  0.00     0.274 C 
HETATM   24  C   UNL     1     -45.299  57.208 -59.114  1.00  0.00    -0.019 A 
HETATM   25  C   UNL     1     -44.419  56.247 -59.570  1.00  0.00    -0.008 A 
HETATM   26  C   UNL     1     -46.591  57.039 -59.702  1.00  0.00     0.017 A 
HETATM   27  S   UNL     1     -45.127  55.157 -60.663  1.00  0.00    -0.106 SA
HETATM   28  C   UNL     1     -42.991  56.137 -59.143  1.00  0.00     0.074 C 
HETATM   29  C   UNL     1     -46.633  55.963 -60.564  1.00  0.00     0.051 A 
HETATM   30  C   UNL     1     -42.524  57.477 -58.551  1.00  0.00     0.240 C 
ENDBRANCH  20  21
ENDBRANCH  19  20
ENDBRANCH   3  19
TORSDOF 7
ENDMDL
MODEL 2
REMARK VINA RESULT:      -7.3      1.981      3.672
REMARK  7 active torsions:
REMARK  status: ('A' for Active; 'I' for Inactive)
REMARK    1  A    between atoms: C_2  and  N_3 
REMARK    2  A    between atoms: N_3  and  C_4 
REMARK    3  A    between atoms: C_6  and  C_7 
REMARK    4  A    between atoms: C_7  and  N_8 
REMARK       I    between atoms: N_8  and  C_9 
REMARK       I    between atoms: C_9  and  N_10 
REMARK    5  A    between atoms: N_10  and  C_11 
REMARK    6  A    between atoms: C_11  and  C_12 
REMARK    7  A    between atoms: C_12  and  N_13 
ROOT
HETATM    1  N   UNL     1     -44.055  55.276 -51.709  1.00  0.00    -0.339 N 
HETATM    2  C   UNL     1     -44.001  56.602 -51.999  1.00  0.00     0.316 C 
HETATM    3  N   UNL     1     -44.399  56.875 -53.279  1.00  0.00    -0.342 N 
HETATM    4  O   UNL     1     -43.609  57.475 -51.235  1.00  0.00    -0.248 OA
HETATM    5  H   UNL     1     -44.105  54.612 -52.466  1.00  0.00     0.164 HD
HETATM    6  H   UNL     1     -44.881  56.108 -53.731  1.00  0.00     0.164 HD
ENDROOT
BRANCH   1   7
HETATM    7  C   UNL     1     -43.650  54.752 -50.419  1.00  0.00     0.162 C 
BRANCH   7   8
HETATM    8  C   UNL     1     -42.193  54.370 -50.385  1.00  0.00    -0.039 A 
HETATM    9  C   UNL     1     -41.670  53.499 -51.357  1.00  0.00     0.032 A 
HETATM   10  C   UNL     1     -40.301  53.208 -51.429  1.00  0.00     0.009 A 
HETATM   11  C   UNL     1     -39.464  53.730 -50.442  1.00  0.00     0.023 A 
HETATM   12  C   UNL     1     -39.964  54.591 -49.461  1.00  0.00     0.002 A 
HETATM   13  C   UNL     1     -41.317  54.922 -49.442  1.00  0.00     0.009 A 
BRANCH  10  14
HETATM   14  N   UNL     1     -39.880  52.307 -52.418  1.00  0.00    -0.289 NA
HETATM   15  H   UNL     1     -38.887  52.468 -52.589  1.00  0.00     0.128 HD
BRANCH  14  16
HETATM   16  C   UNL     1     -40.616  52.240 -53.692  1.00  0.00     0.052 C 
HETATM   17  C   UNL     1     -40.369  50.904 -54.396  1.00  0.00     0.026 C 
HETATM   18  C   UNL     1     -40.127  53.383 -54.586  1.00  0.00     0.026 C 
ENDBRANCH  14  16
ENDBRANCH  10  14
ENDBRANCH   7   8
ENDBRANCH   1   7
BRANCH   3  19
HETATM   19  C   UNL     1     -44.730  58.201 -53.796  1.00  0.00     0.152 C 
BRANCH  19  20
HETATM   20  C   UNL     1     -43.793  58.871 -54.825  1.00  0.00     0.255 C 
BRANCH  20  21
HETATM   21  N   UNL     1     -44.067  58.467 -56.250  1.00  0.00    -0.065 N 
HETATM   22  H   UNL     1     -43.738  59.280 -56.807  1.00  0.00     0.280 HD
HETATM   23  C   UNL     1     -43.298  57.258 -56.725  1.00  0.00     0.274 C 
HETATM   24  C   UNL     1     -43.747  56.796 -58.071  1.00  0.00    -0.019 A 
HETATM   25  C   UNL     1     -44.900  57.267 -58.665  1.00  0.00    -0.008 A 
HETATM   26  C   UNL     1     -43.101  55.827 -58.901  1.00  0.00     0.017 A 
HETATM   27  S   UNL     1     -45.195  56.580 -60.190  1.00  0.00    -0.106 SA
HETATM   28  C   UNL     1     -45.803  58.295 -58.064  1.00  0.00     0.074 C 
HETATM   29  C   UNL     1     -43.785  55.616 -60.080  1.00  0.00     0.051 A 
HETATM   30  C   UNL     1     -45.557  58.375 -56.548  1.00  0.00     0.240 C 
ENDBRANCH  20  21
ENDBRANCH  19  20
ENDBRANCH   3  19
TORSDOF 7
ENDMDL
MODEL 3
REMARK VINA RESULT:      -7.3      1.320      2.806
REMARK  7 active torsions:
REMARK  status: ('A' for Active; 'I' for Inactive)
REMARK    1  A    between atoms: C_2  and  N_3 
REMARK    2  A    between atoms: N_3  and  C_4 
REMARK    3  A    between atoms: C_6  and  C_7 
REMARK    4  A    between atoms: C_7  and  N_8 
REMARK       I    between atoms: N_8  and  C_9 
REMARK       I    between atoms: C_9  and  N_10 
REMARK    5  A    between atoms: N_10  and  C_11 
REMARK    6  A    between atoms: C_11  and  C_12 
REMARK    7  A    between atoms: C_12  and  N_13 
ROOT
HETATM    1  N   UNL     1     -43.080  56.163 -53.843  1.00  0.00    -0.339 N 
HETATM    2  C   UNL     1     -42.705  56.758 -55.005  1.00  0.00     0.316 C 
HETATM    3  N   UNL     1     -42.739  58.123 -54.929  1.00  0.00    -0.342 N 
HETATM    4  O   UNL     1     -42.401  56.167 -56.033  1.00  0.00    -0.248 OA
HETATM    5  H   UNL     1     -43.585  56.703 -53.157  1.00  0.00     0.164 HD
HETATM    6  H   UNL     1     -42.810  58.480 -53.985  1.00  0.00     0.164 HD
ENDROOT
BRANCH   1   7
HETATM    7  C   UNL     1     -43.146  54.721 -53.702  1.00  0.00     0.162 C 
BRANCH   7   8
HETATM    8  C   UNL     1     -42.060  54.180 -52.809  1.00  0.00    -0.039 A 
HETATM    9  C   UNL     1     -41.218  53.151 -53.267  1.00  0.00     0.032 A 
HETATM   10  C   UNL     1     -40.127  52.698 -52.513  1.00  0.00     0.009 A 
HETATM   11  C   UNL     1     -39.944  53.228 -51.235  1.00  0.00     0.023 A 
HETATM   12  C   UNL     1     -40.774  54.245 -50.756  1.00  0.00     0.002 A 
HETATM   13  C   UNL     1     -41.816  54.730 -51.544  1.00  0.00     0.009 A 
BRANCH  10  14
HETATM   14  N   UNL     1     -39.362  51.649 -53.044  1.00  0.00    -0.289 NA
HETATM   15  H   UNL     1     -38.915  51.985 -53.897  1.00  0.00     0.128 HD
BRANCH  14  16
HETATM   16  C   UNL     1     -39.998  50.342 -53.279  1.00  0.00     0.052 C 
HETATM   17  C   UNL     1     -39.585  49.333 -52.205  1.00  0.00     0.026 C 
HETATM   18  C   UNL     1     -39.551  49.834 -54.652  1.00  0.00     0.026 C 
ENDBRANCH  14  16
ENDBRANCH  10  14
ENDBRANCH   7   8
ENDBRANCH   1   7
BRANCH   3  19
HETATM   19  C   UNL     1     -42.127  59.038 -55.890  1.00  0.00     0.152 C 
BRANCH  19  20
HETATM   20  C   UNL     1     -42.908  59.440 -57.160  1.00  0.00     0.255 C 
BRANCH  20  21
HETATM   21  N   UNL     1     -43.410  58.269 -57.962  1.00  0.00    -0.065 N 
HETATM   22  H   UNL     1     -43.290  57.459 -57.323  1.00  0.00     0.280 HD
HETATM   23  C   UNL     1     -44.872  58.335 -58.332  1.00  0.00     0.274 C 
HETATM   24  C   UNL     1     -45.265  57.249 -59.278  1.00  0.00    -0.019 A 
HETATM   25  C   UNL     1     -44.333  56.462 -59.925  1.00  0.00    -0.008 A 
HETATM   26  C   UNL     1     -46.594  56.888 -59.661  1.00  0.00     0.017 A 
HETATM   27  S   UNL     1     -45.033  55.307 -60.954  1.00  0.00    -0.106 SA
HETATM   28  C   UNL     1     -42.855  56.577 -59.740  1.00  0.00     0.074 C 
HETATM   29  C   UNL     1     -46.610  55.849 -60.567  1.00  0.00     0.051 A 
HETATM   30  C   UNL     1     -42.513  57.955 -59.151  1.00  0.00     0.240 C 
ENDBRANCH  20  21
ENDBRANCH  19  20
ENDBRANCH   3  19
TORSDOF 7
ENDMDL
MODEL 4
REMARK VINA RESULT:      -7.3      1.708      3.318
REMARK  7 active torsions:
REMARK  status: ('A' for Active; 'I' for Inactive)
REMARK    1  A    between atoms: C_2  and  N_3 
REMARK    2  A    between atoms: N_3  and  C_4 
REMARK    3  A    between atoms: C_6  and  C_7 
REMARK    4  A    between atoms: C_7  and  N_8 
REMARK       I    between atoms: N_8  and  C_9 
REMARK       I    between atoms: C_9  and  N_10 
REMARK    5  A    between atoms: N_10  and  C_11 
REMARK    6  A    between atoms: C_11  and  C_12 
REMARK    7  A    between atoms: C_12  and  N_13 
ROOT
HETATM    1  N   UNL     1     -42.439  58.196 -52.944  1.00  0.00    -0.339 N 
HETATM    2  C   UNL     1     -41.950  58.937 -53.972  1.00  0.00     0.316 C 
HETATM    3  N   UNL     1     -42.769  58.920 -55.067  1.00  0.00    -0.342 N 
HETATM    4  O   UNL     1     -40.880  59.535 -53.964  1.00  0.00    -0.248 OA
HETATM    5  H   UNL     1     -43.159  57.516 -53.131  1.00  0.00     0.164 HD
HETATM    6  H   UNL     1     -43.698  58.564 -54.879  1.00  0.00     0.164 HD
ENDROOT
BRANCH   1   7
HETATM    7  C   UNL     1     -41.722  58.047 -51.692  1.00  0.00     0.162 C 
BRANCH   7   8
HETATM    8  C   UNL     1     -41.519  56.602 -51.315  1.00  0.00    -0.039 A 
HETATM    9  C   UNL     1     -41.595  55.600 -52.298  1.00  0.00     0.032 A 
HETATM   10  C   UNL     1     -41.302  54.260 -52.010  1.00  0.00     0.009 A 
HETATM   11  C   UNL     1     -41.024  53.916 -50.686  1.00  0.00     0.023 A 
HETATM   12  C   UNL     1     -40.953  54.895 -49.691  1.00  0.00     0.002 A 
HETATM   13  C   UNL     1     -41.183  56.233 -50.007  1.00  0.00     0.009 A 
BRANCH  10  14
HETATM   14  N   UNL     1     -41.431  53.329 -53.051  1.00  0.00    -0.289 NA
HETATM   15  H   UNL     1     -41.852  52.483 -52.667  1.00  0.00     0.128 HD
BRANCH  14  16
HETATM   16  C   UNL     1     -40.252  52.992 -53.866  1.00  0.00     0.052 C 
HETATM   17  C   UNL     1     -40.207  53.840 -55.139  1.00  0.00     0.026 C 
HETATM   18  C   UNL     1     -40.340  51.511 -54.245  1.00  0.00     0.026 C 
ENDBRANCH  14  16
ENDBRANCH  10  14
ENDBRANCH   7   8
ENDBRANCH   1   7
BRANCH   3  19
HETATM   19  C   UNL     1     -42.677  59.831 -56.206  1.00  0.00     0.152 C 
BRANCH  19  20
HETATM   20  C   UNL     1     -42.018  59.347 -57.516  1.00  0.00     0.255 C 
BRANCH  20  21
HETATM   21  N   UNL     1     -42.741  58.202 -58.174  1.00  0.00    -0.065 N 
HETATM   22  H   UNL     1     -42.649  57.423 -57.492  1.00  0.00     0.280 HD
HETATM   23  C   UNL     1     -44.217  58.429 -58.397  1.00  0.00     0.274 C 
HETATM   24  C   UNL     1     -44.837  57.347 -59.216  1.00  0.00    -0.019 A 
HETATM   25  C   UNL     1     -44.082  56.410 -59.894  1.00  0.00    -0.008 A 
HETATM   26  C   UNL     1     -46.234  57.134 -59.434  1.00  0.00     0.017 A 
HETATM   27  S   UNL     1     -45.024  55.292 -60.758  1.00  0.00    -0.106 SA
HETATM   28  C   UNL     1     -42.590  56.348 -59.869  1.00  0.00     0.074 C 
HETATM   29  C   UNL     1     -46.473  56.052 -60.255  1.00  0.00     0.051 A 
HETATM   30  C   UNL     1     -42.023  57.705 -59.421  1.00  0.00     0.240 C 
ENDBRANCH  20  21
ENDBRANCH  19  20
ENDBRANCH   3  19
TORSDOF 7
ENDMDL
MODEL 5
REMARK VINA RESULT:      -7.2      3.375      5.771
REMARK  7 active torsions:
REMARK  status: ('A' for Active; 'I' for Inactive)
REMARK    1  A    between atoms: C_2  and  N_3 
REMARK    2  A    between atoms: N_3  and  C_4 
REMARK    3  A    between atoms: C_6  and  C_7 
REMARK    4  A    between atoms: C_7  and  N_8 
REMARK       I    between atoms: N_8  and  C_9 
REMARK       I    between atoms: C_9  and  N_10 
REMARK    5  A    between atoms: N_10  and  C_11 
REMARK    6  A    between atoms: C_11  and  C_12 
REMARK    7  A    between atoms: C_12  and  N_13 
ROOT
HETATM    1  N   UNL     1     -43.644  55.411 -55.345  1.00  0.00    -0.339 N 
HETATM    2  C   UNL     1     -43.618  56.461 -56.207  1.00  0.00     0.316 C 
HETATM    3  N   UNL     1     -44.597  57.379 -55.944  1.00  0.00    -0.342 N 
HETATM    4  O   UNL     1     -42.843  56.581 -57.148  1.00  0.00    -0.248 OA
HETATM    5  H   UNL     1     -44.475  55.247 -54.799  1.00  0.00     0.164 HD
HETATM    6  H   UNL     1     -45.032  57.265 -55.037  1.00  0.00     0.164 HD
ENDROOT
BRANCH   1   7
HETATM    7  C   UNL     1     -42.715  54.302 -55.454  1.00  0.00     0.162 C 
BRANCH   7   8
HETATM    8  C   UNL     1     -41.958  54.059 -54.174  1.00  0.00    -0.039 A 
HETATM    9  C   UNL     1     -41.060  52.982 -54.080  1.00  0.00     0.032 A 
HETATM   10  C   UNL     1     -40.254  52.787 -52.950  1.00  0.00     0.009 A 
HETATM   11  C   UNL     1     -40.433  53.640 -51.859  1.00  0.00     0.023 A 
HETATM   12  C   UNL     1     -41.328  54.712 -51.927  1.00  0.00     0.002 A 
HETATM   13  C   UNL     1     -42.074  54.930 -53.083  1.00  0.00     0.009 A 
BRANCH  10  14
HETATM   14  N   UNL     1     -39.409  51.669 -52.940  1.00  0.00    -0.289 NA
HETATM   15  H   UNL     1     -38.639  51.850 -53.584  1.00  0.00     0.128 HD
BRANCH  14  16
HETATM   16  C   UNL     1     -39.979  50.333 -53.185  1.00  0.00     0.052 C 
HETATM   17  C   UNL     1     -39.615  49.368 -52.055  1.00  0.00     0.026 C 
HETATM   18  C   UNL     1     -39.410  49.806 -54.505  1.00  0.00     0.026 C 
ENDBRANCH  14  16
ENDBRANCH  10  14
ENDBRANCH   7   8
ENDBRANCH   1   7
BRANCH   3  19
HETATM   19  C   UNL     1     -44.655  58.733 -56.490  1.00  0.00     0.152 C 
BRANCH  19  20
HETATM   20  C   UNL     1     -43.595  59.771 -56.061  1.00  0.00     0.255 C 
BRANCH  20  21
HETATM   21  N   UNL     1     -43.158  59.636 -54.626  1.00  0.00    -0.065 N 
HETATM   22  H   UNL     1     -43.749  58.866 -54.256  1.00  0.00     0.280 HD
HETATM   23  C   UNL     1     -41.717  59.226 -54.438  1.00  0.00     0.274 C 
HETATM   24  C   UNL     1     -41.293  59.291 -53.009  1.00  0.00    -0.019 A 
HETATM   25  C   UNL     1     -42.060  59.908 -52.040  1.00  0.00    -0.008 A 
HETATM   26  C   UNL     1     -40.082  58.774 -52.452  1.00  0.00     0.017 A 
HETATM   27  S   UNL     1     -41.353  59.855 -50.496  1.00  0.00    -0.106 SA
HETATM   28  C   UNL     1     -43.388  60.543 -52.290  1.00  0.00     0.074 C 
HETATM   29  C   UNL     1     -39.989  59.015 -51.097  1.00  0.00     0.051 A 
HETATM   30  C   UNL     1     -43.541  60.849 -53.789  1.00  0.00     0.240 C 
ENDBRANCH  20  21
ENDBRANCH  19  20
ENDBRANCH   3  19
TORSDOF 7
ENDMDL
MODEL 6
REMARK VINA RESULT:      -7.1      5.729      9.277
REMARK  7 active torsions:
REMARK  status: ('A' for Active; 'I' for Inactive)
REMARK    1  A    between atoms: C_2  and  N_3 
REMARK    2  A    between atoms: N_3  and  C_4 
REMARK    3  A    between atoms: C_6  and  C_7 
REMARK    4  A    between atoms: C_7  and  N_8 
REMARK       I    between atoms: N_8  and  C_9 
REMARK       I    between atoms: C_9  and  N_10 
REMARK    5  A    between atoms: N_10  and  C_11 
REMARK    6  A    between atoms: C_11  and  C_12 
REMARK    7  A    between atoms: C_12  and  N_13 
ROOT
HETATM    1  N   UNL     1     -42.501  59.571 -50.525  1.00  0.00    -0.339 N 
HETATM    2  C   UNL     1     -41.446  58.734 -50.699  1.00  0.00     0.316 C 
HETATM    3  N   UNL     1     -41.770  57.426 -50.467  1.00  0.00    -0.342 N 
HETATM    4  O   UNL     1     -40.309  59.084 -50.994  1.00  0.00    -0.248 OA
HETATM    5  H   UNL     1     -43.303  59.245 -50.009  1.00  0.00     0.164 HD
HETATM    6  H   UNL     1     -42.767  57.251 -50.430  1.00  0.00     0.164 HD
ENDROOT
BRANCH   1   7
HETATM    7  C   UNL     1     -42.381  61.007 -50.688  1.00  0.00     0.162 C 
BRANCH   7   8
HETATM    8  C   UNL     1     -43.454  61.762 -49.947  1.00  0.00    -0.039 A 
HETATM    9  C   UNL     1     -44.423  61.063 -49.206  1.00  0.00     0.032 A 
HETATM   10  C   UNL     1     -45.368  61.728 -48.413  1.00  0.00     0.009 A 
HETATM   11  C   UNL     1     -45.393  63.123 -48.448  1.00  0.00     0.023 A 
HETATM   12  C   UNL     1     -44.445  63.838 -49.185  1.00  0.00     0.002 A 
HETATM   13  C   UNL     1     -43.470  63.162 -49.917  1.00  0.00     0.009 A 
BRANCH  10  14
HETATM   14  N   UNL     1     -46.311  60.944 -47.732  1.00  0.00    -0.289 NA
HETATM   15  H   UNL     1     -47.240  61.225 -48.045  1.00  0.00     0.128 HD
BRANCH  14  16
HETATM   16  C   UNL     1     -46.264  60.878 -46.261  1.00  0.00     0.052 C 
HETATM   17  C   UNL     1     -44.824  60.982 -45.755  1.00  0.00     0.026 C 
HETATM   18  C   UNL     1     -46.860  59.537 -45.824  1.00  0.00     0.026 C 
ENDBRANCH  14  16
ENDBRANCH  10  14
ENDBRANCH   7   8
ENDBRANCH   1   7
BRANCH   3  19
HETATM   19  C   UNL     1     -40.956  56.273 -50.846  1.00  0.00     0.152 C 
BRANCH  19  20
HETATM   20  C   UNL     1     -41.227  55.560 -52.189  1.00  0.00     0.255 C 
BRANCH  20  21
HETATM   21  N   UNL     1     -40.988  54.074 -52.148  1.00  0.00    -0.065 N 
HETATM   22  H   UNL     1     -41.910  53.680 -51.876  1.00  0.00     0.280 HD
HETATM   23  C   UNL     1     -40.611  53.456 -53.473  1.00  0.00     0.274 C 
HETATM   24  C   UNL     1     -40.206  52.027 -53.335  1.00  0.00    -0.019 A 
HETATM   25  C   UNL     1     -39.959  51.446 -52.107  1.00  0.00    -0.008 A 
HETATM   26  C   UNL     1     -39.998  51.091 -54.396  1.00  0.00     0.017 A 
HETATM   27  S   UNL     1     -39.506  49.813 -52.220  1.00  0.00    -0.106 SA
HETATM   28  C   UNL     1     -40.092  52.150 -50.796  1.00  0.00     0.074 C 
HETATM   29  C   UNL     1     -39.613  49.852 -53.928  1.00  0.00     0.051 A 
HETATM   30  C   UNL     1     -40.049  53.670 -51.020  1.00  0.00     0.240 C 
ENDBRANCH  20  21
ENDBRANCH  19  20
ENDBRANCH   3  19
TORSDOF 7
ENDMDL
MODEL 7
REMARK VINA RESULT:      -7.1      3.029      8.376
REMARK  7 active torsions:
REMARK  status: ('A' for Active; 'I' for Inactive)
REMARK    1  A    between atoms: C_2  and  N_3 
REMARK    2  A    between atoms: N_3  and  C_4 
REMARK    3  A    between atoms: C_6  and  C_7 
REMARK    4  A    between atoms: C_7  and  N_8 
REMARK       I    between atoms: N_8  and  C_9 
REMARK       I    between atoms: C_9  and  N_10 
REMARK    5  A    between atoms: N_10  and  C_11 
REMARK    6  A    between atoms: C_11  and  C_12 
REMARK    7  A    between atoms: C_12  and  N_13 
ROOT
HETATM    1  N   UNL     1     -44.176  56.891 -52.209  1.00  0.00    -0.339 N 
HETATM    2  C   UNL     1     -42.911  57.074 -51.748  1.00  0.00     0.316 C 
HETATM    3  N   UNL     1     -42.697  56.455 -50.548  1.00  0.00    -0.342 N 
HETATM    4  O   UNL     1     -42.049  57.744 -52.303  1.00  0.00    -0.248 OA
HETATM    5  H   UNL     1     -44.891  56.584 -51.568  1.00  0.00     0.164 HD
HETATM    6  H   UNL     1     -43.411  55.781 -50.301  1.00  0.00     0.164 HD
ENDROOT
BRANCH   1   7
HETATM    7  C   UNL     1     -44.636  57.483 -53.451  1.00  0.00     0.162 C 
BRANCH   7   8
HETATM    8  C   UNL     1     -44.073  56.785 -54.663  1.00  0.00    -0.039 A 
HETATM    9  C   UNL     1     -43.987  57.465 -55.890  1.00  0.00     0.032 A 
HETATM   10  C   UNL     1     -43.369  56.893 -57.010  1.00  0.00     0.009 A 
HETATM   11  C   UNL     1     -42.918  55.575 -56.912  1.00  0.00     0.023 A 
HETATM   12  C   UNL     1     -43.002  54.877 -55.704  1.00  0.00     0.002 A 
HETATM   13  C   UNL     1     -43.562  55.484 -54.581  1.00  0.00     0.009 A 
BRANCH  10  14
HETATM   14  N   UNL     1     -43.356  57.639 -58.197  1.00  0.00    -0.289 NA
HETATM   15  H   UNL     1     -43.875  57.117 -58.903  1.00  0.00     0.128 HD
BRANCH  14  16
HETATM   16  C   UNL     1     -42.068  58.100 -58.744  1.00  0.00     0.052 C 
HETATM   17  C   UNL     1     -42.056  59.622 -58.902  1.00  0.00     0.026 C 
HETATM   18  C   UNL     1     -41.870  57.446 -60.114  1.00  0.00     0.026 C 
ENDBRANCH  14  16
ENDBRANCH  10  14
ENDBRANCH   7   8
ENDBRANCH   1   7
BRANCH   3  19
HETATM   19  C   UNL     1     -41.389  56.217 -49.941  1.00  0.00     0.152 C 
BRANCH  19  20
HETATM   20  C   UNL     1     -41.047  54.813 -49.397  1.00  0.00     0.255 C 
BRANCH  20  21
HETATM   21  N   UNL     1     -40.508  53.871 -50.441  1.00  0.00    -0.065 N 
HETATM   22  H   UNL     1     -39.544  54.216 -50.615  1.00  0.00     0.280 HD
HETATM   23  C   UNL     1     -40.396  52.432 -49.998  1.00  0.00     0.274 C 
HETATM   24  C   UNL     1     -40.037  51.520 -51.124  1.00  0.00    -0.019 A 
HETATM   25  C   UNL     1     -40.073  51.928 -52.443  1.00  0.00    -0.008 A 
HETATM   26  C   UNL     1     -39.644  50.149 -51.022  1.00  0.00     0.017 A 
HETATM   27  S   UNL     1     -39.630  50.704 -53.533  1.00  0.00    -0.106 SA
HETATM   28  C   UNL     1     -40.437  53.306 -52.892  1.00  0.00     0.074 C 
HETATM   29  C   UNL     1     -39.396  49.587 -52.257  1.00  0.00     0.051 A 
HETATM   30  C   UNL     1     -41.218  54.023 -51.779  1.00  0.00     0.240 C 
ENDBRANCH  20  21
ENDBRANCH  19  20
ENDBRANCH   3  19
TORSDOF 7
ENDMDL
MODEL 8
REMARK VINA RESULT:      -7.0      3.096      4.480
REMARK  7 active torsions:
REMARK  status: ('A' for Active; 'I' for Inactive)
REMARK    1  A    between atoms: C_2  and  N_3 
REMARK    2  A    between atoms: N_3  and  C_4 
REMARK    3  A    between atoms: C_6  and  C_7 
REMARK    4  A    between atoms: C_7  and  N_8 
REMARK       I    between atoms: N_8  and  C_9 
REMARK       I    between atoms: C_9  and  N_10 
REMARK    5  A    between atoms: N_10  and  C_11 
REMARK    6  A    between atoms: C_11  and  C_12 
REMARK    7  A    between atoms: C_12  and  N_13 
ROOT
HETATM    1  N   UNL     1     -42.209  55.143 -56.272  1.00  0.00    -0.339 N 
HETATM    2  C   UNL     1     -42.764  56.381 -56.193  1.00  0.00     0.316 C 
HETATM    3  N   UNL     1     -42.095  57.303 -56.950  1.00  0.00    -0.342 N 
HETATM    4  O   UNL     1     -43.730  56.678 -55.502  1.00  0.00    -0.248 OA
HETATM    5  H   UNL     1     -41.267  55.051 -56.618  1.00  0.00     0.164 HD
HETATM    6  H   UNL     1     -41.451  56.898 -57.617  1.00  0.00     0.164 HD
ENDROOT
BRANCH   1   7
HETATM    7  C   UNL     1     -42.735  54.015 -55.528  1.00  0.00     0.162 C 
BRANCH   7   8
HETATM    8  C   UNL     1     -41.832  53.603 -54.394  1.00  0.00    -0.039 A 
HETATM    9  C   UNL     1     -42.118  54.014 -53.080  1.00  0.00     0.032 A 
HETATM   10  C   UNL     1     -41.370  53.561 -51.985  1.00  0.00     0.009 A 
HETATM   11  C   UNL     1     -40.255  52.757 -52.235  1.00  0.00     0.023 A 
HETATM   12  C   UNL     1     -39.947  52.345 -53.535  1.00  0.00     0.002 A 
HETATM   13  C   UNL     1     -40.741  52.751 -54.606  1.00  0.00     0.009 A 
BRANCH  10  14
HETATM   14  N   UNL     1     -41.715  54.048 -50.716  1.00  0.00    -0.289 NA
HETATM   15  H   UNL     1     -42.613  54.526 -50.796  1.00  0.00     0.128 HD
BRANCH  14  16
HETATM   16  C   UNL     1     -40.753  54.885 -49.980  1.00  0.00     0.052 C 
HETATM   17  C   UNL     1     -40.702  54.488 -48.503  1.00  0.00     0.026 C 
HETATM   18  C   UNL     1     -41.200  56.344 -50.099  1.00  0.00     0.026 C 
ENDBRANCH  14  16
ENDBRANCH  10  14
ENDBRANCH   7   8
ENDBRANCH   1   7
BRANCH   3  19
HETATM   19  C   UNL     1     -42.598  58.628 -57.307  1.00  0.00     0.152 C 
BRANCH  19  20
HETATM   20  C   UNL     1     -41.964  59.881 -56.663  1.00  0.00     0.255 C 
BRANCH  20  21
HETATM   21  N   UNL     1     -42.461  60.167 -55.270  1.00  0.00    -0.065 N 
HETATM   22  H   UNL     1     -42.209  61.162 -55.114  1.00  0.00     0.280 HD
HETATM   23  C   UNL     1     -43.957  60.051 -55.095  1.00  0.00     0.274 C 
HETATM   24  C   UNL     1     -44.368  60.160 -53.665  1.00  0.00    -0.019 A 
HETATM   25  C   UNL     1     -43.457  60.103 -52.629  1.00  0.00    -0.008 A 
HETATM   26  C   UNL     1     -45.700  60.307 -53.167  1.00  0.00     0.017 A 
HETATM   27  S   UNL     1     -44.177  60.241 -51.098  1.00  0.00    -0.106 SA
HETATM   28  C   UNL     1     -41.980  59.961 -52.809  1.00  0.00     0.074 C 
HETATM   29  C   UNL     1     -45.737  60.362 -51.790  1.00  0.00     0.051 A 
HETATM   30  C   UNL     1     -41.681  59.403 -54.210  1.00  0.00     0.240 C 
ENDBRANCH  20  21
ENDBRANCH  19  20
ENDBRANCH   3  19
TORSDOF 7
ENDMDL
MODEL 9
REMARK VINA RESULT:      -6.8      2.948      3.862
REMARK  7 active torsions:
REMARK  status: ('A' for Active; 'I' for Inactive)
REMARK    1  A    between atoms: C_2  and  N_3 
REMARK    2  A    between atoms: N_3  and  C_4 
REMARK    3  A    between atoms: C_6  and  C_7 
REMARK    4  A    between atoms: C_7  and  N_8 
REMARK       I    between atoms: N_8  and  C_9 
REMARK       I    between atoms: C_9  and  N_10 
REMARK    5  A    between atoms: N_10  and  C_11 
REMARK    6  A    between atoms: C_11  and  C_12 
REMARK    7  A    between atoms: C_12  and  N_13 
ROOT
HETATM    1  N   UNL     1     -43.350  54.580 -55.726  1.00  0.00    -0.339 N 
HETATM    2  C   UNL     1     -43.159  55.722 -56.438  1.00  0.00     0.316 C 
HETATM    3  N   UNL     1     -43.329  55.537 -57.782  1.00  0.00    -0.342 N 
HETATM    4  O   UNL     1     -42.832  56.802 -55.962  1.00  0.00    -0.248 OA
HETATM    5  H   UNL     1     -43.326  53.695 -56.208  1.00  0.00     0.164 HD
HETATM    6  H   UNL     1     -43.786  54.665 -58.021  1.00  0.00     0.164 HD
ENDROOT
BRANCH   1   7
HETATM    7  C   UNL     1     -43.192  54.535 -54.285  1.00  0.00     0.162 C 
BRANCH   7   8
HETATM    8  C   UNL     1     -41.981  53.742 -53.865  1.00  0.00    -0.039 A 
HETATM    9  C   UNL     1     -41.395  53.966 -52.607  1.00  0.00     0.032 A 
HETATM   10  C   UNL     1     -40.339  53.176 -52.133  1.00  0.00     0.009 A 
HETATM   11  C   UNL     1     -39.806  52.207 -52.986  1.00  0.00     0.023 A 
HETATM   12  C   UNL     1     -40.368  51.974 -54.244  1.00  0.00     0.002 A 
HETATM   13  C   UNL     1     -41.460  52.726 -54.675  1.00  0.00     0.009 A 
BRANCH  10  14
HETATM   14  N   UNL     1     -39.803  53.494 -50.877  1.00  0.00    -0.289 NA
HETATM   15  H   UNL     1     -38.890  53.046 -50.801  1.00  0.00     0.128 HD
BRANCH  14  16
HETATM   16  C   UNL     1     -40.602  53.236 -49.667  1.00  0.00     0.052 C 
HETATM   17  C   UNL     1     -40.040  54.002 -48.468  1.00  0.00     0.026 C 
HETATM   18  C   UNL     1     -40.557  51.734 -49.376  1.00  0.00     0.026 C 
ENDBRANCH  14  16
ENDBRANCH  10  14
ENDBRANCH   7   8
ENDBRANCH   1   7
BRANCH   3  19
HETATM   19  C   UNL     1     -43.480  56.603 -58.769  1.00  0.00     0.152 C 
BRANCH  19  20
HETATM   20  C   UNL     1     -42.305  56.936 -59.715  1.00  0.00     0.255 C 
BRANCH  20  21
HETATM   21  N   UNL     1     -41.840  58.365 -59.627  1.00  0.00    -0.065 N 
HETATM   22  H   UNL     1     -40.815  58.286 -59.474  1.00  0.00     0.280 HD
HETATM   23  C   UNL     1     -42.043  59.175 -60.885  1.00  0.00     0.274 C 
HETATM   24  C   UNL     1     -41.739  60.622 -60.681  1.00  0.00    -0.019 A 
HETATM   25  C   UNL     1     -41.557  61.166 -59.425  1.00  0.00    -0.008 A 
HETATM   26  C   UNL     1     -41.618  61.622 -61.695  1.00  0.00     0.017 A 
HETATM   27  S   UNL     1     -41.232  62.833 -59.461  1.00  0.00    -0.106 SA
HETATM   28  C   UNL     1     -41.610  60.389 -58.150  1.00  0.00     0.074 C 
HETATM   29  C   UNL     1     -41.346  62.866 -61.168  1.00  0.00     0.051 A 
HETATM   30  C   UNL     1     -42.361  59.068 -58.382  1.00  0.00     0.240 C 
ENDBRANCH  20  21
ENDBRANCH  19  20
ENDBRANCH   3  19
TORSDOF 7
ENDMDL
MODEL 10
REMARK VINA RESULT:      -6.8      2.929      8.650
REMARK  7 active torsions:
REMARK  status: ('A' for Active; 'I' for Inactive)
REMARK    1  A    between atoms: C_2  and  N_3 
REMARK    2  A    between atoms: N_3  and  C_4 
REMARK    3  A    between atoms: C_6  and  C_7 
REMARK    4  A    between atoms: C_7  and  N_8 
REMARK       I    between atoms: N_8  and  C_9 
REMARK       I    between atoms: C_9  and  N_10 
REMARK    5  A    between atoms: N_10  and  C_11 
REMARK    6  A    between atoms: C_11  and  C_12 
REMARK    7  A    between atoms: C_12  and  N_13 
ROOT
HETATM    1  N   UNL     1     -45.336  57.490 -55.618  1.00  0.00    -0.339 N 
HETATM    2  C   UNL     1     -44.835  57.831 -54.403  1.00  0.00     0.316 C 
HETATM    3  N   UNL     1     -44.629  56.745 -53.597  1.00  0.00    -0.342 N 
HETATM    4  O   UNL     1     -44.617  58.976 -54.027  1.00  0.00    -0.248 OA
HETATM    5  H   UNL     1     -45.753  56.580 -55.737  1.00  0.00     0.164 HD
HETATM    6  H   UNL     1     -44.657  55.860 -54.087  1.00  0.00     0.164 HD
ENDROOT
BRANCH   1   7
HETATM    7  C   UNL     1     -45.661  58.483 -56.624  1.00  0.00     0.162 C 
BRANCH   7   8
HETATM    8  C   UNL     1     -44.774  58.382 -57.838  1.00  0.00    -0.039 A 
HETATM    9  C   UNL     1     -44.460  57.122 -58.378  1.00  0.00     0.032 A 
HETATM   10  C   UNL     1     -43.733  56.989 -59.569  1.00  0.00     0.009 A 
HETATM   11  C   UNL     1     -43.234  58.147 -60.170  1.00  0.00     0.023 A 
HETATM   12  C   UNL     1     -43.527  59.409 -59.645  1.00  0.00     0.002 A 
HETATM   13  C   UNL     1     -44.306  59.527 -58.495  1.00  0.00     0.009 A 
BRANCH  10  14
HETATM   14  N   UNL     1     -43.446  55.690 -60.013  1.00  0.00    -0.289 NA
HETATM   15  H   UNL     1     -42.659  55.745 -60.660  1.00  0.00     0.128 HD
BRANCH  14  16
HETATM   16  C   UNL     1     -44.527  54.871 -60.589  1.00  0.00     0.052 C 
HETATM   17  C   UNL     1     -45.802  55.698 -60.766  1.00  0.00     0.026 C 
HETATM   18  C   UNL     1     -44.804  53.708 -59.634  1.00  0.00     0.026 C 
ENDBRANCH  14  16
ENDBRANCH  10  14
ENDBRANCH   7   8
ENDBRANCH   1   7
BRANCH   3  19
HETATM   19  C   UNL     1     -43.842  56.744 -52.366  1.00  0.00     0.152 C 
BRANCH  19  20
HETATM   20  C   UNL     1     -42.304  56.621 -52.447  1.00  0.00     0.255 C 
BRANCH  20  21
HETATM   21  N   UNL     1     -41.797  55.213 -52.283  1.00  0.00    -0.065 N 
HETATM   22  H   UNL     1     -42.650  54.665 -52.058  1.00  0.00     0.280 HD
HETATM   23  C   UNL     1     -41.190  54.609 -53.526  1.00  0.00     0.274 C 
HETATM   24  C   UNL     1     -40.540  53.293 -53.256  1.00  0.00    -0.019 A 
HETATM   25  C   UNL     1     -40.303  52.838 -51.974  1.00  0.00    -0.008 A 
HETATM   26  C   UNL     1     -40.064  52.358 -54.227  1.00  0.00     0.017 A 
HETATM   27  S   UNL     1     -39.544  51.319 -51.934  1.00  0.00    -0.106 SA
HETATM   28  C   UNL     1     -40.686  53.573 -50.731  1.00  0.00     0.074 C 
HETATM   29  C   UNL     1     -39.499  51.244 -53.643  1.00  0.00     0.051 A 
HETATM   30  C   UNL     1     -40.907  55.059 -51.057  1.00  0.00     0.240 C 
ENDBRANCH  20  21
ENDBRANCH  19  20
ENDBRANCH   3  19
TORSDOF 7
ENDMDL
