MODEL 1
REMARK VINA RESULT:      -8.2      0.000      0.000
REMARK  7 active torsions:
REMARK  status: ('A' for Active; 'I' for Inactive)
REMARK    1  A    between atoms: C_6  and  C_7 
REMARK    2  A    between atoms: N_13  and  C_15 
REMARK    3  A    between atoms: C_15  and  C_16 
REMARK    4  A    between atoms: C_16  and  N_17 
REMARK       I    between atoms: N_17  and  C_18 
REMARK    5  A    between atoms: C_18  and  C_19 
REMARK    6  A    between atoms: C_19  and  N_20 
REMARK    7  A    between atoms: C_19  and  C_27 
ROOT
HETATM    1  C   UNL     1     -40.770  54.486 -55.118  1.00  0.00     0.150 C 
ENDROOT
BRANCH   1   2
HETATM    2  C   UNL     1     -41.010  54.833 -53.631  1.00  0.00     0.255 C 
BRANCH   2   3
HETATM    3  N   UNL     1     -42.447  54.603 -53.187  1.00  0.00    -0.063 N 
HETATM    4  C   UNL     1     -43.297  55.815 -52.849  1.00  0.00     0.272 C 
HETATM    5  C   UNL     1     -42.896  56.638 -51.599  1.00  0.00     0.188 C 
HETATM    6  O   UNL     1     -42.966  55.911 -50.358  1.00  0.00    -0.339 OA
HETATM    7  C   UNL     1     -42.014  54.984 -50.072  1.00  0.00     0.077 A 
HETATM    8  C   UNL     1     -41.737  53.872 -50.869  1.00  0.00     0.001 A 
HETATM    9  C   UNL     1     -41.367  55.146 -48.842  1.00  0.00     0.037 A 
HETATM   10  C   UNL     1     -40.727  52.981 -50.459  1.00  0.00     0.012 A 
HETATM   11  C   UNL     1     -42.539  53.562 -52.091  1.00  0.00     0.276 C 
HETATM   12  C   UNL     1     -40.040  53.182 -49.261  1.00  0.00     0.001 A 
HETATM   13  C   UNL     1     -40.371  54.257 -48.445  1.00  0.00     0.003 A 
HETATM   14  H   UNL     1     -42.922  54.154 -53.980  1.00  0.00     0.280 HD
BRANCH   5  15
HETATM   15  C   UNL     1     -41.721  57.585 -51.817  1.00  0.00    -0.020 A 
HETATM   16  C   UNL     1     -40.981  58.102 -50.761  1.00  0.00     0.059 A 
HETATM   17  S   UNL     1     -39.734  59.160 -51.252  1.00  0.00    -0.113 SA
HETATM   18  C   UNL     1     -40.088  58.891 -52.895  1.00  0.00     0.050 A 
HETATM   19  C   UNL     1     -41.165  58.047 -53.059  1.00  0.00     0.017 A 
ENDBRANCH   5  15
ENDBRANCH   2   3
ENDBRANCH   1   2
BRANCH   1  20
HETATM   20  N   UNL     1     -41.360  55.402 -56.102  1.00  0.00    -0.357 N 
HETATM   21  C   UNL     1     -42.683  55.318 -56.499  1.00  0.00     0.253 C 
HETATM   22  O   UNL     1     -43.371  54.342 -56.212  1.00  0.00    -0.271 OA
HETATM   23  H   UNL     1     -40.887  56.300 -56.194  1.00  0.00     0.162 HD
BRANCH  21  24
HETATM   24  C   UNL     1     -43.245  56.524 -57.327  1.00  0.00     0.314 C 
BRANCH  24  25
HETATM   25  N   UNL     1     -44.379  56.159 -58.311  1.00  0.00    -0.050 N 
HETATM   26  H   UNL     1     -45.092  55.677 -57.748  1.00  0.00     0.281 HD
HETATM   27  C   UNL     1     -45.048  57.387 -58.921  1.00  0.00     0.262 C 
HETATM   28  C   UNL     1     -46.233  56.951 -59.789  1.00  0.00     0.195 C 
HETATM   29  O   UNL     1     -45.802  56.049 -60.811  1.00  0.00    -0.388 OA
HETATM   30  C   UNL     1     -45.241  54.850 -60.264  1.00  0.00     0.195 C 
HETATM   31  C   UNL     1     -44.000  55.169 -59.419  1.00  0.00     0.262 C 
ENDBRANCH  24  25
BRANCH  24  32
HETATM   32  C   UNL     1     -43.613  57.700 -56.452  1.00  0.00    -0.001 A 
HETATM   33  C   UNL     1     -42.878  58.884 -56.456  1.00  0.00     0.126 A 
HETATM   34  N   UNL     1     -43.149  59.941 -55.669  1.00  0.00    -0.272 NA
HETATM   35  C   UNL     1     -44.196  59.839 -54.822  1.00  0.00     0.116 A 
HETATM   36  C   UNL     1     -44.986  58.708 -54.732  1.00  0.00     0.020 A 
HETATM   37  C   UNL     1     -44.689  57.624 -55.557  1.00  0.00     0.012 A 
ENDBRANCH  24  32
ENDBRANCH  21  24
ENDBRANCH   1  20
TORSDOF 7
ENDMDL
MODEL 2
REMARK VINA RESULT:      -7.9      2.371      8.548
REMARK  7 active torsions:
REMARK  status: ('A' for Active; 'I' for Inactive)
REMARK    1  A    between atoms: C_6  and  C_7 
REMARK    2  A    between atoms: N_13  and  C_15 
REMARK    3  A    between atoms: C_15  and  C_16 
REMARK    4  A    between atoms: C_16  and  N_17 
REMARK       I    between atoms: N_17  and  C_18 
REMARK    5  A    between atoms: C_18  and  C_19 
REMARK    6  A    between atoms: C_19  and  N_20 
REMARK    7  A    between atoms: C_19  and  C_27 
ROOT
HETATM    1  C   UNL     1     -42.619  55.042 -56.691  1.00  0.00     0.150 C 
ENDROOT
BRANCH   1   2
HETATM    2  C   UNL     1     -42.977  56.470 -57.158  1.00  0.00     0.255 C 
BRANCH   2   3
HETATM    3  N   UNL     1     -42.215  56.902 -58.402  1.00  0.00    -0.063 N 
HETATM    4  C   UNL     1     -41.871  58.373 -58.560  1.00  0.00     0.272 C 
HETATM    5  C   UNL     1     -43.048  59.359 -58.769  1.00  0.00     0.188 C 
HETATM    6  O   UNL     1     -43.809  59.135 -59.971  1.00  0.00    -0.339 OA
HETATM    7  C   UNL     1     -44.663  58.079 -60.034  1.00  0.00     0.077 A 
HETATM    8  C   UNL     1     -44.279  56.748 -59.861  1.00  0.00     0.001 A 
HETATM    9  C   UNL     1     -45.979  58.390 -60.394  1.00  0.00     0.037 A 
HETATM   10  C   UNL     1     -45.261  55.743 -59.956  1.00  0.00     0.012 A 
HETATM   11  C   UNL     1     -42.849  56.362 -59.667  1.00  0.00     0.276 C 
HETATM   12  C   UNL     1     -46.586  56.065 -60.253  1.00  0.00     0.001 A 
HETATM   13  C   UNL     1     -46.942  57.388 -60.486  1.00  0.00     0.003 A 
HETATM   14  H   UNL     1     -41.309  56.417 -58.365  1.00  0.00     0.280 HD
BRANCH   5  15
HETATM   15  C   UNL     1     -43.801  59.723 -57.494  1.00  0.00    -0.020 A 
HETATM   16  C   UNL     1     -43.149  59.962 -56.291  1.00  0.00     0.059 A 
HETATM   17  S   UNL     1     -44.205  60.325 -55.000  1.00  0.00    -0.113 SA
HETATM   18  C   UNL     1     -45.560  60.263 -56.027  1.00  0.00     0.050 A 
HETATM   19  C   UNL     1     -45.214  59.926 -57.318  1.00  0.00     0.017 A 
ENDBRANCH   5  15
ENDBRANCH   2   3
ENDBRANCH   1   2
BRANCH   1  20
HETATM   20  N   UNL     1     -41.647  54.942 -55.595  1.00  0.00    -0.357 N 
HETATM   21  C   UNL     1     -41.929  54.293 -54.405  1.00  0.00     0.253 C 
HETATM   22  O   UNL     1     -43.076  53.956 -54.122  1.00  0.00    -0.271 OA
HETATM   23  H   UNL     1     -40.671  55.032 -55.873  1.00  0.00     0.162 HD
BRANCH  21  24
HETATM   24  C   UNL     1     -40.716  54.018 -53.451  1.00  0.00     0.314 C 
BRANCH  24  25
HETATM   25  N   UNL     1     -40.830  54.672 -52.056  1.00  0.00    -0.050 N 
HETATM   26  H   UNL     1     -39.897  54.587 -51.632  1.00  0.00     0.281 HD
HETATM   27  C   UNL     1     -41.153  56.160 -52.128  1.00  0.00     0.262 C 
HETATM   28  C   UNL     1     -41.133  56.762 -50.718  1.00  0.00     0.195 C 
HETATM   29  O   UNL     1     -42.062  56.083 -49.870  1.00  0.00    -0.388 OA
HETATM   30  C   UNL     1     -41.735  54.696 -49.721  1.00  0.00     0.195 C 
HETATM   31  C   UNL     1     -41.786  53.979 -51.077  1.00  0.00     0.262 C 
ENDBRANCH  24  25
BRANCH  24  32
HETATM   32  C   UNL     1     -40.380  52.547 -53.360  1.00  0.00    -0.001 A 
HETATM   33  C   UNL     1     -39.780  51.994 -52.229  1.00  0.00     0.126 A 
HETATM   34  N   UNL     1     -39.432  50.699 -52.119  1.00  0.00    -0.272 NA
HETATM   35  C   UNL     1     -39.677  49.893 -53.175  1.00  0.00     0.116 A 
HETATM   36  C   UNL     1     -40.261  50.340 -54.346  1.00  0.00     0.020 A 
HETATM   37  C   UNL     1     -40.615  51.685 -54.440  1.00  0.00     0.012 A 
ENDBRANCH  24  32
ENDBRANCH  21  24
ENDBRANCH   1  20
TORSDOF 7
ENDMDL
MODEL 3
REMARK VINA RESULT:      -7.8      2.202      3.735
REMARK  7 active torsions:
REMARK  status: ('A' for Active; 'I' for Inactive)
REMARK    1  A    between atoms: C_6  and  C_7 
REMARK    2  A    between atoms: N_13  and  C_15 
REMARK    3  A    between atoms: C_15  and  C_16 
REMARK    4  A    between atoms: C_16  and  N_17 
REMARK       I    between atoms: N_17  and  C_18 
REMARK    5  A    between atoms: C_18  and  C_19 
REMARK    6  A    between atoms: C_19  and  N_20 
REMARK    7  A    between atoms: C_19  and  C_27 
ROOT
HETATM    1  C   UNL     1     -42.063  57.851 -54.950  1.00  0.00     0.150 C 
ENDROOT
BRANCH   1   2
HETATM    2  C   UNL     1     -41.863  56.452 -54.325  1.00  0.00     0.255 C 
BRANCH   2   3
HETATM    3  N   UNL     1     -43.170  55.774 -53.943  1.00  0.00    -0.063 N 
HETATM    4  C   UNL     1     -44.012  56.403 -52.847  1.00  0.00     0.272 C 
HETATM    5  C   UNL     1     -43.429  56.397 -51.411  1.00  0.00     0.188 C 
HETATM    6  O   UNL     1     -43.213  55.084 -50.859  1.00  0.00    -0.339 OA
HETATM    7  C   UNL     1     -42.168  54.336 -51.303  1.00  0.00     0.077 A 
HETATM    8  C   UNL     1     -41.982  53.960 -52.635  1.00  0.00     0.001 A 
HETATM    9  C   UNL     1     -41.308  53.856 -50.311  1.00  0.00     0.037 A 
HETATM   10  C   UNL     1     -40.860  53.178 -52.966  1.00  0.00     0.012 A 
HETATM   11  C   UNL     1     -42.984  54.292 -53.692  1.00  0.00     0.276 C 
HETATM   12  C   UNL     1     -39.968  52.754 -51.980  1.00  0.00     0.001 A 
HETATM   13  C   UNL     1     -40.200  53.081 -50.649  1.00  0.00     0.003 A 
HETATM   14  H   UNL     1     -43.761  55.799 -54.784  1.00  0.00     0.280 HD
BRANCH   5  15
HETATM   15  C   UNL     1     -42.378  57.471 -51.152  1.00  0.00    -0.020 A 
HETATM   16  C   UNL     1     -42.664  58.827 -51.258  1.00  0.00     0.059 A 
HETATM   17  S   UNL     1     -41.322  59.836 -50.947  1.00  0.00    -0.113 SA
HETATM   18  C   UNL     1     -40.340  58.496 -50.575  1.00  0.00     0.050 A 
HETATM   19  C   UNL     1     -41.014  57.304 -50.730  1.00  0.00     0.017 A 
ENDBRANCH   5  15
ENDBRANCH   2   3
ENDBRANCH   1   2
BRANCH   1  20
HETATM   20  N   UNL     1     -42.493  57.879 -56.353  1.00  0.00    -0.357 N 
HETATM   21  C   UNL     1     -43.823  57.988 -56.723  1.00  0.00     0.253 C 
HETATM   22  O   UNL     1     -44.724  57.849 -55.900  1.00  0.00    -0.271 OA
HETATM   23  H   UNL     1     -41.784  58.186 -57.017  1.00  0.00     0.162 HD
BRANCH  21  24
HETATM   24  C   UNL     1     -44.109  58.293 -58.234  1.00  0.00     0.314 C 
BRANCH  24  25
HETATM   25  N   UNL     1     -42.994  59.080 -58.956  1.00  0.00    -0.050 N 
HETATM   26  H   UNL     1     -42.120  58.578 -58.749  1.00  0.00     0.281 HD
HETATM   27  C   UNL     1     -43.159  59.080 -60.472  1.00  0.00     0.262 C 
HETATM   28  C   UNL     1     -41.958  59.775 -61.123  1.00  0.00     0.195 C 
HETATM   29  O   UNL     1     -41.821  61.109 -60.629  1.00  0.00    -0.388 OA
HETATM   30  C   UNL     1     -41.585  61.134 -59.216  1.00  0.00     0.195 C 
HETATM   31  C   UNL     1     -42.765  60.512 -58.458  1.00  0.00     0.262 C 
ENDBRANCH  24  25
BRANCH  24  32
HETATM   32  C   UNL     1     -44.516  57.056 -59.002  1.00  0.00    -0.001 A 
HETATM   33  C   UNL     1     -45.771  56.934 -59.595  1.00  0.00     0.126 A 
HETATM   34  N   UNL     1     -46.187  55.838 -60.257  1.00  0.00    -0.272 NA
HETATM   35  C   UNL     1     -45.332  54.797 -60.342  1.00  0.00     0.116 A 
HETATM   36  C   UNL     1     -44.068  54.810 -59.784  1.00  0.00     0.020 A 
HETATM   37  C   UNL     1     -43.655  55.954 -59.103  1.00  0.00     0.012 A 
ENDBRANCH  24  32
ENDBRANCH  21  24
ENDBRANCH   1  20
TORSDOF 7
ENDMDL
MODEL 4
REMARK VINA RESULT:      -7.7      1.821      2.380
REMARK  7 active torsions:
REMARK  status: ('A' for Active; 'I' for Inactive)
REMARK    1  A    between atoms: C_6  and  C_7 
REMARK    2  A    between atoms: N_13  and  C_15 
REMARK    3  A    between atoms: C_15  and  C_16 
REMARK    4  A    between atoms: C_16  and  N_17 
REMARK       I    between atoms: N_17  and  C_18 
REMARK    5  A    between atoms: C_18  and  C_19 
REMARK    6  A    between atoms: C_19  and  N_20 
REMARK    7  A    between atoms: C_19  and  C_27 
ROOT
HETATM    1  C   UNL     1     -41.545  57.326 -54.797  1.00  0.00     0.150 C 
ENDROOT
BRANCH   1   2
HETATM    2  C   UNL     1     -41.387  56.139 -53.820  1.00  0.00     0.255 C 
BRANCH   2   3
HETATM    3  N   UNL     1     -42.696  55.418 -53.537  1.00  0.00    -0.063 N 
HETATM    4  C   UNL     1     -43.774  56.162 -52.767  1.00  0.00     0.272 C 
HETATM    5  C   UNL     1     -43.480  56.503 -51.284  1.00  0.00     0.188 C 
HETATM    6  O   UNL     1     -43.290  55.357 -50.433  1.00  0.00    -0.339 OA
HETATM    7  C   UNL     1     -42.133  54.648 -50.515  1.00  0.00     0.077 A 
HETATM    8  C   UNL     1     -41.668  54.036 -51.680  1.00  0.00     0.001 A 
HETATM    9  C   UNL     1     -41.451  54.469 -49.307  1.00  0.00     0.037 A 
HETATM   10  C   UNL     1     -40.454  53.325 -51.633  1.00  0.00     0.012 A 
HETATM   11  C   UNL     1     -42.467  54.044 -52.943  1.00  0.00     0.276 C 
HETATM   12  C   UNL     1     -39.745  53.202 -50.438  1.00  0.00     0.001 A 
HETATM   13  C   UNL     1     -40.251  53.762 -49.271  1.00  0.00     0.003 A 
HETATM   14  H   UNL     1     -43.114  55.214 -54.453  1.00  0.00     0.280 HD
BRANCH   5  15
HETATM   15  C   UNL     1     -42.572  57.712 -51.082  1.00  0.00    -0.020 A 
HETATM   16  C   UNL     1     -43.008  59.011 -51.309  1.00  0.00     0.059 A 
HETATM   17  S   UNL     1     -41.805  60.193 -51.041  1.00  0.00    -0.113 SA
HETATM   18  C   UNL     1     -40.692  59.012 -50.529  1.00  0.00     0.050 A 
HETATM   19  C   UNL     1     -41.217  57.740 -50.606  1.00  0.00     0.017 A 
ENDBRANCH   5  15
ENDBRANCH   2   3
ENDBRANCH   1   2
BRANCH   1  20
HETATM   20  N   UNL     1     -41.765  56.982 -56.207  1.00  0.00    -0.357 N 
HETATM   21  C   UNL     1     -43.018  57.008 -56.795  1.00  0.00     0.253 C 
HETATM   22  O   UNL     1     -44.036  57.110 -56.115  1.00  0.00    -0.271 OA
HETATM   23  H   UNL     1     -40.950  57.087 -56.809  1.00  0.00     0.162 HD
BRANCH  21  24
HETATM   24  C   UNL     1     -43.062  56.898 -58.358  1.00  0.00     0.314 C 
BRANCH  24  25
HETATM   25  N   UNL     1     -44.369  56.303 -58.926  1.00  0.00    -0.050 N 
HETATM   26  H   UNL     1     -44.772  55.739 -58.166  1.00  0.00     0.281 HD
HETATM   27  C   UNL     1     -45.398  57.372 -59.280  1.00  0.00     0.262 C 
HETATM   28  C   UNL     1     -46.705  56.703 -59.723  1.00  0.00     0.195 C 
HETATM   29  O   UNL     1     -46.473  55.836 -60.835  1.00  0.00    -0.388 OA
HETATM   30  C   UNL     1     -45.570  54.774 -60.505  1.00  0.00     0.195 C 
HETATM   31  C   UNL     1     -44.199  55.335 -60.103  1.00  0.00     0.262 C 
ENDBRANCH  24  25
BRANCH  24  32
HETATM   32  C   UNL     1     -42.692  58.198 -59.035  1.00  0.00    -0.001 A 
HETATM   33  C   UNL     1     -42.148  58.234 -60.318  1.00  0.00     0.126 A 
HETATM   34  N   UNL     1     -41.772  59.364 -60.944  1.00  0.00    -0.272 NA
HETATM   35  C   UNL     1     -41.928  60.529 -60.280  1.00  0.00     0.116 A 
HETATM   36  C   UNL     1     -42.450  60.606 -59.002  1.00  0.00     0.020 A 
HETATM   37  C   UNL     1     -42.835  59.424 -58.371  1.00  0.00     0.012 A 
ENDBRANCH  24  32
ENDBRANCH  21  24
ENDBRANCH   1  20
TORSDOF 7
ENDMDL
MODEL 5
REMARK VINA RESULT:      -7.5      2.429      3.905
REMARK  7 active torsions:
REMARK  status: ('A' for Active; 'I' for Inactive)
REMARK    1  A    between atoms: C_6  and  C_7 
REMARK    2  A    between atoms: N_13  and  C_15 
REMARK    3  A    between atoms: C_15  and  C_16 
REMARK    4  A    between atoms: C_16  and  N_17 
REMARK       I    between atoms: N_17  and  C_18 
REMARK    5  A    between atoms: C_18  and  C_19 
REMARK    6  A    between atoms: C_19  and  N_20 
REMARK    7  A    between atoms: C_19  and  C_27 
ROOT
HETATM    1  C   UNL     1     -42.176  58.193 -55.313  1.00  0.00     0.150 C 
ENDROOT
BRANCH   1   2
HETATM    2  C   UNL     1     -42.004  56.707 -54.927  1.00  0.00     0.255 C 
BRANCH   2   3
HETATM    3  N   UNL     1     -43.324  56.005 -54.647  1.00  0.00    -0.063 N 
HETATM    4  C   UNL     1     -44.166  56.494 -53.481  1.00  0.00     0.272 C 
HETATM    5  C   UNL     1     -43.593  56.287 -52.055  1.00  0.00     0.188 C 
HETATM    6  O   UNL     1     -43.401  54.910 -51.683  1.00  0.00    -0.339 OA
HETATM    7  C   UNL     1     -42.364  54.211 -52.217  1.00  0.00     0.077 A 
HETATM    8  C   UNL     1     -42.173  54.014 -53.585  1.00  0.00     0.001 A 
HETATM    9  C   UNL     1     -41.518  53.590 -51.292  1.00  0.00     0.037 A 
HETATM   10  C   UNL     1     -41.059  53.266 -54.012  1.00  0.00     0.012 A 
HETATM   11  C   UNL     1     -43.162  54.500 -54.594  1.00  0.00     0.276 C 
HETATM   12  C   UNL     1     -40.182  52.700 -53.086  1.00  0.00     0.001 A 
HETATM   13  C   UNL     1     -40.420  52.850 -51.725  1.00  0.00     0.003 A 
HETATM   14  H   UNL     1     -43.908  56.151 -55.480  1.00  0.00     0.280 HD
BRANCH   5  15
HETATM   15  C   UNL     1     -42.530  57.301 -51.648  1.00  0.00    -0.020 A 
HETATM   16  C   UNL     1     -42.768  58.670 -51.661  1.00  0.00     0.059 A 
HETATM   17  S   UNL     1     -41.418  59.604 -51.191  1.00  0.00    -0.113 SA
HETATM   18  C   UNL     1     -40.502  58.207 -50.871  1.00  0.00     0.050 A 
HETATM   19  C   UNL     1     -41.200  57.054 -51.162  1.00  0.00     0.017 A 
ENDBRANCH   5  15
ENDBRANCH   2   3
ENDBRANCH   1   2
BRANCH   1  20
HETATM   20  N   UNL     1     -43.240  58.494 -56.279  1.00  0.00    -0.357 N 
HETATM   21  C   UNL     1     -43.028  58.496 -57.646  1.00  0.00     0.253 C 
HETATM   22  O   UNL     1     -41.892  58.459 -58.112  1.00  0.00    -0.271 OA
HETATM   23  H   UNL     1     -44.188  58.335 -55.940  1.00  0.00     0.162 HD
BRANCH  21  24
HETATM   24  C   UNL     1     -44.304  58.550 -58.555  1.00  0.00     0.314 C 
BRANCH  24  25
HETATM   25  N   UNL     1     -44.299  59.680 -59.608  1.00  0.00    -0.050 N 
HETATM   26  H   UNL     1     -45.252  59.704 -59.994  1.00  0.00     0.281 HD
HETATM   27  C   UNL     1     -44.031  61.052 -58.998  1.00  0.00     0.262 C 
HETATM   28  C   UNL     1     -44.159  62.131 -60.080  1.00  0.00     0.195 C 
HETATM   29  O   UNL     1     -43.258  61.871 -61.158  1.00  0.00    -0.388 OA
HETATM   30  C   UNL     1     -43.539  60.622 -61.800  1.00  0.00     0.195 C 
HETATM   31  C   UNL     1     -43.378  59.457 -60.814  1.00  0.00     0.262 C 
ENDBRANCH  24  25
BRANCH  24  32
HETATM   32  C   UNL     1     -44.629  57.207 -59.168  1.00  0.00    -0.001 A 
HETATM   33  C   UNL     1     -43.739  56.136 -59.117  1.00  0.00     0.126 A 
HETATM   34  N   UNL     1     -43.973  54.936 -59.679  1.00  0.00    -0.272 NA
HETATM   35  C   UNL     1     -45.140  54.769 -60.336  1.00  0.00     0.116 A 
HETATM   36  C   UNL     1     -46.090  55.768 -60.454  1.00  0.00     0.020 A 
HETATM   37  C   UNL     1     -45.829  57.004 -59.864  1.00  0.00     0.012 A 
ENDBRANCH  24  32
ENDBRANCH  21  24
ENDBRANCH   1  20
TORSDOF 7
ENDMDL
MODEL 6
REMARK VINA RESULT:      -7.4      2.303      3.242
REMARK  7 active torsions:
REMARK  status: ('A' for Active; 'I' for Inactive)
REMARK    1  A    between atoms: C_6  and  C_7 
REMARK    2  A    between atoms: N_13  and  C_15 
REMARK    3  A    between atoms: C_15  and  C_16 
REMARK    4  A    between atoms: C_16  and  N_17 
REMARK       I    between atoms: N_17  and  C_18 
REMARK    5  A    between atoms: C_18  and  C_19 
REMARK    6  A    between atoms: C_19  and  N_20 
REMARK    7  A    between atoms: C_19  and  C_27 
ROOT
HETATM    1  C   UNL     1     -42.102  58.062 -55.589  1.00  0.00     0.150 C 
ENDROOT
BRANCH   1   2
HETATM    2  C   UNL     1     -41.970  56.765 -54.759  1.00  0.00     0.255 C 
BRANCH   2   3
HETATM    3  N   UNL     1     -43.304  56.082 -54.500  1.00  0.00    -0.063 N 
HETATM    4  C   UNL     1     -44.149  56.572 -53.337  1.00  0.00     0.272 C 
HETATM    5  C   UNL     1     -43.595  56.339 -51.908  1.00  0.00     0.188 C 
HETATM    6  O   UNL     1     -43.429  54.954 -51.550  1.00  0.00    -0.339 OA
HETATM    7  C   UNL     1     -42.398  54.245 -52.082  1.00  0.00     0.077 A 
HETATM    8  C   UNL     1     -42.197  54.060 -53.451  1.00  0.00     0.001 A 
HETATM    9  C   UNL     1     -41.572  53.599 -51.156  1.00  0.00     0.037 A 
HETATM   10  C   UNL     1     -41.091  53.298 -53.875  1.00  0.00     0.012 A 
HETATM   11  C   UNL     1     -43.167  54.574 -54.464  1.00  0.00     0.276 C 
HETATM   12  C   UNL     1     -40.233  52.708 -52.947  1.00  0.00     0.001 A 
HETATM   13  C   UNL     1     -40.481  52.846 -51.587  1.00  0.00     0.003 A 
HETATM   14  H   UNL     1     -43.877  56.247 -55.337  1.00  0.00     0.280 HD
BRANCH   5  15
HETATM   15  C   UNL     1     -42.518  57.330 -51.479  1.00  0.00    -0.020 A 
HETATM   16  C   UNL     1     -42.655  58.700 -51.671  1.00  0.00     0.059 A 
HETATM   17  S   UNL     1     -41.309  59.603 -51.134  1.00  0.00    -0.113 SA
HETATM   18  C   UNL     1     -40.541  58.201 -50.549  1.00  0.00     0.050 A 
HETATM   19  C   UNL     1     -41.279  57.065 -50.802  1.00  0.00     0.017 A 
ENDBRANCH   5  15
ENDBRANCH   2   3
ENDBRANCH   1   2
BRANCH   1  20
HETATM   20  N   UNL     1     -42.078  57.904 -57.048  1.00  0.00    -0.357 N 
HETATM   21  C   UNL     1     -43.226  57.705 -57.796  1.00  0.00     0.253 C 
HETATM   22  O   UNL     1     -44.296  57.435 -57.256  1.00  0.00    -0.271 OA
HETATM   23  H   UNL     1     -41.266  58.307 -57.513  1.00  0.00     0.162 HD
BRANCH  21  24
HETATM   24  C   UNL     1     -43.083  57.840 -59.351  1.00  0.00     0.314 C 
BRANCH  24  25
HETATM   25  N   UNL     1     -44.220  57.181 -60.163  1.00  0.00    -0.050 N 
HETATM   26  H   UNL     1     -44.073  57.476 -61.137  1.00  0.00     0.281 HD
HETATM   27  C   UNL     1     -44.150  55.657 -60.145  1.00  0.00     0.262 C 
HETATM   28  C   UNL     1     -45.233  55.080 -61.064  1.00  0.00     0.195 C 
HETATM   29  O   UNL     1     -46.527  55.532 -60.661  1.00  0.00    -0.388 OA
HETATM   30  C   UNL     1     -46.645  56.957 -60.745  1.00  0.00     0.195 C 
HETATM   31  C   UNL     1     -45.639  57.641 -59.809  1.00  0.00     0.262 C 
ENDBRANCH  24  25
BRANCH  24  32
HETATM   32  C   UNL     1     -42.834  59.267 -59.783  1.00  0.00    -0.001 A 
HETATM   33  C   UNL     1     -43.379  60.352 -59.099  1.00  0.00     0.126 A 
HETATM   34  N   UNL     1     -43.211  61.635 -59.469  1.00  0.00    -0.272 NA
HETATM   35  C   UNL     1     -42.475  61.877 -60.574  1.00  0.00     0.116 A 
HETATM   36  C   UNL     1     -41.895  60.874 -61.330  1.00  0.00     0.020 A 
HETATM   37  C   UNL     1     -42.080  59.552 -60.930  1.00  0.00     0.012 A 
ENDBRANCH  24  32
ENDBRANCH  21  24
ENDBRANCH   1  20
TORSDOF 7
ENDMDL
MODEL 7
REMARK VINA RESULT:      -7.4      2.121      8.248
REMARK  7 active torsions:
REMARK  status: ('A' for Active; 'I' for Inactive)
REMARK    1  A    between atoms: C_6  and  C_7 
REMARK    2  A    between atoms: N_13  and  C_15 
REMARK    3  A    between atoms: C_15  and  C_16 
REMARK    4  A    between atoms: C_16  and  N_17 
REMARK       I    between atoms: N_17  and  C_18 
REMARK    5  A    between atoms: C_18  and  C_19 
REMARK    6  A    between atoms: C_19  and  N_20 
REMARK    7  A    between atoms: C_19  and  C_27 
ROOT
HETATM    1  C   UNL     1     -42.475  55.196 -56.398  1.00  0.00     0.150 C 
ENDROOT
BRANCH   1   2
HETATM    2  C   UNL     1     -43.218  56.202 -57.306  1.00  0.00     0.255 C 
BRANCH   2   3
HETATM    3  N   UNL     1     -42.422  56.594 -58.542  1.00  0.00    -0.063 N 
HETATM    4  C   UNL     1     -41.935  58.028 -58.658  1.00  0.00     0.272 C 
HETATM    5  C   UNL     1     -43.009  59.132 -58.829  1.00  0.00     0.188 C 
HETATM    6  O   UNL     1     -43.794  59.021 -60.031  1.00  0.00    -0.339 OA
HETATM    7  C   UNL     1     -44.749  58.057 -60.120  1.00  0.00     0.077 A 
HETATM    8  C   UNL     1     -44.498  56.690 -59.990  1.00  0.00     0.001 A 
HETATM    9  C   UNL     1     -46.028  58.508 -60.460  1.00  0.00     0.037 A 
HETATM   10  C   UNL     1     -45.575  55.791 -60.108  1.00  0.00     0.012 A 
HETATM   11  C   UNL     1     -43.112  56.159 -59.818  1.00  0.00     0.276 C 
HETATM   12  C   UNL     1     -46.862  56.251 -60.385  1.00  0.00     0.001 A 
HETATM   13  C   UNL     1     -47.087  57.609 -60.575  1.00  0.00     0.003 A 
HETATM   14  H   UNL     1     -41.569  56.021 -58.526  1.00  0.00     0.280 HD
BRANCH   5  15
HETATM   15  C   UNL     1     -43.717  59.530 -57.538  1.00  0.00    -0.020 A 
HETATM   16  C   UNL     1     -43.035  59.685 -56.337  1.00  0.00     0.059 A 
HETATM   17  S   UNL     1     -44.045  60.107 -55.026  1.00  0.00    -0.113 SA
HETATM   18  C   UNL     1     -45.410  60.182 -56.040  1.00  0.00     0.050 A 
HETATM   19  C   UNL     1     -45.105  59.846 -57.341  1.00  0.00     0.017 A 
ENDBRANCH   5  15
ENDBRANCH   2   3
ENDBRANCH   1   2
BRANCH   1  20
HETATM   20  N   UNL     1     -41.872  55.745 -55.178  1.00  0.00    -0.357 N 
HETATM   21  C   UNL     1     -42.253  55.341 -53.910  1.00  0.00     0.253 C 
HETATM   22  O   UNL     1     -43.263  54.663 -53.737  1.00  0.00    -0.271 OA
HETATM   23  H   UNL     1     -40.939  56.138 -55.296  1.00  0.00     0.162 HD
BRANCH  21  24
HETATM   24  C   UNL     1     -41.336  55.794 -52.723  1.00  0.00     0.314 C 
BRANCH  24  25
HETATM   25  N   UNL     1     -41.868  57.002 -51.921  1.00  0.00    -0.050 N 
HETATM   26  H   UNL     1     -41.966  56.671 -50.952  1.00  0.00     0.281 HD
HETATM   27  C   UNL     1     -40.887  58.170 -51.895  1.00  0.00     0.262 C 
HETATM   28  C   UNL     1     -41.430  59.279 -50.986  1.00  0.00     0.195 C 
HETATM   29  O   UNL     1     -42.718  59.709 -51.433  1.00  0.00    -0.388 OA
HETATM   30  C   UNL     1     -43.680  58.648 -51.392  1.00  0.00     0.195 C 
HETATM   31  C   UNL     1     -43.261  57.501 -52.322  1.00  0.00     0.262 C 
ENDBRANCH  24  25
BRANCH  24  32
HETATM   32  C   UNL     1     -40.952  54.642 -51.822  1.00  0.00    -0.001 A 
HETATM   33  C   UNL     1     -40.452  53.443 -52.328  1.00  0.00     0.126 A 
HETATM   34  N   UNL     1     -40.131  52.381 -51.566  1.00  0.00    -0.272 NA
HETATM   35  C   UNL     1     -40.312  52.490 -50.233  1.00  0.00     0.116 A 
HETATM   36  C   UNL     1     -40.808  53.631 -49.628  1.00  0.00     0.020 A 
HETATM   37  C   UNL     1     -41.134  54.720 -50.435  1.00  0.00     0.012 A 
ENDBRANCH  24  32
ENDBRANCH  21  24
ENDBRANCH   1  20
TORSDOF 7
ENDMDL
MODEL 8
REMARK VINA RESULT:      -7.3      4.456      7.201
REMARK  7 active torsions:
REMARK  status: ('A' for Active; 'I' for Inactive)
REMARK    1  A    between atoms: C_6  and  C_7 
REMARK    2  A    between atoms: N_13  and  C_15 
REMARK    3  A    between atoms: C_15  and  C_16 
REMARK    4  A    between atoms: C_16  and  N_17 
REMARK       I    between atoms: N_17  and  C_18 
REMARK    5  A    between atoms: C_18  and  C_19 
REMARK    6  A    between atoms: C_19  and  N_20 
REMARK    7  A    between atoms: C_19  and  C_27 
ROOT
HETATM    1  C   UNL     1     -45.120  57.441 -50.878  1.00  0.00     0.150 C 
ENDROOT
BRANCH   1   2
HETATM    2  C   UNL     1     -44.278  56.545 -51.815  1.00  0.00     0.255 C 
BRANCH   2   3
HETATM    3  N   UNL     1     -43.784  55.273 -51.143  1.00  0.00    -0.063 N 
HETATM    4  C   UNL     1     -42.573  55.365 -50.231  1.00  0.00     0.272 C 
HETATM    5  C   UNL     1     -41.213  55.711 -50.890  1.00  0.00     0.188 C 
HETATM    6  O   UNL     1     -40.750  54.741 -51.848  1.00  0.00    -0.339 OA
HETATM    7  C   UNL     1     -41.342  54.674 -53.070  1.00  0.00     0.077 A 
HETATM    8  C   UNL     1     -42.701  54.431 -53.272  1.00  0.00     0.001 A 
HETATM    9  C   UNL     1     -40.474  54.764 -54.164  1.00  0.00     0.037 A 
HETATM   10  C   UNL     1     -43.191  54.380 -54.590  1.00  0.00     0.012 A 
HETATM   11  C   UNL     1     -43.623  54.138 -52.133  1.00  0.00     0.276 C 
HETATM   12  C   UNL     1     -42.331  54.533 -55.678  1.00  0.00     0.001 A 
HETATM   13  C   UNL     1     -40.969  54.711 -55.465  1.00  0.00     0.003 A 
HETATM   14  H   UNL     1     -44.552  54.953 -50.538  1.00  0.00     0.280 HD
BRANCH   5  15
HETATM   15  C   UNL     1     -41.023  57.190 -51.208  1.00  0.00    -0.020 A 
HETATM   16  C   UNL     1     -40.941  58.157 -50.214  1.00  0.00     0.059 A 
HETATM   17  S   UNL     1     -40.756  59.744 -50.816  1.00  0.00    -0.113 SA
HETATM   18  C   UNL     1     -40.692  59.179 -52.420  1.00  0.00     0.050 A 
HETATM   19  C   UNL     1     -40.854  57.812 -52.493  1.00  0.00     0.017 A 
ENDBRANCH   5  15
ENDBRANCH   2   3
ENDBRANCH   1   2
BRANCH   1  20
HETATM   20  N   UNL     1     -44.533  58.738 -50.520  1.00  0.00    -0.357 N 
HETATM   21  C   UNL     1     -45.292  59.888 -50.387  1.00  0.00     0.253 C 
HETATM   22  O   UNL     1     -46.458  59.928 -50.772  1.00  0.00    -0.271 OA
HETATM   23  H   UNL     1     -43.646  58.688 -50.022  1.00  0.00     0.162 HD
BRANCH  21  24
HETATM   24  C   UNL     1     -44.586  61.122 -49.727  1.00  0.00     0.314 C 
BRANCH  24  25
HETATM   25  N   UNL     1     -44.343  62.313 -50.680  1.00  0.00    -0.050 N 
HETATM   26  H   UNL     1     -45.201  62.879 -50.642  1.00  0.00     0.281 HD
HETATM   27  C   UNL     1     -43.197  63.209 -50.224  1.00  0.00     0.262 C 
HETATM   28  C   UNL     1     -43.093  64.427 -51.149  1.00  0.00     0.195 C 
HETATM   29  O   UNL     1     -42.904  64.014 -52.504  1.00  0.00    -0.388 OA
HETATM   30  C   UNL     1     -44.006  63.235 -52.984  1.00  0.00     0.195 C 
HETATM   31  C   UNL     1     -44.163  61.950 -52.160  1.00  0.00     0.262 C 
ENDBRANCH  24  25
BRANCH  24  32
HETATM   32  C   UNL     1     -45.263  61.553 -48.446  1.00  0.00    -0.001 A 
HETATM   33  C   UNL     1     -46.356  62.418 -48.441  1.00  0.00     0.126 A 
HETATM   34  N   UNL     1     -46.966  62.854 -47.324  1.00  0.00    -0.272 NA
HETATM   35  C   UNL     1     -46.480  62.428 -46.139  1.00  0.00     0.116 A 
HETATM   36  C   UNL     1     -45.396  61.576 -46.029  1.00  0.00     0.020 A 
HETATM   37  C   UNL     1     -44.779  61.134 -47.198  1.00  0.00     0.012 A 
ENDBRANCH  24  32
ENDBRANCH  21  24
ENDBRANCH   1  20
TORSDOF 7
ENDMDL
MODEL 9
REMARK VINA RESULT:      -7.3      1.962      2.444
REMARK  7 active torsions:
REMARK  status: ('A' for Active; 'I' for Inactive)
REMARK    1  A    between atoms: C_6  and  C_7 
REMARK    2  A    between atoms: N_13  and  C_15 
REMARK    3  A    between atoms: C_15  and  C_16 
REMARK    4  A    between atoms: C_16  and  N_17 
REMARK       I    between atoms: N_17  and  C_18 
REMARK    5  A    between atoms: C_18  and  C_19 
REMARK    6  A    between atoms: C_19  and  N_20 
REMARK    7  A    between atoms: C_19  and  C_27 
ROOT
HETATM    1  C   UNL     1     -42.050  57.748 -54.761  1.00  0.00     0.150 C 
ENDROOT
BRANCH   1   2
HETATM    2  C   UNL     1     -41.810  56.374 -54.095  1.00  0.00     0.255 C 
BRANCH   2   3
HETATM    3  N   UNL     1     -43.095  55.685 -53.663  1.00  0.00    -0.063 N 
HETATM    4  C   UNL     1     -43.982  56.388 -52.650  1.00  0.00     0.272 C 
HETATM    5  C   UNL     1     -43.425  56.556 -51.214  1.00  0.00     0.188 C 
HETATM    6  O   UNL     1     -43.166  55.318 -50.525  1.00  0.00    -0.339 OA
HETATM    7  C   UNL     1     -42.084  54.572 -50.874  1.00  0.00     0.077 A 
HETATM    8  C   UNL     1     -41.859  54.069 -52.156  1.00  0.00     0.001 A 
HETATM    9  C   UNL     1     -41.223  54.235 -49.824  1.00  0.00     0.037 A 
HETATM   10  C   UNL     1     -40.700  53.304 -52.388  1.00  0.00     0.012 A 
HETATM   11  C   UNL     1     -42.854  54.246 -53.255  1.00  0.00     0.276 C 
HETATM   12  C   UNL     1     -39.810  53.023 -51.350  1.00  0.00     0.001 A 
HETATM   13  C   UNL     1     -40.079  53.477 -50.065  1.00  0.00     0.003 A 
HETATM   14  H   UNL     1     -43.671  55.598 -54.510  1.00  0.00     0.280 HD
BRANCH   5  15
HETATM   15  C   UNL     1     -42.424  57.695 -51.053  1.00  0.00    -0.020 A 
HETATM   16  C   UNL     1     -42.788  59.027 -51.204  1.00  0.00     0.059 A 
HETATM   17  S   UNL     1     -41.490  60.119 -51.004  1.00  0.00    -0.113 SA
HETATM   18  C   UNL     1     -40.421  58.851 -50.623  1.00  0.00     0.050 A 
HETATM   19  C   UNL     1     -41.035  57.619 -50.694  1.00  0.00     0.017 A 
ENDBRANCH   5  15
ENDBRANCH   2   3
ENDBRANCH   1   2
BRANCH   1  20
HETATM   20  N   UNL     1     -42.494  57.723 -56.160  1.00  0.00    -0.357 N 
HETATM   21  C   UNL     1     -43.827  57.615 -56.518  1.00  0.00     0.253 C 
HETATM   22  O   UNL     1     -44.684  57.317 -55.689  1.00  0.00    -0.271 OA
HETATM   23  H   UNL     1     -41.852  58.151 -56.825  1.00  0.00     0.162 HD
BRANCH  21  24
HETATM   24  C   UNL     1     -44.175  57.887 -58.021  1.00  0.00     0.314 C 
BRANCH  24  25
HETATM   25  N   UNL     1     -44.715  56.662 -58.791  1.00  0.00    -0.050 N 
HETATM   26  H   UNL     1     -45.538  56.342 -58.264  1.00  0.00     0.281 HD
HETATM   27  C   UNL     1     -45.194  57.013 -60.196  1.00  0.00     0.262 C 
HETATM   28  C   UNL     1     -45.822  55.778 -60.851  1.00  0.00     0.195 C 
HETATM   29  O   UNL     1     -44.884  54.700 -60.891  1.00  0.00    -0.388 OA
HETATM   30  C   UNL     1     -44.477  54.296 -59.578  1.00  0.00     0.195 C 
HETATM   31  C   UNL     1     -43.776  55.451 -58.850  1.00  0.00     0.262 C 
ENDBRANCH  24  25
BRANCH  24  32
HETATM   32  C   UNL     1     -45.062  59.099 -58.195  1.00  0.00    -0.001 A 
HETATM   33  C   UNL     1     -46.411  59.085 -57.845  1.00  0.00     0.126 A 
HETATM   34  N   UNL     1     -47.243  60.128 -58.014  1.00  0.00    -0.272 NA
HETATM   35  C   UNL     1     -46.735  61.252 -58.563  1.00  0.00     0.116 A 
HETATM   36  C   UNL     1     -45.413  61.371 -58.952  1.00  0.00     0.020 A 
HETATM   37  C   UNL     1     -44.567  60.279 -58.767  1.00  0.00     0.012 A 
ENDBRANCH  24  32
ENDBRANCH  21  24
ENDBRANCH   1  20
TORSDOF 7
ENDMDL
MODEL 10
REMARK VINA RESULT:      -7.3      4.650      7.362
REMARK  7 active torsions:
REMARK  status: ('A' for Active; 'I' for Inactive)
REMARK    1  A    between atoms: C_6  and  C_7 
REMARK    2  A    between atoms: N_13  and  C_15 
REMARK    3  A    between atoms: C_15  and  C_16 
REMARK    4  A    between atoms: C_16  and  N_17 
REMARK       I    between atoms: N_17  and  C_18 
REMARK    5  A    between atoms: C_18  and  C_19 
REMARK    6  A    between atoms: C_19  and  N_20 
REMARK    7  A    between atoms: C_19  and  C_27 
ROOT
HETATM    1  C   UNL     1     -44.726  57.393 -51.103  1.00  0.00     0.150 C 
ENDROOT
BRANCH   1   2
HETATM    2  C   UNL     1     -43.624  56.515 -51.737  1.00  0.00     0.255 C 
BRANCH   2   3
HETATM    3  N   UNL     1     -42.217  56.978 -51.393  1.00  0.00    -0.063 N 
HETATM    4  C   UNL     1     -41.636  58.149 -52.166  1.00  0.00     0.272 C 
HETATM    5  C   UNL     1     -41.345  57.931 -53.673  1.00  0.00     0.188 C 
HETATM    6  O   UNL     1     -40.362  56.916 -53.950  1.00  0.00    -0.339 OA
HETATM    7  C   UNL     1     -40.695  55.606 -53.810  1.00  0.00     0.077 A 
HETATM    8  C   UNL     1     -41.152  55.036 -52.621  1.00  0.00     0.001 A 
HETATM    9  C   UNL     1     -40.455  54.801 -54.928  1.00  0.00     0.037 A 
HETATM   10  C   UNL     1     -41.460  53.662 -52.603  1.00  0.00     0.012 A 
HETATM   11  C   UNL     1     -41.237  55.823 -51.354  1.00  0.00     0.276 C 
HETATM   12  C   UNL     1     -41.279  52.875 -53.741  1.00  0.00     0.001 A 
HETATM   13  C   UNL     1     -40.762  53.442 -54.900  1.00  0.00     0.003 A 
HETATM   14  H   UNL     1     -42.251  57.292 -50.415  1.00  0.00     0.280 HD
BRANCH   5  15
HETATM   15  C   UNL     1     -42.574  58.011 -54.571  1.00  0.00    -0.020 A 
HETATM   16  C   UNL     1     -43.570  58.961 -54.381  1.00  0.00     0.059 A 
HETATM   17  S   UNL     1     -44.858  58.836 -55.495  1.00  0.00    -0.113 SA
HETATM   18  C   UNL     1     -44.083  57.566 -56.321  1.00  0.00     0.050 A 
HETATM   19  C   UNL     1     -42.888  57.218 -55.728  1.00  0.00     0.017 A 
ENDBRANCH   5  15
ENDBRANCH   2   3
ENDBRANCH   1   2
BRANCH   1  20
HETATM   20  N   UNL     1     -44.316  58.732 -50.663  1.00  0.00    -0.357 N 
HETATM   21  C   UNL     1     -45.223  59.753 -50.437  1.00  0.00     0.253 C 
HETATM   22  O   UNL     1     -46.392  59.656 -50.801  1.00  0.00    -0.271 OA
HETATM   23  H   UNL     1     -43.418  58.773 -50.183  1.00  0.00     0.162 HD
BRANCH  21  24
HETATM   24  C   UNL     1     -44.678  61.026 -49.702  1.00  0.00     0.314 C 
BRANCH  24  25
HETATM   25  N   UNL     1     -44.428  62.243 -50.619  1.00  0.00    -0.050 N 
HETATM   26  H   UNL     1     -45.325  62.743 -50.670  1.00  0.00     0.281 HD
HETATM   27  C   UNL     1     -43.408  63.218 -50.040  1.00  0.00     0.262 C 
HETATM   28  C   UNL     1     -43.300  64.451 -50.943  1.00  0.00     0.195 C 
HETATM   29  O   UNL     1     -42.938  64.070 -52.272  1.00  0.00    -0.388 OA
HETATM   30  C   UNL     1     -43.920  63.217 -52.871  1.00  0.00     0.195 C 
HETATM   31  C   UNL     1     -44.065  61.914 -52.073  1.00  0.00     0.262 C 
ENDBRANCH  24  25
BRANCH  24  32
HETATM   32  C   UNL     1     -45.510  61.391 -48.494  1.00  0.00    -0.001 A 
HETATM   33  C   UNL     1     -46.649  62.188 -48.593  1.00  0.00     0.126 A 
HETATM   34  N   UNL     1     -47.397  62.565 -47.540  1.00  0.00    -0.272 NA
HETATM   35  C   UNL     1     -47.011  62.147 -46.316  1.00  0.00     0.116 A 
HETATM   36  C   UNL     1     -45.895  61.359 -46.104  1.00  0.00     0.020 A 
HETATM   37  C   UNL     1     -45.133  60.978 -47.208  1.00  0.00     0.012 A 
ENDBRANCH  24  32
ENDBRANCH  21  24
ENDBRANCH   1  20
TORSDOF 7
ENDMDL
