MODEL 1
REMARK VINA RESULT:      -8.9      0.000      0.000
REMARK  7 active torsions:
REMARK  status: ('A' for Active; 'I' for Inactive)
REMARK    1  A    between atoms: C_2  and  C_3 
REMARK    2  A    between atoms: C_3  and  C_4 
REMARK       I    between atoms: C_4  and  N_5 
REMARK    3  A    between atoms: N_5  and  C_6 
REMARK    4  A    between atoms: C_6  and  C_7 
REMARK    5  A    between atoms: C_9  and  N_10 
REMARK    6  A    between atoms: N_10  and  C_11 
REMARK    7  A    between atoms: C_27  and  N_28 
ROOT
HETATM    1  C   UNL     1     -42.091  59.007 -51.060  1.00  0.00     0.203 C 
ENDROOT
BRANCH   1   2
HETATM    2  N   UNL     1     -42.597  59.568 -52.302  1.00  0.00    -0.354 N 
HETATM    3  C   UNL     1     -41.759  59.822 -53.360  1.00  0.00     0.222 C 
HETATM    4  O   UNL     1     -40.563  59.544 -53.334  1.00  0.00    -0.273 OA
HETATM    5  H   UNL     1     -43.522  59.981 -52.261  1.00  0.00     0.162 HD
BRANCH   3   6
HETATM    6  C   UNL     1     -42.446  60.418 -54.579  1.00  0.00     0.141 C 
BRANCH   6   7
HETATM    7  C   UNL     1     -42.765  59.423 -55.670  1.00  0.00    -0.049 A 
HETATM    8  C   UNL     1     -43.791  58.488 -55.518  1.00  0.00     0.010 A 
HETATM    9  C   UNL     1     -44.127  57.614 -56.562  1.00  0.00     0.030 A 
HETATM   10  C   UNL     1     -43.459  57.657 -57.794  1.00  0.00     0.039 A 
HETATM   11  C   UNL     1     -42.424  58.589 -57.933  1.00  0.00     0.030 A 
HETATM   12  C   UNL     1     -42.081  59.460 -56.889  1.00  0.00     0.010 A 
BRANCH  10  13
HETATM   13  N   UNL     1     -43.840  56.795 -58.854  1.00  0.00    -0.298 N 
HETATM   14  C   UNL     1     -44.467  57.158 -60.061  1.00  0.00     0.323 C 
HETATM   15  O   UNL     1     -44.839  58.249 -60.459  1.00  0.00    -0.247 OA
HETATM   16  N   UNL     1     -44.644  56.000 -60.813  1.00  0.00    -0.341 N 
HETATM   17  C   UNL     1     -44.365  54.835 -60.031  1.00  0.00     0.144 C 
HETATM   18  H   UNL     1     -45.231  56.040 -61.636  1.00  0.00     0.164 HD
HETATM   19  C   UNL     1     -43.559  55.373 -58.860  1.00  0.00     0.153 C 
ENDBRANCH  10  13
ENDBRANCH   6   7
ENDBRANCH   3   6
ENDBRANCH   1   2
BRANCH   1  20
HETATM   20  C   UNL     1     -41.912  57.505 -51.131  1.00  0.00     0.146 A 
HETATM   21  N   UNL     1     -42.524  56.854 -52.139  1.00  0.00    -0.219 NA
HETATM   22  C   UNL     1     -42.395  55.518 -52.189  1.00  0.00     0.118 A 
HETATM   23  C   UNL     1     -41.620  54.812 -51.250  1.00  0.00     0.035 A 
HETATM   24  C   UNL     1     -41.029  55.589 -50.245  1.00  0.00     0.072 A 
HETATM   25  C   UNL     1     -41.402  53.411 -51.270  1.00  0.00     0.041 A 
HETATM   26  N   UNL     1     -41.180  56.913 -50.173  1.00  0.00    -0.231 NA
HETATM   27  C   UNL     1     -40.251  54.956 -49.283  1.00  0.00     0.034 A 
HETATM   28  C   UNL     1     -40.039  53.574 -49.295  1.00  0.00     0.026 A 
HETATM   29  C   UNL     1     -40.616  52.805 -50.294  1.00  0.00     0.035 A 
HETATM   30 CL   UNL     1     -40.360  51.106 -50.329  1.00  0.00    -0.084 Cl
BRANCH  22  31
HETATM   31  N   UNL     1     -43.050  54.801 -53.216  1.00  0.00    -0.272 NA
HETATM   32  H   UNL     1     -43.950  55.249 -53.374  1.00  0.00     0.129 HD
BRANCH  31  33
HETATM   33  C   UNL     1     -42.307  54.628 -54.464  1.00  0.00     0.061 C 
HETATM   34  C   UNL     1     -40.994  55.422 -54.442  1.00  0.00     0.020 C 
HETATM   35  C   UNL     1     -40.010  54.549 -55.203  1.00  0.00     0.002 C 
HETATM   36  C   UNL     1     -40.358  53.153 -54.720  1.00  0.00     0.002 C 
HETATM   37  C   UNL     1     -41.881  53.155 -54.629  1.00  0.00     0.020 C 
ENDBRANCH  31  33
ENDBRANCH  22  31
ENDBRANCH   1  20
TORSDOF 7
ENDMDL
MODEL 2
REMARK VINA RESULT:      -8.9      4.089      7.459
REMARK  7 active torsions:
REMARK  status: ('A' for Active; 'I' for Inactive)
REMARK    1  A    between atoms: C_2  and  C_3 
REMARK    2  A    between atoms: C_3  and  C_4 
REMARK       I    between atoms: C_4  and  N_5 
REMARK    3  A    between atoms: N_5  and  C_6 
REMARK    4  A    between atoms: C_6  and  C_7 
REMARK    5  A    between atoms: C_9  and  N_10 
REMARK    6  A    between atoms: N_10  and  C_11 
REMARK    7  A    between atoms: C_27  and  N_28 
ROOT
HETATM    1  C   UNL     1     -41.485  56.989 -50.658  1.00  0.00     0.203 C 
ENDROOT
BRANCH   1   2
HETATM    2  N   UNL     1     -42.515  57.873 -51.178  1.00  0.00    -0.354 N 
HETATM    3  C   UNL     1     -42.217  59.152 -51.580  1.00  0.00     0.222 C 
HETATM    4  O   UNL     1     -41.071  59.594 -51.573  1.00  0.00    -0.273 OA
HETATM    5  H   UNL     1     -43.474  57.595 -51.000  1.00  0.00     0.162 HD
BRANCH   3   6
HETATM    6  C   UNL     1     -43.410  59.947 -52.088  1.00  0.00     0.141 C 
BRANCH   6   7
HETATM    7  C   UNL     1     -44.178  60.682 -51.015  1.00  0.00    -0.049 A 
HETATM    8  C   UNL     1     -45.497  61.093 -51.224  1.00  0.00     0.010 A 
HETATM    9  C   UNL     1     -46.227  61.712 -50.199  1.00  0.00     0.030 A 
HETATM   10  C   UNL     1     -45.668  61.926 -48.931  1.00  0.00     0.039 A 
HETATM   11  C   UNL     1     -44.343  61.521 -48.735  1.00  0.00     0.030 A 
HETATM   12  C   UNL     1     -43.608  60.907 -49.759  1.00  0.00     0.010 A 
BRANCH  10  13
HETATM   13  N   UNL     1     -46.435  62.515 -47.892  1.00  0.00    -0.298 N 
HETATM   14  C   UNL     1     -47.017  61.861 -46.791  1.00  0.00     0.323 C 
HETATM   15  O   UNL     1     -47.023  60.679 -46.487  1.00  0.00    -0.247 OA
HETATM   16  N   UNL     1     -47.664  62.822 -46.019  1.00  0.00    -0.341 N 
HETATM   17  C   UNL     1     -47.731  64.072 -46.711  1.00  0.00     0.144 C 
HETATM   18  H   UNL     1     -48.282  62.516 -45.279  1.00  0.00     0.164 HD
HETATM   19  C   UNL     1     -46.671  63.941 -47.793  1.00  0.00     0.153 C 
ENDBRANCH  10  13
ENDBRANCH   6   7
ENDBRANCH   3   6
ENDBRANCH   1   2
BRANCH   1  20
HETATM   20  C   UNL     1     -41.149  55.863 -51.614  1.00  0.00     0.146 A 
HETATM   21  N   UNL     1     -41.265  56.114 -52.933  1.00  0.00    -0.219 NA
HETATM   22  C   UNL     1     -40.999  55.109 -53.785  1.00  0.00     0.118 A 
HETATM   23  C   UNL     1     -40.576  53.847 -53.333  1.00  0.00     0.035 A 
HETATM   24  C   UNL     1     -40.490  53.697 -51.942  1.00  0.00     0.072 A 
HETATM   25  C   UNL     1     -40.233  52.758 -54.175  1.00  0.00     0.041 A 
HETATM   26  N   UNL     1     -40.783  54.681 -51.091  1.00  0.00    -0.231 NA
HETATM   27  C   UNL     1     -40.080  52.473 -51.426  1.00  0.00     0.034 A 
HETATM   28  C   UNL     1     -39.747  51.396 -52.252  1.00  0.00     0.026 A 
HETATM   29  C   UNL     1     -39.824  51.545 -53.630  1.00  0.00     0.035 A 
HETATM   30 CL   UNL     1     -39.412  50.234 -54.661  1.00  0.00    -0.084 Cl
BRANCH  22  31
HETATM   31  N   UNL     1     -41.141  55.330 -55.173  1.00  0.00    -0.272 NA
HETATM   32  H   UNL     1     -40.890  54.465 -55.647  1.00  0.00     0.129 HD
BRANCH  31  33
HETATM   33  C   UNL     1     -42.438  55.835 -55.622  1.00  0.00     0.061 C 
HETATM   34  C   UNL     1     -42.309  57.243 -56.218  1.00  0.00     0.020 C 
HETATM   35  C   UNL     1     -43.318  57.269 -57.354  1.00  0.00     0.002 C 
HETATM   36  C   UNL     1     -43.164  55.890 -57.969  1.00  0.00     0.002 C 
HETATM   37  C   UNL     1     -42.980  54.962 -56.772  1.00  0.00     0.020 C 
ENDBRANCH  31  33
ENDBRANCH  22  31
ENDBRANCH   1  20
TORSDOF 7
ENDMDL
MODEL 3
REMARK VINA RESULT:      -8.6      2.444      3.625
REMARK  7 active torsions:
REMARK  status: ('A' for Active; 'I' for Inactive)
REMARK    1  A    between atoms: C_2  and  C_3 
REMARK    2  A    between atoms: C_3  and  C_4 
REMARK       I    between atoms: C_4  and  N_5 
REMARK    3  A    between atoms: N_5  and  C_6 
REMARK    4  A    between atoms: C_6  and  C_7 
REMARK    5  A    between atoms: C_9  and  N_10 
REMARK    6  A    between atoms: N_10  and  C_11 
REMARK    7  A    between atoms: C_27  and  N_28 
ROOT
HETATM    1  C   UNL     1     -41.274  56.521 -50.248  1.00  0.00     0.203 C 
ENDROOT
BRANCH   1   2
HETATM    2  N   UNL     1     -42.169  57.549 -50.751  1.00  0.00    -0.354 N 
HETATM    3  C   UNL     1     -41.744  58.845 -50.911  1.00  0.00     0.222 C 
HETATM    4  O   UNL     1     -40.586  59.190 -50.692  1.00  0.00    -0.273 OA
HETATM    5  H   UNL     1     -43.158  57.325 -50.739  1.00  0.00     0.162 HD
BRANCH   3   6
HETATM    6  C   UNL     1     -42.808  59.797 -51.437  1.00  0.00     0.141 C 
BRANCH   6   7
HETATM    7  C   UNL     1     -42.865  59.907 -52.942  1.00  0.00    -0.049 A 
HETATM    8  C   UNL     1     -43.997  60.410 -53.588  1.00  0.00     0.010 A 
HETATM    9  C   UNL     1     -44.017  60.575 -54.979  1.00  0.00     0.030 A 
HETATM   10  C   UNL     1     -42.902  60.257 -55.768  1.00  0.00     0.039 A 
HETATM   11  C   UNL     1     -41.776  59.742 -55.114  1.00  0.00     0.030 A 
HETATM   12  C   UNL     1     -41.756  59.571 -53.723  1.00  0.00     0.010 A 
BRANCH  10  13
HETATM   13  N   UNL     1     -42.923  60.470 -57.171  1.00  0.00    -0.298 N 
HETATM   14  C   UNL     1     -41.850  60.881 -57.984  1.00  0.00     0.323 C 
HETATM   15  O   UNL     1     -40.700  61.163 -57.690  1.00  0.00    -0.247 OA
HETATM   16  N   UNL     1     -42.313  60.948 -59.295  1.00  0.00    -0.341 N 
HETATM   17  C   UNL     1     -43.737  60.823 -59.342  1.00  0.00     0.144 C 
HETATM   18  H   UNL     1     -41.730  61.389 -59.994  1.00  0.00     0.164 HD
HETATM   19  C   UNL     1     -44.089  60.216 -57.993  1.00  0.00     0.153 C 
ENDBRANCH  10  13
ENDBRANCH   6   7
ENDBRANCH   3   6
ENDBRANCH   1   2
BRANCH   1  20
HETATM   20  C   UNL     1     -41.006  55.434 -51.268  1.00  0.00     0.146 A 
HETATM   21  N   UNL     1     -41.220  55.733 -52.565  1.00  0.00    -0.219 NA
HETATM   22  C   UNL     1     -41.015  54.763 -53.471  1.00  0.00     0.118 A 
HETATM   23  C   UNL     1     -40.557  53.486 -53.099  1.00  0.00     0.035 A 
HETATM   24  C   UNL     1     -40.368  53.285 -51.726  1.00  0.00     0.072 A 
HETATM   25  C   UNL     1     -40.274  52.432 -54.006  1.00  0.00     0.041 A 
HETATM   26  N   UNL     1     -40.600  54.235 -50.818  1.00  0.00    -0.231 NA
HETATM   27  C   UNL     1     -39.917  52.045 -51.288  1.00  0.00     0.034 A 
HETATM   28  C   UNL     1     -39.644  51.001 -52.177  1.00  0.00     0.026 A 
HETATM   29  C   UNL     1     -39.823  51.201 -53.538  1.00  0.00     0.035 A 
HETATM   30 CL   UNL     1     -39.485  49.932 -54.646  1.00  0.00    -0.084 Cl
BRANCH  22  31
HETATM   31  N   UNL     1     -41.260  55.035 -54.836  1.00  0.00    -0.272 NA
HETATM   32  H   UNL     1     -40.781  54.321 -55.380  1.00  0.00     0.129 HD
BRANCH  31  33
HETATM   33  C   UNL     1     -42.662  55.165 -55.232  1.00  0.00     0.061 C 
HETATM   34  C   UNL     1     -43.316  56.381 -54.562  1.00  0.00     0.020 C 
HETATM   35  C   UNL     1     -44.277  56.919 -55.609  1.00  0.00     0.002 C 
HETATM   36  C   UNL     1     -43.486  56.774 -56.896  1.00  0.00     0.002 C 
HETATM   37  C   UNL     1     -42.764  55.439 -56.746  1.00  0.00     0.020 C 
ENDBRANCH  31  33
ENDBRANCH  22  31
ENDBRANCH   1  20
TORSDOF 7
ENDMDL
MODEL 4
REMARK VINA RESULT:      -8.5      3.673      6.821
REMARK  7 active torsions:
REMARK  status: ('A' for Active; 'I' for Inactive)
REMARK    1  A    between atoms: C_2  and  C_3 
REMARK    2  A    between atoms: C_3  and  C_4 
REMARK       I    between atoms: C_4  and  N_5 
REMARK    3  A    between atoms: N_5  and  C_6 
REMARK    4  A    between atoms: C_6  and  C_7 
REMARK    5  A    between atoms: C_9  and  N_10 
REMARK    6  A    between atoms: N_10  and  C_11 
REMARK    7  A    between atoms: C_27  and  N_28 
ROOT
HETATM    1  C   UNL     1     -44.959  59.156 -55.325  1.00  0.00     0.203 C 
ENDROOT
BRANCH   1   2
HETATM    2  N   UNL     1     -44.612  57.832 -55.814  1.00  0.00    -0.354 N 
HETATM    3  C   UNL     1     -43.310  57.497 -56.094  1.00  0.00     0.222 C 
HETATM    4  O   UNL     1     -42.375  58.268 -55.899  1.00  0.00    -0.273 OA
HETATM    5  H   UNL     1     -45.380  57.271 -56.164  1.00  0.00     0.162 HD
BRANCH   3   6
HETATM    6  C   UNL     1     -43.121  56.077 -56.606  1.00  0.00     0.141 C 
BRANCH   6   7
HETATM    7  C   UNL     1     -42.403  55.154 -55.650  1.00  0.00    -0.049 A 
HETATM    8  C   UNL     1     -43.108  54.372 -54.733  1.00  0.00     0.010 A 
HETATM    9  C   UNL     1     -42.440  53.466 -53.898  1.00  0.00     0.030 A 
HETATM   10  C   UNL     1     -41.048  53.303 -53.962  1.00  0.00     0.039 A 
HETATM   11  C   UNL     1     -40.349  54.100 -54.875  1.00  0.00     0.030 A 
HETATM   12  C   UNL     1     -41.014  55.011 -55.709  1.00  0.00     0.010 A 
BRANCH  10  13
HETATM   13  N   UNL     1     -40.393  52.351 -53.139  1.00  0.00    -0.298 N 
HETATM   14  C   UNL     1     -39.977  51.056 -53.503  1.00  0.00     0.323 C 
HETATM   15  O   UNL     1     -40.096  50.457 -54.559  1.00  0.00    -0.247 OA
HETATM   16  N   UNL     1     -39.366  50.479 -52.394  1.00  0.00    -0.341 N 
HETATM   17  C   UNL     1     -39.580  51.272 -51.222  1.00  0.00     0.144 C 
HETATM   18  H   UNL     1     -39.158  49.489 -52.414  1.00  0.00     0.164 HD
HETATM   19  C   UNL     1     -39.987  52.628 -51.775  1.00  0.00     0.153 C 
ENDBRANCH  10  13
ENDBRANCH   6   7
ENDBRANCH   3   6
ENDBRANCH   1   2
BRANCH   1  20
HETATM   20  C   UNL     1     -45.066  59.209 -53.815  1.00  0.00     0.146 A 
HETATM   21  N   UNL     1     -44.846  58.065 -53.137  1.00  0.00    -0.219 NA
HETATM   22  C   UNL     1     -44.970  58.099 -51.800  1.00  0.00     0.118 A 
HETATM   23  C   UNL     1     -45.281  59.287 -51.114  1.00  0.00     0.035 A 
HETATM   24  C   UNL     1     -45.489  60.415 -51.918  1.00  0.00     0.072 A 
HETATM   25  C   UNL     1     -45.381  59.405 -49.704  1.00  0.00     0.041 A 
HETATM   26  N   UNL     1     -45.398  60.381 -53.249  1.00  0.00    -0.231 NA
HETATM   27  C   UNL     1     -45.801  61.624 -51.305  1.00  0.00     0.034 A 
HETATM   28  C   UNL     1     -45.908  61.743 -49.917  1.00  0.00     0.026 A 
HETATM   29  C   UNL     1     -45.694  60.628 -49.118  1.00  0.00     0.035 A 
HETATM   30 CL   UNL     1     -45.813  60.758 -47.409  1.00  0.00    -0.084 Cl
BRANCH  22  31
HETATM   31  N   UNL     1     -44.777  56.910 -51.062  1.00  0.00    -0.272 NA
HETATM   32  H   UNL     1     -45.643  56.378 -51.108  1.00  0.00     0.129 HD
BRANCH  31  33
HETATM   33  C   UNL     1     -43.622  56.094 -51.434  1.00  0.00     0.061 C 
HETATM   34  C   UNL     1     -42.308  56.776 -51.031  1.00  0.00     0.020 C 
HETATM   35  C   UNL     1     -41.398  55.632 -50.618  1.00  0.00     0.002 C 
HETATM   36  C   UNL     1     -42.338  54.714 -49.858  1.00  0.00     0.002 C 
HETATM   37  C   UNL     1     -43.637  54.763 -50.655  1.00  0.00     0.020 C 
ENDBRANCH  31  33
ENDBRANCH  22  31
ENDBRANCH   1  20
TORSDOF 7
ENDMDL
MODEL 5
REMARK VINA RESULT:      -8.5      3.108      7.693
REMARK  7 active torsions:
REMARK  status: ('A' for Active; 'I' for Inactive)
REMARK    1  A    between atoms: C_2  and  C_3 
REMARK    2  A    between atoms: C_3  and  C_4 
REMARK       I    between atoms: C_4  and  N_5 
REMARK    3  A    between atoms: N_5  and  C_6 
REMARK    4  A    between atoms: C_6  and  C_7 
REMARK    5  A    between atoms: C_9  and  N_10 
REMARK    6  A    between atoms: N_10  and  C_11 
REMARK    7  A    between atoms: C_27  and  N_28 
ROOT
HETATM    1  C   UNL     1     -44.056  60.315 -55.417  1.00  0.00     0.203 C 
ENDROOT
BRANCH   1   2
HETATM    2  N   UNL     1     -43.047  60.209 -54.376  1.00  0.00    -0.354 N 
HETATM    3  C   UNL     1     -43.376  60.345 -53.050  1.00  0.00     0.222 C 
HETATM    4  O   UNL     1     -44.533  60.509 -52.673  1.00  0.00    -0.273 OA
HETATM    5  H   UNL     1     -42.082  60.278 -54.681  1.00  0.00     0.162 HD
BRANCH   3   6
HETATM    6  C   UNL     1     -42.202  60.217 -52.092  1.00  0.00     0.141 C 
BRANCH   6   7
HETATM    7  C   UNL     1     -41.943  58.813 -51.599  1.00  0.00    -0.049 A 
HETATM    8  C   UNL     1     -42.458  57.703 -52.274  1.00  0.00     0.010 A 
HETATM    9  C   UNL     1     -42.155  56.401 -51.851  1.00  0.00     0.030 A 
HETATM   10  C   UNL     1     -41.318  56.166 -50.751  1.00  0.00     0.039 A 
HETATM   11  C   UNL     1     -40.816  57.284 -50.074  1.00  0.00     0.030 A 
HETATM   12  C   UNL     1     -41.121  58.588 -50.491  1.00  0.00     0.010 A 
BRANCH  10  13
HETATM   13  N   UNL     1     -40.987  54.843 -50.363  1.00  0.00    -0.298 N 
HETATM   14  C   UNL     1     -40.857  54.349 -49.051  1.00  0.00     0.323 C 
HETATM   15  O   UNL     1     -40.968  54.920 -47.979  1.00  0.00    -0.247 OA
HETATM   16  N   UNL     1     -40.537  52.997 -49.135  1.00  0.00    -0.341 N 
HETATM   17  C   UNL     1     -40.214  52.631 -50.480  1.00  0.00     0.144 C 
HETATM   18  H   UNL     1     -40.238  52.515 -48.298  1.00  0.00     0.164 HD
HETATM   19  C   UNL     1     -40.798  53.762 -51.311  1.00  0.00     0.153 C 
ENDBRANCH  10  13
ENDBRANCH   6   7
ENDBRANCH   3   6
ENDBRANCH   1   2
BRANCH   1  20
HETATM   20  C   UNL     1     -44.026  59.145 -56.377  1.00  0.00     0.146 A 
HETATM   21  N   UNL     1     -43.110  58.182 -56.153  1.00  0.00    -0.219 NA
HETATM   22  C   UNL     1     -43.059  57.157 -57.020  1.00  0.00     0.118 A 
HETATM   23  C   UNL     1     -43.947  57.058 -58.105  1.00  0.00     0.035 A 
HETATM   24  C   UNL     1     -44.858  58.114 -58.243  1.00  0.00     0.072 A 
HETATM   25  C   UNL     1     -43.981  55.982 -59.030  1.00  0.00     0.041 A 
HETATM   26  N   UNL     1     -44.893  59.150 -57.403  1.00  0.00    -0.231 NA
HETATM   27  C   UNL     1     -45.765  58.082 -59.295  1.00  0.00     0.034 A 
HETATM   28  C   UNL     1     -45.796  57.027 -60.212  1.00  0.00     0.026 A 
HETATM   29  C   UNL     1     -44.901  55.976 -60.073  1.00  0.00     0.035 A 
HETATM   30 CL   UNL     1     -44.931  54.668 -61.187  1.00  0.00    -0.084 Cl
BRANCH  22  31
HETATM   31  N   UNL     1     -42.089  56.146 -56.832  1.00  0.00    -0.272 NA
HETATM   32  H   UNL     1     -41.186  56.537 -57.094  1.00  0.00     0.129 HD
BRANCH  31  33
HETATM   33  C   UNL     1     -42.044  55.526 -55.508  1.00  0.00     0.061 C 
HETATM   34  C   UNL     1     -42.821  54.203 -55.490  1.00  0.00     0.020 C 
HETATM   35  C   UNL     1     -42.027  53.309 -54.552  1.00  0.00     0.002 C 
HETATM   36  C   UNL     1     -40.590  53.636 -54.915  1.00  0.00     0.002 C 
HETATM   37  C   UNL     1     -40.594  55.143 -55.149  1.00  0.00     0.020 C 
ENDBRANCH  31  33
ENDBRANCH  22  31
ENDBRANCH   1  20
TORSDOF 7
ENDMDL
MODEL 6
REMARK VINA RESULT:      -8.3      3.287      7.135
REMARK  7 active torsions:
REMARK  status: ('A' for Active; 'I' for Inactive)
REMARK    1  A    between atoms: C_2  and  C_3 
REMARK    2  A    between atoms: C_3  and  C_4 
REMARK       I    between atoms: C_4  and  N_5 
REMARK    3  A    between atoms: N_5  and  C_6 
REMARK    4  A    between atoms: C_6  and  C_7 
REMARK    5  A    between atoms: C_9  and  N_10 
REMARK    6  A    between atoms: N_10  and  C_11 
REMARK    7  A    between atoms: C_27  and  N_28 
ROOT
HETATM    1  C   UNL     1     -42.270  59.555 -57.027  1.00  0.00     0.203 C 
ENDROOT
BRANCH   1   2
HETATM    2  N   UNL     1     -42.151  58.117 -57.207  1.00  0.00    -0.354 N 
HETATM    3  C   UNL     1     -43.208  57.279 -56.950  1.00  0.00     0.222 C 
HETATM    4  O   UNL     1     -44.312  57.697 -56.610  1.00  0.00    -0.273 OA
HETATM    5  H   UNL     1     -41.208  57.754 -57.286  1.00  0.00     0.162 HD
BRANCH   3   6
HETATM    6  C   UNL     1     -42.913  55.804 -57.178  1.00  0.00     0.141 C 
BRANCH   6   7
HETATM    7  C   UNL     1     -42.335  55.086 -55.981  1.00  0.00    -0.049 A 
HETATM    8  C   UNL     1     -43.018  54.031 -55.372  1.00  0.00     0.010 A 
HETATM    9  C   UNL     1     -42.444  53.323 -54.307  1.00  0.00     0.030 A 
HETATM   10  C   UNL     1     -41.166  53.639 -53.825  1.00  0.00     0.039 A 
HETATM   11  C   UNL     1     -40.494  54.706 -54.433  1.00  0.00     0.030 A 
HETATM   12  C   UNL     1     -41.067  55.419 -55.495  1.00  0.00     0.010 A 
BRANCH  10  13
HETATM   13  N   UNL     1     -40.582  52.886 -52.774  1.00  0.00    -0.298 N 
HETATM   14  C   UNL     1     -39.814  51.712 -52.894  1.00  0.00     0.323 C 
HETATM   15  O   UNL     1     -39.498  51.075 -53.885  1.00  0.00    -0.247 OA
HETATM   16  N   UNL     1     -39.434  51.320 -51.614  1.00  0.00    -0.341 N 
HETATM   17  C   UNL     1     -40.135  52.073 -50.619  1.00  0.00     0.144 C 
HETATM   18  H   UNL     1     -39.022  50.405 -51.488  1.00  0.00     0.164 HD
HETATM   19  C   UNL     1     -40.649  53.284 -51.381  1.00  0.00     0.153 C 
ENDBRANCH  10  13
ENDBRANCH   6   7
ENDBRANCH   3   6
ENDBRANCH   1   2
BRANCH   1  20
HETATM   20  C   UNL     1     -42.405  59.950 -55.572  1.00  0.00     0.146 A 
HETATM   21  N   UNL     1     -41.471  59.490 -54.715  1.00  0.00    -0.219 NA
HETATM   22  C   UNL     1     -41.604  59.811 -53.418  1.00  0.00     0.118 A 
HETATM   23  C   UNL     1     -42.652  60.628 -52.959  1.00  0.00     0.035 A 
HETATM   24  C   UNL     1     -43.565  61.049 -53.935  1.00  0.00     0.072 A 
HETATM   25  C   UNL     1     -42.825  61.045 -51.614  1.00  0.00     0.041 A 
HETATM   26  N   UNL     1     -43.456  60.708 -55.220  1.00  0.00    -0.231 NA
HETATM   27  C   UNL     1     -44.628  61.859 -53.551  1.00  0.00     0.034 A 
HETATM   28  C   UNL     1     -44.806  62.266 -52.226  1.00  0.00     0.026 A 
HETATM   29  C   UNL     1     -43.899  61.857 -51.259  1.00  0.00     0.035 A 
HETATM   30 CL   UNL     1     -44.098  62.354 -49.626  1.00  0.00    -0.084 Cl
BRANCH  22  31
HETATM   31  N   UNL     1     -40.659  59.319 -52.489  1.00  0.00    -0.272 NA
HETATM   32  H   UNL     1     -40.692  59.924 -51.671  1.00  0.00     0.129 HD
BRANCH  31  33
HETATM   33  C   UNL     1     -40.781  57.909 -52.122  1.00  0.00     0.061 C 
HETATM   34  C   UNL     1     -40.689  57.722 -50.602  1.00  0.00     0.020 C 
HETATM   35  C   UNL     1     -41.650  56.584 -50.301  1.00  0.00     0.002 C 
HETATM   36  C   UNL     1     -42.823  56.886 -51.216  1.00  0.00     0.002 C 
HETATM   37  C   UNL     1     -42.176  57.377 -52.507  1.00  0.00     0.020 C 
ENDBRANCH  31  33
ENDBRANCH  22  31
ENDBRANCH   1  20
TORSDOF 7
ENDMDL
MODEL 7
REMARK VINA RESULT:      -8.2      2.657      6.393
REMARK  7 active torsions:
REMARK  status: ('A' for Active; 'I' for Inactive)
REMARK    1  A    between atoms: C_2  and  C_3 
REMARK    2  A    between atoms: C_3  and  C_4 
REMARK       I    between atoms: C_4  and  N_5 
REMARK    3  A    between atoms: N_5  and  C_6 
REMARK    4  A    between atoms: C_6  and  C_7 
REMARK    5  A    between atoms: C_9  and  N_10 
REMARK    6  A    between atoms: N_10  and  C_11 
REMARK    7  A    between atoms: C_27  and  N_28 
ROOT
HETATM    1  C   UNL     1     -42.466  56.878 -56.703  1.00  0.00     0.203 C 
ENDROOT
BRANCH   1   2
HETATM    2  N   UNL     1     -42.751  58.268 -56.391  1.00  0.00    -0.354 N 
HETATM    3  C   UNL     1     -43.977  58.822 -56.668  1.00  0.00     0.222 C 
HETATM    4  O   UNL     1     -44.903  58.168 -57.139  1.00  0.00    -0.273 OA
HETATM    5  H   UNL     1     -41.947  58.856 -56.197  1.00  0.00     0.162 HD
BRANCH   3   6
HETATM    6  C   UNL     1     -44.105  60.290 -56.289  1.00  0.00     0.141 C 
BRANCH   6   7
HETATM    7  C   UNL     1     -44.283  60.544 -54.811  1.00  0.00    -0.049 A 
HETATM    8  C   UNL     1     -45.485  60.246 -54.165  1.00  0.00     0.010 A 
HETATM    9  C   UNL     1     -45.619  60.418 -52.780  1.00  0.00     0.030 A 
HETATM   10  C   UNL     1     -44.553  60.881 -51.995  1.00  0.00     0.039 A 
HETATM   11  C   UNL     1     -43.356  61.188 -52.652  1.00  0.00     0.030 A 
HETATM   12  C   UNL     1     -43.220  61.022 -54.038  1.00  0.00     0.010 A 
BRANCH  10  13
HETATM   13  N   UNL     1     -44.692  61.009 -50.589  1.00  0.00    -0.298 N 
HETATM   14  C   UNL     1     -45.376  60.139 -49.720  1.00  0.00     0.323 C 
HETATM   15  O   UNL     1     -46.006  59.121 -49.957  1.00  0.00    -0.247 OA
HETATM   16  N   UNL     1     -45.245  60.639 -48.428  1.00  0.00    -0.341 N 
HETATM   17  C   UNL     1     -44.692  61.958 -48.444  1.00  0.00     0.144 C 
HETATM   18  H   UNL     1     -45.814  60.241 -47.692  1.00  0.00     0.164 HD
HETATM   19  C   UNL     1     -44.062  62.066 -49.824  1.00  0.00     0.153 C 
ENDBRANCH  10  13
ENDBRANCH   6   7
ENDBRANCH   3   6
ENDBRANCH   1   2
BRANCH   1  20
HETATM   20  C   UNL     1     -41.999  56.095 -55.494  1.00  0.00     0.146 A 
HETATM   21  N   UNL     1     -42.100  56.693 -54.290  1.00  0.00    -0.219 NA
HETATM   22  C   UNL     1     -41.658  56.015 -53.218  1.00  0.00     0.118 A 
HETATM   23  C   UNL     1     -41.141  54.712 -53.326  1.00  0.00     0.035 A 
HETATM   24  C   UNL     1     -41.083  54.187 -54.624  1.00  0.00     0.072 A 
HETATM   25  C   UNL     1     -40.702  53.922 -52.232  1.00  0.00     0.041 A 
HETATM   26  N   UNL     1     -41.492  54.868 -55.696  1.00  0.00    -0.231 NA
HETATM   27  C   UNL     1     -40.582  52.903 -54.804  1.00  0.00     0.034 A 
HETATM   28  C   UNL     1     -40.142  52.124 -53.730  1.00  0.00     0.026 A 
HETATM   29  C   UNL     1     -40.206  52.638 -52.443  1.00  0.00     0.035 A 
HETATM   30 CL   UNL     1     -39.677  51.692 -51.110  1.00  0.00    -0.084 Cl
BRANCH  22  31
HETATM   31  N   UNL     1     -41.720  56.627 -51.946  1.00  0.00    -0.272 NA
HETATM   32  H   UNL     1     -41.032  56.168 -51.352  1.00  0.00     0.129 HD
BRANCH  31  33
HETATM   33  C   UNL     1     -41.574  58.082 -51.915  1.00  0.00     0.061 C 
HETATM   34  C   UNL     1     -41.820  58.634 -50.504  1.00  0.00     0.020 C 
HETATM   35  C   UNL     1     -40.845  59.793 -50.376  1.00  0.00     0.002 C 
HETATM   36  C   UNL     1     -39.596  59.256 -51.051  1.00  0.00     0.002 C 
HETATM   37  C   UNL     1     -40.123  58.478 -52.253  1.00  0.00     0.020 C 
ENDBRANCH  31  33
ENDBRANCH  22  31
ENDBRANCH   1  20
TORSDOF 7
ENDMDL
MODEL 8
REMARK VINA RESULT:      -8.1      4.744      9.598
REMARK  7 active torsions:
REMARK  status: ('A' for Active; 'I' for Inactive)
REMARK    1  A    between atoms: C_2  and  C_3 
REMARK    2  A    between atoms: C_3  and  C_4 
REMARK       I    between atoms: C_4  and  N_5 
REMARK    3  A    between atoms: N_5  and  C_6 
REMARK    4  A    between atoms: C_6  and  C_7 
REMARK    5  A    between atoms: C_9  and  N_10 
REMARK    6  A    between atoms: N_10  and  C_11 
REMARK    7  A    between atoms: C_27  and  N_28 
ROOT
HETATM    1  C   UNL     1     -42.883  56.754 -58.490  1.00  0.00     0.203 C 
ENDROOT
BRANCH   1   2
HETATM    2  N   UNL     1     -42.046  56.812 -57.303  1.00  0.00    -0.354 N 
HETATM    3  C   UNL     1     -42.343  56.068 -56.187  1.00  0.00     0.222 C 
HETATM    4  O   UNL     1     -43.288  55.285 -56.150  1.00  0.00    -0.273 OA
HETATM    5  H   UNL     1     -41.399  57.591 -57.251  1.00  0.00     0.162 HD
BRANCH   3   6
HETATM    6  C   UNL     1     -41.373  56.254 -55.030  1.00  0.00     0.141 C 
BRANCH   6   7
HETATM    7  C   UNL     1     -40.924  54.969 -54.374  1.00  0.00    -0.049 A 
HETATM    8  C   UNL     1     -41.234  54.692 -53.040  1.00  0.00     0.010 A 
HETATM    9  C   UNL     1     -40.875  53.468 -52.459  1.00  0.00     0.030 A 
HETATM   10  C   UNL     1     -40.208  52.477 -53.195  1.00  0.00     0.039 A 
HETATM   11  C   UNL     1     -39.891  52.769 -54.527  1.00  0.00     0.030 A 
HETATM   12  C   UNL     1     -40.244  53.994 -55.110  1.00  0.00     0.010 A 
BRANCH  10  13
HETATM   13  N   UNL     1     -39.890  51.228 -52.604  1.00  0.00    -0.298 N 
HETATM   14  C   UNL     1     -39.778  49.984 -53.253  1.00  0.00     0.323 C 
HETATM   15  O   UNL     1     -39.943  49.689 -54.425  1.00  0.00    -0.247 OA
HETATM   16  N   UNL     1     -39.437  49.033 -52.296  1.00  0.00    -0.341 N 
HETATM   17  C   UNL     1     -39.555  49.573 -50.976  1.00  0.00     0.144 C 
HETATM   18  H   UNL     1     -39.480  48.054 -52.546  1.00  0.00     0.164 HD
HETATM   19  C   UNL     1     -39.558  51.076 -51.201  1.00  0.00     0.153 C 
ENDBRANCH  10  13
ENDBRANCH   6   7
ENDBRANCH   3   6
ENDBRANCH   1   2
BRANCH   1  20
HETATM   20  C   UNL     1     -43.693  58.017 -58.693  1.00  0.00     0.146 A 
HETATM   21  N   UNL     1     -43.014  59.162 -58.905  1.00  0.00    -0.219 NA
HETATM   22  C   UNL     1     -43.727  60.291 -59.054  1.00  0.00     0.118 A 
HETATM   23  C   UNL     1     -45.133  60.289 -59.030  1.00  0.00     0.035 A 
HETATM   24  C   UNL     1     -45.734  59.044 -58.801  1.00  0.00     0.072 A 
HETATM   25  C   UNL     1     -45.948  61.433 -59.227  1.00  0.00     0.041 A 
HETATM   26  N   UNL     1     -45.031  57.925 -58.622  1.00  0.00    -0.231 NA
HETATM   27  C   UNL     1     -47.122  58.970 -58.763  1.00  0.00     0.034 A 
HETATM   28  C   UNL     1     -47.928  60.096 -58.950  1.00  0.00     0.026 A 
HETATM   29  C   UNL     1     -47.335  61.328 -59.184  1.00  0.00     0.035 A 
HETATM   30 CL   UNL     1     -48.311  62.722 -59.424  1.00  0.00    -0.084 Cl
BRANCH  22  31
HETATM   31  N   UNL     1     -43.044  61.513 -59.248  1.00  0.00    -0.272 NA
HETATM   32  H   UNL     1     -43.199  62.083 -58.419  1.00  0.00     0.129 HD
BRANCH  31  33
HETATM   33  C   UNL     1     -41.624  61.419 -59.581  1.00  0.00     0.061 C 
HETATM   34  C   UNL     1     -41.275  62.314 -60.778  1.00  0.00     0.020 C 
HETATM   35  C   UNL     1     -39.880  62.832 -60.471  1.00  0.00     0.002 C 
HETATM   36  C   UNL     1     -39.947  63.112 -58.981  1.00  0.00     0.002 C 
HETATM   37  C   UNL     1     -40.767  61.956 -58.417  1.00  0.00     0.020 C 
ENDBRANCH  31  33
ENDBRANCH  22  31
ENDBRANCH   1  20
TORSDOF 7
ENDMDL
MODEL 9
REMARK VINA RESULT:      -8.1      1.795      2.117
REMARK  7 active torsions:
REMARK  status: ('A' for Active; 'I' for Inactive)
REMARK    1  A    between atoms: C_2  and  C_3 
REMARK    2  A    between atoms: C_3  and  C_4 
REMARK       I    between atoms: C_4  and  N_5 
REMARK    3  A    between atoms: N_5  and  C_6 
REMARK    4  A    between atoms: C_6  and  C_7 
REMARK    5  A    between atoms: C_9  and  N_10 
REMARK    6  A    between atoms: N_10  and  C_11 
REMARK    7  A    between atoms: C_27  and  N_28 
ROOT
HETATM    1  C   UNL     1     -41.817  59.362 -50.955  1.00  0.00     0.203 C 
ENDROOT
BRANCH   1   2
HETATM    2  N   UNL     1     -42.767  59.845 -51.943  1.00  0.00    -0.354 N 
HETATM    3  C   UNL     1     -44.110  59.913 -51.665  1.00  0.00     0.222 C 
HETATM    4  O   UNL     1     -44.569  59.623 -50.563  1.00  0.00    -0.273 OA
HETATM    5  H   UNL     1     -42.432  59.889 -52.900  1.00  0.00     0.162 HD
BRANCH   3   6
HETATM    6  C   UNL     1     -44.966  60.430 -52.811  1.00  0.00     0.141 C 
BRANCH   6   7
HETATM    7  C   UNL     1     -44.663  59.806 -54.153  1.00  0.00    -0.049 A 
HETATM    8  C   UNL     1     -45.040  58.493 -54.442  1.00  0.00     0.010 A 
HETATM    9  C   UNL     1     -44.819  57.944 -55.712  1.00  0.00     0.030 A 
HETATM   10  C   UNL     1     -44.226  58.695 -56.739  1.00  0.00     0.039 A 
HETATM   11  C   UNL     1     -43.841  60.006 -56.436  1.00  0.00     0.030 A 
HETATM   12  C   UNL     1     -44.057  60.556 -55.165  1.00  0.00     0.010 A 
BRANCH  10  13
HETATM   13  N   UNL     1     -44.048  58.139 -58.031  1.00  0.00    -0.298 N 
HETATM   14  C   UNL     1     -42.847  58.046 -58.758  1.00  0.00     0.323 C 
HETATM   15  O   UNL     1     -41.722  58.425 -58.475  1.00  0.00    -0.247 OA
HETATM   16  N   UNL     1     -43.129  57.420 -59.969  1.00  0.00    -0.341 N 
HETATM   17  C   UNL     1     -44.542  57.308 -60.169  1.00  0.00     0.144 C 
HETATM   18  H   UNL     1     -42.423  57.419 -60.692  1.00  0.00     0.164 HD
HETATM   19  C   UNL     1     -45.119  57.505 -58.776  1.00  0.00     0.153 C 
ENDBRANCH  10  13
ENDBRANCH   6   7
ENDBRANCH   3   6
ENDBRANCH   1   2
BRANCH   1  20
HETATM   20  C   UNL     1     -41.523  57.884 -51.105  1.00  0.00     0.146 A 
HETATM   21  N   UNL     1     -41.408  57.399 -52.357  1.00  0.00    -0.219 NA
HETATM   22  C   UNL     1     -41.178  56.082 -52.497  1.00  0.00     0.118 A 
HETATM   23  C   UNL     1     -41.022  55.234 -51.386  1.00  0.00     0.035 A 
HETATM   24  C   UNL     1     -41.162  55.845 -50.133  1.00  0.00     0.072 A 
HETATM   25  C   UNL     1     -40.731  53.848 -51.460  1.00  0.00     0.041 A 
HETATM   26  N   UNL     1     -41.421  57.146 -49.988  1.00  0.00    -0.231 NA
HETATM   27  C   UNL     1     -41.022  55.065 -48.990  1.00  0.00     0.034 A 
HETATM   28  C   UNL     1     -40.742  53.697 -49.059  1.00  0.00     0.026 A 
HETATM   29  C   UNL     1     -40.595  53.092 -50.299  1.00  0.00     0.035 A 
HETATM   30 CL   UNL     1     -40.244  51.414 -50.402  1.00  0.00    -0.084 Cl
BRANCH  22  31
HETATM   31  N   UNL     1     -41.083  55.536 -53.797  1.00  0.00    -0.272 NA
HETATM   32  H   UNL     1     -40.838  54.553 -53.698  1.00  0.00     0.129 HD
BRANCH  31  33
HETATM   33  C   UNL     1     -42.245  55.718 -54.666  1.00  0.00     0.061 C 
HETATM   34  C   UNL     1     -41.861  55.570 -56.144  1.00  0.00     0.020 C 
HETATM   35  C   UNL     1     -43.065  54.898 -56.783  1.00  0.00     0.002 C 
HETATM   36  C   UNL     1     -43.475  53.879 -55.735  1.00  0.00     0.002 C 
HETATM   37  C   UNL     1     -43.282  54.606 -54.408  1.00  0.00     0.020 C 
ENDBRANCH  31  33
ENDBRANCH  22  31
ENDBRANCH   1  20
TORSDOF 7
ENDMDL
MODEL 10
REMARK VINA RESULT:      -8.1     16.283     18.868
REMARK  7 active torsions:
REMARK  status: ('A' for Active; 'I' for Inactive)
REMARK    1  A    between atoms: C_2  and  C_3 
REMARK    2  A    between atoms: C_3  and  C_4 
REMARK       I    between atoms: C_4  and  N_5 
REMARK    3  A    between atoms: N_5  and  C_6 
REMARK    4  A    between atoms: C_6  and  C_7 
REMARK    5  A    between atoms: C_9  and  N_10 
REMARK    6  A    between atoms: N_10  and  C_11 
REMARK    7  A    between atoms: C_27  and  N_28 
ROOT
HETATM    1  C   UNL     1     -35.771  42.150 -53.466  1.00  0.00     0.203 C 
ENDROOT
BRANCH   1   2
HETATM    2  N   UNL     1     -36.728  42.137 -54.559  1.00  0.00    -0.354 N 
HETATM    3  C   UNL     1     -37.552  41.059 -54.770  1.00  0.00     0.222 C 
HETATM    4  O   UNL     1     -37.562  40.082 -54.026  1.00  0.00    -0.273 OA
HETATM    5  H   UNL     1     -36.588  42.833 -55.283  1.00  0.00     0.162 HD
BRANCH   3   6
HETATM    6  C   UNL     1     -38.486  41.203 -55.962  1.00  0.00     0.141 C 
BRANCH   6   7
HETATM    7  C   UNL     1     -37.968  40.595 -57.244  1.00  0.00    -0.049 A 
HETATM    8  C   UNL     1     -37.924  39.210 -57.421  1.00  0.00     0.010 A 
HETATM    9  C   UNL     1     -37.508  38.655 -58.639  1.00  0.00     0.030 A 
HETATM   10  C   UNL     1     -37.137  39.465 -59.723  1.00  0.00     0.039 A 
HETATM   11  C   UNL     1     -37.173  40.851 -59.532  1.00  0.00     0.030 A 
HETATM   12  C   UNL     1     -37.583  41.410 -58.313  1.00  0.00     0.010 A 
BRANCH  10  13
HETATM   13  N   UNL     1     -36.760  38.887 -60.962  1.00  0.00    -0.298 N 
HETATM   14  C   UNL     1     -35.553  38.226 -61.259  1.00  0.00     0.323 C 
HETATM   15  O   UNL     1     -34.574  38.020 -60.562  1.00  0.00    -0.247 OA
HETATM   16  N   UNL     1     -35.613  37.808 -62.586  1.00  0.00    -0.341 N 
HETATM   17  C   UNL     1     -36.738  38.388 -63.254  1.00  0.00     0.144 C 
HETATM   18  H   UNL     1     -34.770  37.466 -63.026  1.00  0.00     0.164 HD
HETATM   19  C   UNL     1     -37.637  38.842 -62.115  1.00  0.00     0.153 C 
ENDBRANCH  10  13
ENDBRANCH   6   7
ENDBRANCH   3   6
ENDBRANCH   1   2
BRANCH   1  20
HETATM   20  C   UNL     1     -34.586  41.242 -53.720  1.00  0.00     0.146 A 
HETATM   21  N   UNL     1     -34.131  40.510 -52.684  1.00  0.00    -0.219 NA
HETATM   22  C   UNL     1     -33.060  39.727 -52.896  1.00  0.00     0.118 A 
HETATM   23  C   UNL     1     -32.447  39.634 -54.158  1.00  0.00     0.035 A 
HETATM   24  C   UNL     1     -33.001  40.439 -55.163  1.00  0.00     0.072 A 
HETATM   25  C   UNL     1     -31.346  38.794 -54.464  1.00  0.00     0.041 A 
HETATM   26  N   UNL     1     -34.046  41.242 -54.950  1.00  0.00    -0.231 NA
HETATM   27  C   UNL     1     -32.444  40.398 -56.435  1.00  0.00     0.034 A 
HETATM   28  C   UNL     1     -31.354  39.577 -56.739  1.00  0.00     0.026 A 
HETATM   29  C   UNL     1     -30.809  38.773 -55.748  1.00  0.00     0.035 A 
HETATM   30 CL   UNL     1     -29.475  37.751 -56.106  1.00  0.00    -0.084 Cl
BRANCH  22  31
HETATM   31  N   UNL     1     -32.539  38.970 -51.822  1.00  0.00    -0.272 NA
HETATM   32  H   UNL     1     -31.532  39.113 -51.808  1.00  0.00     0.129 HD
BRANCH  31  33
HETATM   33  C   UNL     1     -33.136  39.208 -50.509  1.00  0.00     0.061 C 
HETATM   34  C   UNL     1     -33.085  37.945 -49.639  1.00  0.00     0.020 C 
HETATM   35  C   UNL     1     -32.847  38.463 -48.231  1.00  0.00     0.002 C 
HETATM   36  C   UNL     1     -31.848  39.584 -48.451  1.00  0.00     0.002 C 
HETATM   37  C   UNL     1     -32.317  40.260 -49.734  1.00  0.00     0.020 C 
ENDBRANCH  31  33
ENDBRANCH  22  31
ENDBRANCH   1  20
TORSDOF 7
ENDMDL
