MODEL 1
REMARK VINA RESULT:      -8.8      0.000      0.000
REMARK  8 active torsions:
REMARK  status: ('A' for Active; 'I' for Inactive)
REMARK    1  A    between atoms: C_3  and  N_4 
REMARK    2  A    between atoms: C_5  and  S_6 
REMARK    3  A    between atoms: S_6  and  C_7 
REMARK    4  A    between atoms: C_7  and  C_8 
REMARK       I    between atoms: C_8  and  N_9 
REMARK    5  A    between atoms: N_9  and  C_10 
REMARK    6  A    between atoms: C_10  and  C_11 
REMARK    7  A    between atoms: C_11  and  C_12 
REMARK    8  A    between atoms: C_22  and  N_23 
ROOT
HETATM    1  N   UNL     1     -42.589  57.750 -53.798  1.00  0.00    -0.275 N 
HETATM    2  C   UNL     1     -43.031  56.408 -53.661  1.00  0.00     0.177 A 
HETATM    3  N   UNL     1     -43.312  55.587 -54.644  1.00  0.00    -0.204 NA
HETATM    4  C   UNL     1     -43.093  56.113 -55.870  1.00  0.00     0.162 A 
HETATM    5  C   UNL     1     -42.653  57.363 -56.213  1.00  0.00     0.081 A 
HETATM    6  C   UNL     1     -42.383  58.272 -55.139  1.00  0.00     0.124 A 
HETATM    7  N   UNL     1     -43.267  55.459 -57.052  1.00  0.00    -0.260 N 
HETATM    8  H   UNL     1     -43.577  54.504 -57.192  1.00  0.00     0.191 HD
HETATM    9  N   UNL     1     -42.974  56.222 -58.129  1.00  0.00    -0.177 NA
HETATM   10  C   UNL     1     -42.585  57.399 -57.614  1.00  0.00     0.068 A 
HETATM   11  C   UNL     1     -42.170  58.491 -58.523  1.00  0.00     0.073 C 
ENDROOT
BRANCH   2  12
HETATM   12  S   UNL     1     -43.300  55.743 -52.037  1.00  0.00    -0.082 SA
BRANCH  12  13
HETATM   13  C   UNL     1     -41.641  55.132 -51.647  1.00  0.00     0.185 C 
BRANCH  13  14
HETATM   14  C   UNL     1     -41.282  55.296 -50.174  1.00  0.00     0.227 C 
HETATM   15  N   UNL     1     -40.758  54.198 -49.533  1.00  0.00    -0.360 N 
HETATM   16  H   UNL     1     -40.583  54.346 -48.544  1.00  0.00     0.162 HD
HETATM   17  O   UNL     1     -41.408  56.346 -49.543  1.00  0.00    -0.273 OA
BRANCH  15  18
HETATM   18  C   UNL     1     -40.639  52.860 -50.088  1.00  0.00     0.127 C 
BRANCH  18  19
HETATM   19  C   UNL     1     -39.386  52.670 -50.943  1.00  0.00     0.058 C 
BRANCH  19  20
HETATM   20  C   UNL     1     -39.656  51.716 -52.081  1.00  0.00    -0.057 A 
HETATM   21  C   UNL     1     -39.422  50.343 -51.930  1.00  0.00     0.007 A 
HETATM   22  C   UNL     1     -39.628  49.468 -53.000  1.00  0.00     0.001 A 
HETATM   23  C   UNL     1     -40.062  49.959 -54.229  1.00  0.00     0.000 A 
HETATM   24  C   UNL     1     -40.299  51.322 -54.391  1.00  0.00     0.001 A 
HETATM   25  C   UNL     1     -40.098  52.197 -53.322  1.00  0.00     0.007 A 
ENDBRANCH  19  20
ENDBRANCH  18  19
ENDBRANCH  15  18
ENDBRANCH  13  14
ENDBRANCH  12  13
ENDBRANCH   2  12
BRANCH   1  26
HETATM   26  C   UNL     1     -42.292  58.559 -52.660  1.00  0.00     0.051 A 
HETATM   27  C   UNL     1     -43.272  59.368 -52.042  1.00  0.00    -0.035 A 
HETATM   28  C   UNL     1     -44.718  59.355 -52.462  1.00  0.00     0.050 C 
HETATM   29  C   UNL     1     -42.903  60.176 -50.955  1.00  0.00     0.011 A 
HETATM   30  C   UNL     1     -41.581  60.220 -50.510  1.00  0.00     0.024 A 
HETATM   31  C   UNL     1     -40.617  59.440 -51.138  1.00  0.00     0.036 A 
HETATM   32  C   UNL     1     -40.963  58.611 -52.203  1.00  0.00     0.054 A 
HETATM   33 CL   UNL     1     -38.981  59.514 -50.613  1.00  0.00    -0.084 Cl
ENDBRANCH   1  26
BRANCH   6  34
HETATM   34  N   UNL     1     -41.997  59.512 -55.371  1.00  0.00    -0.384 N 
HETATM   35  H   UNL     1     -41.581  60.085 -54.652  1.00  0.00     0.157 HD
HETATM   36  H   UNL     1     -42.110  59.908 -56.295  1.00  0.00     0.157 HD
ENDBRANCH   6  34
TORSDOF 8
ENDMDL
MODEL 2
REMARK VINA RESULT:      -8.7      2.733      4.935
REMARK  8 active torsions:
REMARK  status: ('A' for Active; 'I' for Inactive)
REMARK    1  A    between atoms: C_3  and  N_4 
REMARK    2  A    between atoms: C_5  and  S_6 
REMARK    3  A    between atoms: S_6  and  C_7 
REMARK    4  A    between atoms: C_7  and  C_8 
REMARK       I    between atoms: C_8  and  N_9 
REMARK    5  A    between atoms: N_9  and  C_10 
REMARK    6  A    between atoms: C_10  and  C_11 
REMARK    7  A    between atoms: C_11  and  C_12 
REMARK    8  A    between atoms: C_22  and  N_23 
ROOT
HETATM    1  N   UNL     1     -42.427  58.778 -52.094  1.00  0.00    -0.275 N 
HETATM    2  C   UNL     1     -42.066  58.843 -53.465  1.00  0.00     0.177 A 
HETATM    3  N   UNL     1     -42.201  59.886 -54.248  1.00  0.00    -0.204 NA
HETATM    4  C   UNL     1     -42.690  60.977 -53.617  1.00  0.00     0.162 A 
HETATM    5  C   UNL     1     -43.075  61.127 -52.313  1.00  0.00     0.081 A 
HETATM    6  C   UNL     1     -42.962  59.976 -51.467  1.00  0.00     0.124 A 
HETATM    7  N   UNL     1     -42.889  62.196 -54.191  1.00  0.00    -0.260 N 
HETATM    8  H   UNL     1     -42.706  62.467 -55.151  1.00  0.00     0.191 HD
HETATM    9  N   UNL     1     -43.388  63.112 -53.331  1.00  0.00    -0.177 NA
HETATM   10  C   UNL     1     -43.497  62.457 -52.165  1.00  0.00     0.068 A 
HETATM   11  C   UNL     1     -44.009  63.171 -50.972  1.00  0.00     0.073 C 
ENDROOT
BRANCH   2  12
HETATM   12  S   UNL     1     -41.416  57.394 -54.262  1.00  0.00    -0.082 SA
BRANCH  12  13
HETATM   13  C   UNL     1     -42.948  56.580 -54.776  1.00  0.00     0.185 C 
BRANCH  13  14
HETATM   14  C   UNL     1     -42.713  55.463 -55.786  1.00  0.00     0.227 C 
HETATM   15  N   UNL     1     -42.422  54.216 -55.284  1.00  0.00    -0.360 N 
HETATM   16  H   UNL     1     -42.227  53.522 -55.998  1.00  0.00     0.162 HD
HETATM   17  O   UNL     1     -42.793  55.605 -57.007  1.00  0.00    -0.273 OA
BRANCH  15  18
HETATM   18  C   UNL     1     -42.185  53.891 -53.887  1.00  0.00     0.127 C 
BRANCH  18  19
HETATM   19  C   UNL     1     -40.701  53.832 -53.526  1.00  0.00     0.058 C 
BRANCH  19  20
HETATM   20  C   UNL     1     -40.267  52.406 -53.282  1.00  0.00    -0.057 A 
HETATM   21  C   UNL     1     -40.291  51.467 -54.322  1.00  0.00     0.007 A 
HETATM   22  C   UNL     1     -39.935  50.138 -54.083  1.00  0.00     0.001 A 
HETATM   23  C   UNL     1     -39.559  49.735 -52.803  1.00  0.00     0.000 A 
HETATM   24  C   UNL     1     -39.532  50.660 -51.762  1.00  0.00     0.001 A 
HETATM   25  C   UNL     1     -39.883  51.990 -51.999  1.00  0.00     0.007 A 
ENDBRANCH  19  20
ENDBRANCH  18  19
ENDBRANCH  15  18
ENDBRANCH  13  14
ENDBRANCH  12  13
ENDBRANCH   2  12
BRANCH   1  26
HETATM   26  C   UNL     1     -42.222  57.595 -51.321  1.00  0.00     0.051 A 
HETATM   27  C   UNL     1     -40.994  57.328 -50.676  1.00  0.00    -0.035 A 
HETATM   28  C   UNL     1     -39.855  58.313 -50.659  1.00  0.00     0.050 C 
HETATM   29  C   UNL     1     -40.842  56.124 -49.969  1.00  0.00     0.011 A 
HETATM   30  C   UNL     1     -41.868  55.178 -49.936  1.00  0.00     0.024 A 
HETATM   31  C   UNL     1     -43.065  55.436 -50.594  1.00  0.00     0.036 A 
HETATM   32  C   UNL     1     -43.249  56.635 -51.280  1.00  0.00     0.054 A 
HETATM   33 CL   UNL     1     -44.320  54.261 -50.580  1.00  0.00    -0.084 Cl
ENDBRANCH   1  26
BRANCH   6  34
HETATM   34  N   UNL     1     -43.349  60.011 -50.207  1.00  0.00    -0.384 N 
HETATM   35  H   UNL     1     -43.571  60.878 -49.740  1.00  0.00     0.157 HD
HETATM   36  H   UNL     1     -43.438  59.148 -49.685  1.00  0.00     0.157 HD
ENDBRANCH   6  34
TORSDOF 8
ENDMDL
MODEL 3
REMARK VINA RESULT:      -8.4      3.018      5.255
REMARK  8 active torsions:
REMARK  status: ('A' for Active; 'I' for Inactive)
REMARK    1  A    between atoms: C_3  and  N_4 
REMARK    2  A    between atoms: C_5  and  S_6 
REMARK    3  A    between atoms: S_6  and  C_7 
REMARK    4  A    between atoms: C_7  and  C_8 
REMARK       I    between atoms: C_8  and  N_9 
REMARK    5  A    between atoms: N_9  and  C_10 
REMARK    6  A    between atoms: C_10  and  C_11 
REMARK    7  A    between atoms: C_11  and  C_12 
REMARK    8  A    between atoms: C_22  and  N_23 
ROOT
HETATM    1  N   UNL     1     -43.389  59.085 -52.056  1.00  0.00    -0.275 N 
HETATM    2  C   UNL     1     -43.038  59.445 -53.384  1.00  0.00     0.177 A 
HETATM    3  N   UNL     1     -43.511  60.468 -54.054  1.00  0.00    -0.204 NA
HETATM    4  C   UNL     1     -44.370  61.232 -53.342  1.00  0.00     0.162 A 
HETATM    5  C   UNL     1     -44.816  61.072 -52.059  1.00  0.00     0.081 A 
HETATM    6  C   UNL     1     -44.327  59.934 -51.340  1.00  0.00     0.124 A 
HETATM    7  N   UNL     1     -44.970  62.370 -53.790  1.00  0.00    -0.260 N 
HETATM    8  H   UNL     1     -44.869  62.807 -54.699  1.00  0.00     0.191 HD
HETATM    9  N   UNL     1     -45.781  62.938 -52.871  1.00  0.00    -0.177 NA
HETATM   10  C   UNL     1     -45.682  62.143 -51.794  1.00  0.00     0.068 A 
HETATM   11  C   UNL     1     -46.444  62.478 -50.568  1.00  0.00     0.073 C 
ENDROOT
BRANCH   2  12
HETATM   12  S   UNL     1     -41.900  58.425 -54.288  1.00  0.00    -0.082 SA
BRANCH  12  13
HETATM   13  C   UNL     1     -43.043  57.259 -55.068  1.00  0.00     0.185 C 
BRANCH  13  14
HETATM   14  C   UNL     1     -42.484  56.651 -56.350  1.00  0.00     0.227 C 
HETATM   15  N   UNL     1     -41.656  55.562 -56.216  1.00  0.00    -0.360 N 
HETATM   16  H   UNL     1     -41.273  55.227 -57.094  1.00  0.00     0.162 HD
HETATM   17  O   UNL     1     -42.748  57.057 -57.482  1.00  0.00    -0.273 OA
BRANCH  15  18
HETATM   18  C   UNL     1     -41.154  55.018 -54.964  1.00  0.00     0.127 C 
BRANCH  18  19
HETATM   19  C   UNL     1     -41.909  53.771 -54.503  1.00  0.00     0.058 C 
BRANCH  19  20
HETATM   20  C   UNL     1     -40.985  52.829 -53.770  1.00  0.00    -0.057 A 
HETATM   21  C   UNL     1     -40.552  51.641 -54.374  1.00  0.00     0.007 A 
HETATM   22  C   UNL     1     -39.736  50.748 -53.676  1.00  0.00     0.001 A 
HETATM   23  C   UNL     1     -39.351  51.031 -52.368  1.00  0.00     0.000 A 
HETATM   24  C   UNL     1     -39.775  52.209 -51.756  1.00  0.00     0.001 A 
HETATM   25  C   UNL     1     -40.587  53.105 -52.453  1.00  0.00     0.007 A 
ENDBRANCH  19  20
ENDBRANCH  18  19
ENDBRANCH  15  18
ENDBRANCH  13  14
ENDBRANCH  12  13
ENDBRANCH   2  12
BRANCH   1  26
HETATM   26  C   UNL     1     -42.800  57.958 -51.406  1.00  0.00     0.051 A 
HETATM   27  C   UNL     1     -41.538  58.034 -50.776  1.00  0.00    -0.035 A 
HETATM   28  C   UNL     1     -40.773  59.324 -50.644  1.00  0.00     0.050 C 
HETATM   29  C   UNL     1     -40.995  56.877 -50.195  1.00  0.00     0.011 A 
HETATM   30  C   UNL     1     -41.664  55.654 -50.272  1.00  0.00     0.024 A 
HETATM   31  C   UNL     1     -42.894  55.581 -50.915  1.00  0.00     0.036 A 
HETATM   32  C   UNL     1     -43.465  56.721 -51.477  1.00  0.00     0.054 A 
HETATM   33 CL   UNL     1     -43.707  54.071 -51.038  1.00  0.00    -0.084 Cl
ENDBRANCH   1  26
BRANCH   6  34
HETATM   34  N   UNL     1     -44.734  59.671 -50.112  1.00  0.00    -0.384 N 
HETATM   35  H   UNL     1     -45.358  58.905 -49.910  1.00  0.00     0.157 HD
HETATM   36  H   UNL     1     -44.410  60.243 -49.343  1.00  0.00     0.157 HD
ENDBRANCH   6  34
TORSDOF 8
ENDMDL
MODEL 4
REMARK VINA RESULT:      -8.2      2.826      4.846
REMARK  8 active torsions:
REMARK  status: ('A' for Active; 'I' for Inactive)
REMARK    1  A    between atoms: C_3  and  N_4 
REMARK    2  A    between atoms: C_5  and  S_6 
REMARK    3  A    between atoms: S_6  and  C_7 
REMARK    4  A    between atoms: C_7  and  C_8 
REMARK       I    between atoms: C_8  and  N_9 
REMARK    5  A    between atoms: N_9  and  C_10 
REMARK    6  A    between atoms: C_10  and  C_11 
REMARK    7  A    between atoms: C_11  and  C_12 
REMARK    8  A    between atoms: C_22  and  N_23 
ROOT
HETATM    1  N   UNL     1     -43.589  59.304 -52.452  1.00  0.00    -0.275 N 
HETATM    2  C   UNL     1     -43.727  59.293 -53.865  1.00  0.00     0.177 A 
HETATM    3  N   UNL     1     -44.651  59.918 -54.553  1.00  0.00    -0.204 NA
HETATM    4  C   UNL     1     -45.487  60.658 -53.790  1.00  0.00     0.162 A 
HETATM    5  C   UNL     1     -45.510  60.818 -52.432  1.00  0.00     0.081 A 
HETATM    6  C   UNL     1     -44.523  60.105 -51.678  1.00  0.00     0.124 A 
HETATM    7  N   UNL     1     -46.506  61.432 -54.259  1.00  0.00    -0.260 N 
HETATM    8  H   UNL     1     -46.786  61.570 -55.223  1.00  0.00     0.191 HD
HETATM    9  N   UNL     1     -47.184  62.068 -53.277  1.00  0.00    -0.177 NA
HETATM   10  C   UNL     1     -46.565  61.697 -52.145  1.00  0.00     0.068 A 
HETATM   11  C   UNL     1     -47.045  62.225 -50.846  1.00  0.00     0.073 C 
ENDROOT
BRANCH   2  12
HETATM   12  S   UNL     1     -42.606  58.318 -54.840  1.00  0.00    -0.082 SA
BRANCH  12  13
HETATM   13  C   UNL     1     -43.735  57.063 -55.492  1.00  0.00     0.185 C 
BRANCH  13  14
HETATM   14  C   UNL     1     -43.053  56.099 -56.456  1.00  0.00     0.227 C 
HETATM   15  N   UNL     1     -42.684  54.872 -55.956  1.00  0.00    -0.360 N 
HETATM   16  H   UNL     1     -42.191  54.288 -56.625  1.00  0.00     0.162 HD
HETATM   17  O   UNL     1     -42.840  56.342 -57.644  1.00  0.00    -0.273 OA
BRANCH  15  18
HETATM   18  C   UNL     1     -42.760  54.457 -54.565  1.00  0.00     0.127 C 
BRANCH  18  19
HETATM   19  C   UNL     1     -41.484  54.752 -53.777  1.00  0.00     0.058 C 
BRANCH  19  20
HETATM   20  C   UNL     1     -40.826  53.471 -53.326  1.00  0.00    -0.057 A 
HETATM   21  C   UNL     1     -40.395  53.318 -52.002  1.00  0.00     0.007 A 
HETATM   22  C   UNL     1     -39.744  52.150 -51.600  1.00  0.00     0.001 A 
HETATM   23  C   UNL     1     -39.512  51.128 -52.518  1.00  0.00     0.000 A 
HETATM   24  C   UNL     1     -39.936  51.268 -53.837  1.00  0.00     0.001 A 
HETATM   25  C   UNL     1     -40.591  52.433 -54.241  1.00  0.00     0.007 A 
ENDBRANCH  19  20
ENDBRANCH  18  19
ENDBRANCH  15  18
ENDBRANCH  13  14
ENDBRANCH  12  13
ENDBRANCH   2  12
BRANCH   1  26
HETATM   26  C   UNL     1     -42.532  58.601 -51.798  1.00  0.00     0.051 A 
HETATM   27  C   UNL     1     -42.713  57.305 -51.268  1.00  0.00    -0.035 A 
HETATM   28  C   UNL     1     -43.988  56.524 -51.449  1.00  0.00     0.050 C 
HETATM   29  C   UNL     1     -41.646  56.687 -50.596  1.00  0.00     0.011 A 
HETATM   30  C   UNL     1     -40.434  57.355 -50.410  1.00  0.00     0.024 A 
HETATM   31  C   UNL     1     -40.271  58.640 -50.913  1.00  0.00     0.036 A 
HETATM   32  C   UNL     1     -41.306  59.264 -51.605  1.00  0.00     0.054 A 
HETATM   33 CL   UNL     1     -38.790  59.477 -50.659  1.00  0.00    -0.084 Cl
ENDBRANCH   1  26
BRANCH   6  34
HETATM   34  N   UNL     1     -44.493  60.162 -50.360  1.00  0.00    -0.384 N 
HETATM   35  H   UNL     1     -44.274  59.354 -49.796  1.00  0.00     0.157 HD
HETATM   36  H   UNL     1     -44.686  61.037 -49.891  1.00  0.00     0.157 HD
ENDBRANCH   6  34
TORSDOF 8
ENDMDL
MODEL 5
REMARK VINA RESULT:      -8.1      3.382      5.382
REMARK  8 active torsions:
REMARK  status: ('A' for Active; 'I' for Inactive)
REMARK    1  A    between atoms: C_3  and  N_4 
REMARK    2  A    between atoms: C_5  and  S_6 
REMARK    3  A    between atoms: S_6  and  C_7 
REMARK    4  A    between atoms: C_7  and  C_8 
REMARK       I    between atoms: C_8  and  N_9 
REMARK    5  A    between atoms: N_9  and  C_10 
REMARK    6  A    between atoms: C_10  and  C_11 
REMARK    7  A    between atoms: C_11  and  C_12 
REMARK    8  A    between atoms: C_22  and  N_23 
ROOT
HETATM    1  N   UNL     1     -43.331  58.950 -58.580  1.00  0.00    -0.275 N 
HETATM    2  C   UNL     1     -42.899  58.423 -57.335  1.00  0.00     0.177 A 
HETATM    3  N   UNL     1     -42.976  57.168 -56.962  1.00  0.00    -0.204 NA
HETATM    4  C   UNL     1     -43.478  56.350 -57.914  1.00  0.00     0.162 A 
HETATM    5  C   UNL     1     -43.926  56.652 -59.171  1.00  0.00     0.081 A 
HETATM    6  C   UNL     1     -43.876  58.029 -59.564  1.00  0.00     0.124 A 
HETATM    7  N   UNL     1     -43.626  55.001 -57.796  1.00  0.00    -0.260 N 
HETATM    8  H   UNL     1     -43.390  54.418 -57.001  1.00  0.00     0.191 HD
HETATM    9  N   UNL     1     -44.153  54.427 -58.901  1.00  0.00    -0.177 NA
HETATM   10  C   UNL     1     -44.332  55.444 -59.758  1.00  0.00     0.068 A 
HETATM   11  C   UNL     1     -44.892  55.174 -61.103  1.00  0.00     0.073 C 
ENDROOT
BRANCH   2  12
HETATM   12  S   UNL     1     -42.234  59.523 -56.109  1.00  0.00    -0.082 SA
BRANCH  12  13
HETATM   13  C   UNL     1     -42.516  58.557 -54.605  1.00  0.00     0.185 C 
BRANCH  13  14
HETATM   14  C   UNL     1     -41.252  58.383 -53.770  1.00  0.00     0.227 C 
HETATM   15  N   UNL     1     -41.006  57.129 -53.262  1.00  0.00    -0.360 N 
HETATM   16  H   UNL     1     -40.180  57.080 -52.675  1.00  0.00     0.162 HD
HETATM   17  O   UNL     1     -40.438  59.281 -53.549  1.00  0.00    -0.273 OA
BRANCH  15  18
HETATM   18  C   UNL     1     -41.903  55.987 -53.332  1.00  0.00     0.127 C 
BRANCH  18  19
HETATM   19  C   UNL     1     -41.458  54.931 -54.343  1.00  0.00     0.058 C 
BRANCH  19  20
HETATM   20  C   UNL     1     -40.768  53.783 -53.647  1.00  0.00    -0.057 A 
HETATM   21  C   UNL     1     -40.243  52.714 -54.385  1.00  0.00     0.007 A 
HETATM   22  C   UNL     1     -39.647  51.631 -53.736  1.00  0.00     0.001 A 
HETATM   23  C   UNL     1     -39.576  51.603 -52.345  1.00  0.00     0.000 A 
HETATM   24  C   UNL     1     -40.094  52.660 -51.600  1.00  0.00     0.001 A 
HETATM   25  C   UNL     1     -40.687  53.746 -52.247  1.00  0.00     0.007 A 
ENDBRANCH  19  20
ENDBRANCH  18  19
ENDBRANCH  15  18
ENDBRANCH  13  14
ENDBRANCH  12  13
ENDBRANCH   2  12
BRANCH   1  26
HETATM   26  C   UNL     1     -43.185  60.334 -58.897  1.00  0.00     0.051 A 
HETATM   27  C   UNL     1     -44.229  61.262 -58.688  1.00  0.00    -0.035 A 
HETATM   28  C   UNL     1     -45.525  60.890 -58.016  1.00  0.00     0.050 C 
HETATM   29  C   UNL     1     -44.038  62.601 -59.064  1.00  0.00     0.011 A 
HETATM   30  C   UNL     1     -42.853  63.011 -59.678  1.00  0.00     0.024 A 
HETATM   31  C   UNL     1     -41.839  62.088 -59.904  1.00  0.00     0.036 A 
HETATM   32  C   UNL     1     -41.995  60.759 -59.516  1.00  0.00     0.054 A 
HETATM   33 CL   UNL     1     -40.390  62.582 -60.686  1.00  0.00    -0.084 Cl
ENDBRANCH   1  26
BRANCH   6  34
HETATM   34  N   UNL     1     -44.326  58.423 -60.740  1.00  0.00    -0.384 N 
HETATM   35  H   UNL     1     -43.815  58.250 -61.592  1.00  0.00     0.157 HD
HETATM   36  H   UNL     1     -45.212  58.907 -60.800  1.00  0.00     0.157 HD
ENDBRANCH   6  34
TORSDOF 8
ENDMDL
MODEL 6
REMARK VINA RESULT:      -8.0      1.873      3.204
REMARK  8 active torsions:
REMARK  status: ('A' for Active; 'I' for Inactive)
REMARK    1  A    between atoms: C_3  and  N_4 
REMARK    2  A    between atoms: C_5  and  S_6 
REMARK    3  A    between atoms: S_6  and  C_7 
REMARK    4  A    between atoms: C_7  and  C_8 
REMARK       I    between atoms: C_8  and  N_9 
REMARK    5  A    between atoms: N_9  and  C_10 
REMARK    6  A    between atoms: C_10  and  C_11 
REMARK    7  A    between atoms: C_11  and  C_12 
REMARK    8  A    between atoms: C_22  and  N_23 
ROOT
HETATM    1  N   UNL     1     -42.366  58.222 -54.922  1.00  0.00    -0.275 N 
HETATM    2  C   UNL     1     -42.549  56.880 -55.348  1.00  0.00     0.177 A 
HETATM    3  N   UNL     1     -42.591  56.466 -56.591  1.00  0.00    -0.204 NA
HETATM    4  C   UNL     1     -42.389  57.450 -57.497  1.00  0.00     0.162 A 
HETATM    5  C   UNL     1     -42.176  58.786 -57.295  1.00  0.00     0.081 A 
HETATM    6  C   UNL     1     -42.167  59.243 -55.937  1.00  0.00     0.124 A 
HETATM    7  N   UNL     1     -42.346  57.281 -58.847  1.00  0.00    -0.260 N 
HETATM    8  H   UNL     1     -42.454  56.417 -59.368  1.00  0.00     0.191 HD
HETATM    9  N   UNL     1     -42.128  58.433 -59.519  1.00  0.00    -0.177 NA
HETATM   10  C   UNL     1     -42.014  59.366 -58.562  1.00  0.00     0.068 A 
HETATM   11  C   UNL     1     -41.753  60.774 -58.943  1.00  0.00     0.073 C 
ENDROOT
BRANCH   2  12
HETATM   12  S   UNL     1     -42.801  55.610 -54.132  1.00  0.00    -0.082 SA
BRANCH  12  13
HETATM   13  C   UNL     1     -41.936  54.224 -54.911  1.00  0.00     0.185 C 
BRANCH  13  14
HETATM   14  C   UNL     1     -40.426  54.285 -54.713  1.00  0.00     0.227 C 
HETATM   15  N   UNL     1     -39.842  53.243 -54.031  1.00  0.00    -0.360 N 
HETATM   16  H   UNL     1     -38.844  53.356 -53.884  1.00  0.00     0.162 HD
HETATM   17  O   UNL     1     -39.705  55.186 -55.145  1.00  0.00    -0.273 OA
BRANCH  15  18
HETATM   18  C   UNL     1     -40.544  52.158 -53.364  1.00  0.00     0.127 C 
BRANCH  18  19
HETATM   19  C   UNL     1     -40.155  52.002 -51.894  1.00  0.00     0.058 C 
BRANCH  19  20
HETATM   20  C   UNL     1     -40.618  53.193 -51.090  1.00  0.00    -0.057 A 
HETATM   21  C   UNL     1     -41.943  53.639 -51.176  1.00  0.00     0.007 A 
HETATM   22  C   UNL     1     -42.356  54.770 -50.468  1.00  0.00     0.001 A 
HETATM   23  C   UNL     1     -41.448  55.467 -49.673  1.00  0.00     0.000 A 
HETATM   24  C   UNL     1     -40.128  55.032 -49.579  1.00  0.00     0.001 A 
HETATM   25  C   UNL     1     -39.714  53.900 -50.283  1.00  0.00     0.007 A 
ENDBRANCH  19  20
ENDBRANCH  18  19
ENDBRANCH  15  18
ENDBRANCH  13  14
ENDBRANCH  12  13
ENDBRANCH   2  12
BRANCH   1  26
HETATM   26  C   UNL     1     -42.316  58.567 -53.537  1.00  0.00     0.051 A 
HETATM   27  C   UNL     1     -43.476  58.926 -52.815  1.00  0.00    -0.035 A 
HETATM   28  C   UNL     1     -44.857  58.864 -53.412  1.00  0.00     0.050 C 
HETATM   29  C   UNL     1     -43.352  59.300 -51.467  1.00  0.00     0.011 A 
HETATM   30  C   UNL     1     -42.100  59.362 -50.853  1.00  0.00     0.024 A 
HETATM   31  C   UNL     1     -40.960  59.031 -51.577  1.00  0.00     0.036 A 
HETATM   32  C   UNL     1     -41.060  58.633 -52.908  1.00  0.00     0.054 A 
HETATM   33 CL   UNL     1     -39.414  59.135 -50.833  1.00  0.00    -0.084 Cl
ENDBRANCH   1  26
BRANCH   6  34
HETATM   34  N   UNL     1     -42.013  60.520 -55.645  1.00  0.00    -0.384 N 
HETATM   35  H   UNL     1     -42.537  60.965 -54.906  1.00  0.00     0.157 HD
HETATM   36  H   UNL     1     -41.348  61.077 -56.165  1.00  0.00     0.157 HD
ENDBRANCH   6  34
TORSDOF 8
ENDMDL
MODEL 7
REMARK VINA RESULT:      -7.9      2.716      7.618
REMARK  8 active torsions:
REMARK  status: ('A' for Active; 'I' for Inactive)
REMARK    1  A    between atoms: C_3  and  N_4 
REMARK    2  A    between atoms: C_5  and  S_6 
REMARK    3  A    between atoms: S_6  and  C_7 
REMARK    4  A    between atoms: C_7  and  C_8 
REMARK       I    between atoms: C_8  and  N_9 
REMARK    5  A    between atoms: N_9  and  C_10 
REMARK    6  A    between atoms: C_10  and  C_11 
REMARK    7  A    between atoms: C_11  and  C_12 
REMARK    8  A    between atoms: C_22  and  N_23 
ROOT
HETATM    1  N   UNL     1     -40.837  53.872 -52.486  1.00  0.00    -0.275 N 
HETATM    2  C   UNL     1     -40.683  53.761 -53.892  1.00  0.00     0.177 A 
HETATM    3  N   UNL     1     -40.220  52.716 -54.535  1.00  0.00    -0.204 NA
HETATM    4  C   UNL     1     -39.925  51.671 -53.730  1.00  0.00     0.162 A 
HETATM    5  C   UNL     1     -40.021  51.569 -52.369  1.00  0.00     0.081 A 
HETATM    6  C   UNL     1     -40.493  52.723 -51.664  1.00  0.00     0.124 A 
HETATM    7  N   UNL     1     -39.466  50.458 -54.148  1.00  0.00    -0.260 N 
HETATM    8  H   UNL     1     -39.281  50.160 -55.099  1.00  0.00     0.191 HD
HETATM    9  N   UNL     1     -39.255  49.592 -53.131  1.00  0.00    -0.177 NA
HETATM   10  C   UNL     1     -39.605  50.273 -52.029  1.00  0.00     0.068 A 
HETATM   11  C   UNL     1     -39.511  49.615 -50.705  1.00  0.00     0.073 C 
ENDROOT
BRANCH   2  12
HETATM   12  S   UNL     1     -41.088  55.149 -54.923  1.00  0.00    -0.082 SA
BRANCH  12  13
HETATM   13  C   UNL     1     -42.823  54.792 -55.299  1.00  0.00     0.185 C 
BRANCH  13  14
HETATM   14  C   UNL     1     -43.631  56.048 -55.605  1.00  0.00     0.227 C 
HETATM   15  N   UNL     1     -43.763  56.400 -56.928  1.00  0.00    -0.360 N 
HETATM   16  H   UNL     1     -44.268  57.269 -57.073  1.00  0.00     0.162 HD
HETATM   17  O   UNL     1     -44.186  56.741 -54.750  1.00  0.00    -0.273 OA
BRANCH  15  18
HETATM   18  C   UNL     1     -43.094  55.766 -58.052  1.00  0.00     0.127 C 
BRANCH  18  19
HETATM   19  C   UNL     1     -43.803  55.999 -59.386  1.00  0.00     0.058 C 
BRANCH  19  20
HETATM   20  C   UNL     1     -43.482  57.371 -59.928  1.00  0.00    -0.057 A 
HETATM   21  C   UNL     1     -44.506  58.290 -60.190  1.00  0.00     0.007 A 
HETATM   22  C   UNL     1     -44.211  59.541 -60.737  1.00  0.00     0.001 A 
HETATM   23  C   UNL     1     -42.893  59.881 -61.031  1.00  0.00     0.000 A 
HETATM   24  C   UNL     1     -41.866  58.976 -60.774  1.00  0.00     0.001 A 
HETATM   25  C   UNL     1     -42.158  57.726 -60.225  1.00  0.00     0.007 A 
ENDBRANCH  19  20
ENDBRANCH  18  19
ENDBRANCH  15  18
ENDBRANCH  13  14
ENDBRANCH  12  13
ENDBRANCH   2  12
BRANCH   1  26
HETATM   26  C   UNL     1     -41.371  55.051 -51.882  1.00  0.00     0.051 A 
HETATM   27  C   UNL     1     -42.743  55.174 -51.569  1.00  0.00    -0.035 A 
HETATM   28  C   UNL     1     -43.720  54.042 -51.741  1.00  0.00     0.050 C 
HETATM   29  C   UNL     1     -43.212  56.378 -51.019  1.00  0.00     0.011 A 
HETATM   30  C   UNL     1     -42.351  57.460 -50.823  1.00  0.00     0.024 A 
HETATM   31  C   UNL     1     -41.007  57.340 -51.156  1.00  0.00     0.036 A 
HETATM   32  C   UNL     1     -40.513  56.147 -51.679  1.00  0.00     0.054 A 
HETATM   33 CL   UNL     1     -39.950  58.679 -50.943  1.00  0.00    -0.084 Cl
ENDBRANCH   1  26
BRANCH   6  34
HETATM   34  N   UNL     1     -40.578  52.736 -50.347  1.00  0.00    -0.384 N 
HETATM   35  H   UNL     1     -40.492  53.588 -49.815  1.00  0.00     0.157 HD
HETATM   36  H   UNL     1     -40.742  51.872 -49.847  1.00  0.00     0.157 HD
ENDBRANCH   6  34
TORSDOF 8
ENDMDL
MODEL 8
REMARK VINA RESULT:      -7.9      2.881      7.127
REMARK  8 active torsions:
REMARK  status: ('A' for Active; 'I' for Inactive)
REMARK    1  A    between atoms: C_3  and  N_4 
REMARK    2  A    between atoms: C_5  and  S_6 
REMARK    3  A    between atoms: S_6  and  C_7 
REMARK    4  A    between atoms: C_7  and  C_8 
REMARK       I    between atoms: C_8  and  N_9 
REMARK    5  A    between atoms: N_9  and  C_10 
REMARK    6  A    between atoms: C_10  and  C_11 
REMARK    7  A    between atoms: C_11  and  C_12 
REMARK    8  A    between atoms: C_22  and  N_23 
ROOT
HETATM    1  N   UNL     1     -41.680  56.805 -51.817  1.00  0.00    -0.275 N 
HETATM    2  C   UNL     1     -41.453  56.403 -53.160  1.00  0.00     0.177 A 
HETATM    3  N   UNL     1     -40.969  55.247 -53.545  1.00  0.00    -0.204 NA
HETATM    4  C   UNL     1     -40.731  54.392 -52.526  1.00  0.00     0.162 A 
HETATM    5  C   UNL     1     -40.901  54.575 -51.181  1.00  0.00     0.081 A 
HETATM    6  C   UNL     1     -41.395  55.852 -50.757  1.00  0.00     0.124 A 
HETATM    7  N   UNL     1     -40.266  53.118 -52.657  1.00  0.00    -0.260 N 
HETATM    8  H   UNL     1     -40.034  52.629 -53.514  1.00  0.00     0.191 HD
HETATM    9  N   UNL     1     -40.119  52.482 -51.473  1.00  0.00    -0.177 NA
HETATM   10  C   UNL     1     -40.520  53.377 -50.557  1.00  0.00     0.068 A 
HETATM   11  C   UNL     1     -40.505  53.009 -49.122  1.00  0.00     0.073 C 
ENDROOT
BRANCH   2  12
HETATM   12  S   UNL     1     -41.785  57.548 -54.477  1.00  0.00    -0.082 SA
BRANCH  12  13
HETATM   13  C   UNL     1     -43.249  56.787 -55.220  1.00  0.00     0.185 C 
BRANCH  13  14
HETATM   14  C   UNL     1     -42.902  55.761 -56.292  1.00  0.00     0.227 C 
HETATM   15  N   UNL     1     -42.539  56.246 -57.527  1.00  0.00    -0.360 N 
HETATM   16  H   UNL     1     -42.366  55.522 -58.217  1.00  0.00     0.162 HD
HETATM   17  O   UNL     1     -42.902  54.542 -56.112  1.00  0.00    -0.273 OA
BRANCH  15  18
HETATM   18  C   UNL     1     -42.586  57.637 -57.947  1.00  0.00     0.127 C 
BRANCH  18  19
HETATM   19  C   UNL     1     -42.983  57.812 -59.413  1.00  0.00     0.058 C 
BRANCH  19  20
HETATM   20  C   UNL     1     -44.348  57.221 -59.670  1.00  0.00    -0.057 A 
HETATM   21  C   UNL     1     -44.505  56.150 -60.560  1.00  0.00     0.007 A 
HETATM   22  C   UNL     1     -45.774  55.637 -60.833  1.00  0.00     0.001 A 
HETATM   23  C   UNL     1     -46.898  56.192 -60.224  1.00  0.00     0.000 A 
HETATM   24  C   UNL     1     -46.754  57.256 -59.337  1.00  0.00     0.001 A 
HETATM   25  C   UNL     1     -45.486  57.768 -59.059  1.00  0.00     0.007 A 
ENDBRANCH  19  20
ENDBRANCH  18  19
ENDBRANCH  15  18
ENDBRANCH  13  14
ENDBRANCH  12  13
ENDBRANCH   2  12
BRANCH   1  26
HETATM   26  C   UNL     1     -42.230  58.085 -51.502  1.00  0.00     0.051 A 
HETATM   27  C   UNL     1     -41.415  59.177 -51.131  1.00  0.00    -0.035 A 
HETATM   28  C   UNL     1     -39.911  59.111 -51.149  1.00  0.00     0.050 C 
HETATM   29  C   UNL     1     -42.022  60.396 -50.789  1.00  0.00     0.011 A 
HETATM   30  C   UNL     1     -43.412  60.523 -50.769  1.00  0.00     0.024 A 
HETATM   31  C   UNL     1     -44.209  59.437 -51.111  1.00  0.00     0.036 A 
HETATM   32  C   UNL     1     -43.629  58.225 -51.479  1.00  0.00     0.054 A 
HETATM   33 CL   UNL     1     -45.922  59.581 -51.058  1.00  0.00    -0.084 Cl
ENDBRANCH   1  26
BRANCH   6  34
HETATM   34  N   UNL     1     -41.550  56.137 -49.479  1.00  0.00    -0.384 N 
HETATM   35  H   UNL     1     -42.421  56.491 -49.113  1.00  0.00     0.157 HD
HETATM   36  H   UNL     1     -40.782  55.994 -48.836  1.00  0.00     0.157 HD
ENDBRANCH   6  34
TORSDOF 8
ENDMDL
MODEL 9
REMARK VINA RESULT:      -7.9      3.809      6.371
REMARK  8 active torsions:
REMARK  status: ('A' for Active; 'I' for Inactive)
REMARK    1  A    between atoms: C_3  and  N_4 
REMARK    2  A    between atoms: C_5  and  S_6 
REMARK    3  A    between atoms: S_6  and  C_7 
REMARK    4  A    between atoms: C_7  and  C_8 
REMARK       I    between atoms: C_8  and  N_9 
REMARK    5  A    between atoms: N_9  and  C_10 
REMARK    6  A    between atoms: C_10  and  C_11 
REMARK    7  A    between atoms: C_11  and  C_12 
REMARK    8  A    between atoms: C_22  and  N_23 
ROOT
HETATM    1  N   UNL     1     -43.902  59.002 -58.837  1.00  0.00    -0.275 N 
HETATM    2  C   UNL     1     -43.789  59.219 -57.439  1.00  0.00     0.177 A 
HETATM    3  N   UNL     1     -42.975  60.065 -56.855  1.00  0.00    -0.204 NA
HETATM    4  C   UNL     1     -42.239  60.796 -57.722  1.00  0.00     0.162 A 
HETATM    5  C   UNL     1     -42.214  60.755 -59.089  1.00  0.00     0.081 A 
HETATM    6  C   UNL     1     -43.077  59.805 -59.725  1.00  0.00     0.124 A 
HETATM    7  N   UNL     1     -41.349  61.767 -57.376  1.00  0.00    -0.260 N 
HETATM    8  H   UNL     1     -41.109  62.085 -56.444  1.00  0.00     0.191 HD
HETATM    9  N   UNL     1     -40.750  62.342 -58.443  1.00  0.00    -0.177 NA
HETATM   10  C   UNL     1     -41.289  61.724 -59.506  1.00  0.00     0.068 A 
HETATM   11  C   UNL     1     -40.866  62.118 -60.870  1.00  0.00     0.073 C 
ENDROOT
BRANCH   2  12
HETATM   12  S   UNL     1     -44.778  58.249 -56.327  1.00  0.00    -0.082 SA
BRANCH  12  13
HETATM   13  C   UNL     1     -43.577  56.993 -55.821  1.00  0.00     0.185 C 
BRANCH  13  14
HETATM   14  C   UNL     1     -43.866  56.423 -54.437  1.00  0.00     0.227 C 
HETATM   15  N   UNL     1     -43.359  55.176 -54.156  1.00  0.00    -0.360 N 
HETATM   16  H   UNL     1     -43.622  54.824 -53.241  1.00  0.00     0.162 HD
HETATM   17  O   UNL     1     -44.495  57.017 -53.561  1.00  0.00    -0.273 OA
BRANCH  15  18
HETATM   18  C   UNL     1     -42.690  54.293 -55.098  1.00  0.00     0.127 C 
BRANCH  18  19
HETATM   19  C   UNL     1     -41.166  54.359 -55.008  1.00  0.00     0.058 C 
BRANCH  19  20
HETATM   20  C   UNL     1     -40.647  53.369 -53.994  1.00  0.00    -0.057 A 
HETATM   21  C   UNL     1     -40.553  53.718 -52.640  1.00  0.00     0.007 A 
HETATM   22  C   UNL     1     -40.028  52.817 -51.712  1.00  0.00     0.001 A 
HETATM   23  C   UNL     1     -39.588  51.562 -52.128  1.00  0.00     0.000 A 
HETATM   24  C   UNL     1     -39.678  51.203 -53.471  1.00  0.00     0.001 A 
HETATM   25  C   UNL     1     -40.205  52.101 -54.400  1.00  0.00     0.007 A 
ENDBRANCH  19  20
ENDBRANCH  18  19
ENDBRANCH  15  18
ENDBRANCH  13  14
ENDBRANCH  12  13
ENDBRANCH   2  12
BRANCH   1  26
HETATM   26  C   UNL     1     -44.836  58.067 -59.377  1.00  0.00     0.051 A 
HETATM   27  C   UNL     1     -46.145  58.449 -59.746  1.00  0.00    -0.035 A 
HETATM   28  C   UNL     1     -46.616  59.878 -59.706  1.00  0.00     0.050 C 
HETATM   29  C   UNL     1     -47.031  57.471 -60.227  1.00  0.00     0.011 A 
HETATM   30  C   UNL     1     -46.647  56.131 -60.302  1.00  0.00     0.024 A 
HETATM   31  C   UNL     1     -45.365  55.758 -59.914  1.00  0.00     0.036 A 
HETATM   32  C   UNL     1     -44.461  56.714 -59.457  1.00  0.00     0.054 A 
HETATM   33 CL   UNL     1     -44.899  54.105 -59.975  1.00  0.00    -0.084 Cl
ENDBRANCH   1  26
BRANCH   6  34
HETATM   34  N   UNL     1     -43.091  59.662 -61.037  1.00  0.00    -0.384 N 
HETATM   35  H   UNL     1     -42.265  59.396 -61.553  1.00  0.00     0.157 HD
HETATM   36  H   UNL     1     -43.949  59.814 -61.549  1.00  0.00     0.157 HD
ENDBRANCH   6  34
TORSDOF 8
ENDMDL
MODEL 10
REMARK VINA RESULT:      -7.9      2.813      6.756
REMARK  8 active torsions:
REMARK  status: ('A' for Active; 'I' for Inactive)
REMARK    1  A    between atoms: C_3  and  N_4 
REMARK    2  A    between atoms: C_5  and  S_6 
REMARK    3  A    between atoms: S_6  and  C_7 
REMARK    4  A    between atoms: C_7  and  C_8 
REMARK       I    between atoms: C_8  and  N_9 
REMARK    5  A    between atoms: N_9  and  C_10 
REMARK    6  A    between atoms: C_10  and  C_11 
REMARK    7  A    between atoms: C_11  and  C_12 
REMARK    8  A    between atoms: C_22  and  N_23 
ROOT
HETATM    1  N   UNL     1     -41.951  57.574 -52.219  1.00  0.00    -0.275 N 
HETATM    2  C   UNL     1     -41.597  57.584 -53.594  1.00  0.00     0.177 A 
HETATM    3  N   UNL     1     -41.076  56.584 -54.262  1.00  0.00    -0.204 NA
HETATM    4  C   UNL     1     -40.934  55.457 -53.527  1.00  0.00     0.162 A 
HETATM    5  C   UNL     1     -41.231  55.236 -52.210  1.00  0.00     0.081 A 
HETATM    6  C   UNL     1     -41.765  56.341 -51.472  1.00  0.00     0.124 A 
HETATM    7  N   UNL     1     -40.456  54.269 -53.991  1.00  0.00    -0.260 N 
HETATM    8  H   UNL     1     -40.143  54.051 -54.930  1.00  0.00     0.191 HD
HETATM    9  N   UNL     1     -40.421  53.306 -53.043  1.00  0.00    -0.177 NA
HETATM   10  C   UNL     1     -40.908  53.898 -51.941  1.00  0.00     0.068 A 
HETATM   11  C   UNL     1     -41.028  53.118 -50.687  1.00  0.00     0.073 C 
ENDROOT
BRANCH   2  12
HETATM   12  S   UNL     1     -41.805  59.077 -54.533  1.00  0.00    -0.082 SA
BRANCH  12  13
HETATM   13  C   UNL     1     -42.581  58.424 -56.033  1.00  0.00     0.185 C 
BRANCH  13  14
HETATM   14  C   UNL     1     -43.821  57.588 -55.739  1.00  0.00     0.227 C 
HETATM   15  N   UNL     1     -43.861  56.320 -56.271  1.00  0.00    -0.360 N 
HETATM   16  H   UNL     1     -44.728  55.825 -56.087  1.00  0.00     0.162 HD
HETATM   17  O   UNL     1     -44.764  57.967 -55.042  1.00  0.00    -0.273 OA
BRANCH  15  18
HETATM   18  C   UNL     1     -42.895  55.751 -57.197  1.00  0.00     0.127 C 
BRANCH  18  19
HETATM   19  C   UNL     1     -43.429  55.626 -58.624  1.00  0.00     0.058 C 
BRANCH  19  20
HETATM   20  C   UNL     1     -43.307  56.940 -59.356  1.00  0.00    -0.057 A 
HETATM   21  C   UNL     1     -44.442  57.719 -59.615  1.00  0.00     0.007 A 
HETATM   22  C   UNL     1     -44.334  58.911 -60.335  1.00  0.00     0.001 A 
HETATM   23  C   UNL     1     -43.092  59.331 -60.807  1.00  0.00     0.000 A 
HETATM   24  C   UNL     1     -41.956  58.564 -60.556  1.00  0.00     0.001 A 
HETATM   25  C   UNL     1     -42.062  57.374 -59.833  1.00  0.00     0.007 A 
ENDBRANCH  19  20
ENDBRANCH  18  19
ENDBRANCH  15  18
ENDBRANCH  13  14
ENDBRANCH  12  13
ENDBRANCH   2  12
BRANCH   1  26
HETATM   26  C   UNL     1     -42.531  58.716 -51.588  1.00  0.00     0.051 A 
HETATM   27  C   UNL     1     -41.760  59.618 -50.822  1.00  0.00    -0.035 A 
HETATM   28  C   UNL     1     -40.262  59.512 -50.707  1.00  0.00     0.050 C 
HETATM   29  C   UNL     1     -42.400  60.696 -50.189  1.00  0.00     0.011 A 
HETATM   30  C   UNL     1     -43.784  60.856 -50.271  1.00  0.00     0.024 A 
HETATM   31  C   UNL     1     -44.540  59.950 -51.006  1.00  0.00     0.036 A 
HETATM   32  C   UNL     1     -43.925  58.888 -51.664  1.00  0.00     0.054 A 
HETATM   33 CL   UNL     1     -46.249  60.127 -51.085  1.00  0.00    -0.084 Cl
ENDBRANCH   1  26
BRANCH   6  34
HETATM   34  N   UNL     1     -42.041  56.237 -50.186  1.00  0.00    -0.384 N 
HETATM   35  H   UNL     1     -42.769  55.627 -49.844  1.00  0.00     0.157 HD
HETATM   36  H   UNL     1     -41.509  56.774 -49.514  1.00  0.00     0.157 HD
ENDBRANCH   6  34
TORSDOF 8
ENDMDL
