MODEL 1
REMARK VINA RESULT:      -8.3      0.000      0.000
REMARK  5 active torsions:
REMARK  status: ('A' for Active; 'I' for Inactive)
REMARK    1  A    between atoms: C_6  and  O_7 
REMARK    2  A    between atoms: O_7  and  C_8 
REMARK    3  A    between atoms: C_8  and  C_9 
REMARK       I    between atoms: C_9  and  N_10 
REMARK    4  A    between atoms: N_10  and  N_11 
REMARK    5  A    between atoms: C_12  and  C_13 
ROOT
HETATM    1  C   UNL     1     -42.091  54.898 -55.746  1.00  0.00     0.261 C 
HETATM    2  N   UNL     1     -42.080  55.768 -56.828  1.00  0.00    -0.246 N 
HETATM    3  O   UNL     1     -43.063  54.251 -55.363  1.00  0.00    -0.269 OA
HETATM    4  H   UNL     1     -41.233  56.288 -57.042  1.00  0.00     0.192 HD
ENDROOT
BRANCH   2   5
HETATM    5  N   UNL     1     -43.221  55.966 -57.547  1.00  0.00    -0.184 NA
HETATM    6  C   UNL     1     -43.120  55.855 -58.831  1.00  0.00     0.152 C 
BRANCH   6   7
HETATM    7  C   UNL     1     -44.302  56.049 -59.648  1.00  0.00     0.011 A 
HETATM    8  C   UNL     1     -45.262  57.109 -59.572  1.00  0.00     0.005 A 
HETATM    9  C   UNL     1     -46.217  56.881 -60.567  1.00  0.00     0.043 A 
HETATM   10  C   UNL     1     -45.404  58.256 -58.761  1.00  0.00     0.033 A 
HETATM   11  C   UNL     1     -47.305  57.732 -60.792  1.00  0.00     0.031 A 
HETATM   12  N   UNL     1     -45.856  55.723 -61.218  1.00  0.00    -0.364 N 
HETATM   13  C   UNL     1     -47.423  58.862 -59.977  1.00  0.00     0.021 A 
HETATM   14  C   UNL     1     -46.485  59.116 -58.979  1.00  0.00     0.012 A 
HETATM   15 BR   UNL     1     -46.671  60.661 -57.901  1.00  0.00    -0.051 Br
HETATM   16  H   UNL     1     -46.363  55.313 -61.989  1.00  0.00     0.165 HD
HETATM   17  C   UNL     1     -44.706  55.220 -60.679  1.00  0.00     0.102 A 
ENDBRANCH   6   7
ENDBRANCH   2   5
BRANCH   1  18
HETATM   18  C   UNL     1     -40.715  54.716 -55.113  1.00  0.00     0.280 C 
BRANCH  18  19
HETATM   19  O   UNL     1     -40.803  54.682 -53.689  1.00  0.00    -0.342 OA
BRANCH  19  20
HETATM   20  C   UNL     1     -40.451  53.473 -53.147  1.00  0.00     0.069 A 
HETATM   21  C   UNL     1     -40.156  52.335 -53.900  1.00  0.00     0.044 A 
HETATM   22  C   UNL     1     -39.786  51.131 -53.273  1.00  0.00    -0.053 A 
HETATM   23  C   UNL     1     -39.728  51.074 -51.867  1.00  0.00    -0.056 A 
HETATM   24  C   UNL     1     -39.486  49.925 -54.123  1.00  0.00     0.049 C 
HETATM   25  C   UNL     1     -39.345  49.810 -51.145  1.00  0.00     0.049 C 
HETATM   26  C   UNL     1     -39.995  52.233 -51.124  1.00  0.00     0.010 A 
HETATM   27  C   UNL     1     -40.347  53.426 -51.761  1.00  0.00     0.037 A 
ENDBRANCH  19  20
ENDBRANCH  18  19
ENDBRANCH   1  18
TORSDOF 5
ENDMDL
MODEL 2
REMARK VINA RESULT:      -8.2      3.051      9.551
REMARK  5 active torsions:
REMARK  status: ('A' for Active; 'I' for Inactive)
REMARK    1  A    between atoms: C_6  and  O_7 
REMARK    2  A    between atoms: O_7  and  C_8 
REMARK    3  A    between atoms: C_8  and  C_9 
REMARK       I    between atoms: C_9  and  N_10 
REMARK    4  A    between atoms: N_10  and  N_11 
REMARK    5  A    between atoms: C_12  and  C_13 
ROOT
HETATM    1  C   UNL     1     -42.790  56.224 -56.033  1.00  0.00     0.261 C 
HETATM    2  N   UNL     1     -41.793  55.275 -56.211  1.00  0.00    -0.246 N 
HETATM    3  O   UNL     1     -43.570  56.269 -55.084  1.00  0.00    -0.269 OA
HETATM    4  H   UNL     1     -41.222  55.303 -57.051  1.00  0.00     0.192 HD
ENDROOT
BRANCH   2   5
HETATM    5  N   UNL     1     -41.635  54.281 -55.292  1.00  0.00    -0.184 NA
HETATM    6  C   UNL     1     -40.423  53.895 -55.063  1.00  0.00     0.152 C 
BRANCH   6   7
HETATM    7  C   UNL     1     -40.192  52.844 -54.090  1.00  0.00     0.011 A 
HETATM    8  C   UNL     1     -40.297  52.926 -52.664  1.00  0.00     0.005 A 
HETATM    9  C   UNL     1     -39.994  51.661 -52.150  1.00  0.00     0.043 A 
HETATM   10  C   UNL     1     -40.636  53.952 -51.756  1.00  0.00     0.033 A 
HETATM   11  C   UNL     1     -40.009  51.369 -50.781  1.00  0.00     0.031 A 
HETATM   12  N   UNL     1     -39.711  50.845 -53.221  1.00  0.00    -0.364 N 
HETATM   13  C   UNL     1     -40.350  52.402 -49.902  1.00  0.00     0.021 A 
HETATM   14  C   UNL     1     -40.658  53.670 -50.385  1.00  0.00     0.012 A 
HETATM   15 BR   UNL     1     -41.125  55.041 -49.167  1.00  0.00    -0.051 Br
HETATM   16  H   UNL     1     -39.459  49.869 -53.152  1.00  0.00     0.165 HD
HETATM   17  C   UNL     1     -39.832  51.543 -54.389  1.00  0.00     0.102 A 
ENDBRANCH   6   7
ENDBRANCH   2   5
BRANCH   1  18
HETATM   18  C   UNL     1     -42.768  57.319 -57.095  1.00  0.00     0.280 C 
BRANCH  18  19
HETATM   19  O   UNL     1     -44.017  58.010 -57.150  1.00  0.00    -0.342 OA
BRANCH  19  20
HETATM   20  C   UNL     1     -44.821  57.606 -58.184  1.00  0.00     0.069 A 
HETATM   21  C   UNL     1     -44.479  56.605 -59.095  1.00  0.00     0.044 A 
HETATM   22  C   UNL     1     -45.365  56.232 -60.123  1.00  0.00    -0.053 A 
HETATM   23  C   UNL     1     -46.606  56.889 -60.237  1.00  0.00    -0.056 A 
HETATM   24  C   UNL     1     -44.952  55.156 -61.091  1.00  0.00     0.049 C 
HETATM   25  C   UNL     1     -47.589  56.533 -61.320  1.00  0.00     0.049 C 
HETATM   26  C   UNL     1     -46.951  57.869 -59.294  1.00  0.00     0.010 A 
HETATM   27  C   UNL     1     -46.067  58.219 -58.270  1.00  0.00     0.037 A 
ENDBRANCH  19  20
ENDBRANCH  18  19
ENDBRANCH   1  18
TORSDOF 5
ENDMDL
MODEL 3
REMARK VINA RESULT:      -8.1      3.607      9.443
REMARK  5 active torsions:
REMARK  status: ('A' for Active; 'I' for Inactive)
REMARK    1  A    between atoms: C_6  and  O_7 
REMARK    2  A    between atoms: O_7  and  C_8 
REMARK    3  A    between atoms: C_8  and  C_9 
REMARK       I    between atoms: C_9  and  N_10 
REMARK    4  A    between atoms: N_10  and  N_11 
REMARK    5  A    between atoms: C_12  and  C_13 
ROOT
HETATM    1  C   UNL     1     -42.125  58.687 -55.515  1.00  0.00     0.261 C 
HETATM    2  N   UNL     1     -42.539  57.396 -55.217  1.00  0.00    -0.246 N 
HETATM    3  O   UNL     1     -41.421  59.392 -54.795  1.00  0.00    -0.269 OA
HETATM    4  H   UNL     1     -43.153  56.908 -55.864  1.00  0.00     0.192 HD
ENDROOT
BRANCH   2   5
HETATM    5  N   UNL     1     -42.173  56.824 -54.035  1.00  0.00    -0.184 NA
HETATM    6  C   UNL     1     -41.634  55.652 -54.104  1.00  0.00     0.152 C 
BRANCH   6   7
HETATM    7  C   UNL     1     -41.218  54.996 -52.879  1.00  0.00     0.011 A 
HETATM    8  C   UNL     1     -40.703  53.669 -52.721  1.00  0.00     0.005 A 
HETATM    9  C   UNL     1     -40.430  53.486 -51.362  1.00  0.00     0.043 A 
HETATM   10  C   UNL     1     -40.426  52.605 -53.607  1.00  0.00     0.033 A 
HETATM   11  C   UNL     1     -39.901  52.299 -50.843  1.00  0.00     0.031 A 
HETATM   12  N   UNL     1     -40.772  54.653 -50.719  1.00  0.00    -0.364 N 
HETATM   13  C   UNL     1     -39.633  51.261 -51.740  1.00  0.00     0.021 A 
HETATM   14  C   UNL     1     -39.892  51.416 -53.099  1.00  0.00     0.012 A 
HETATM   15 BR   UNL     1     -39.508  49.993 -54.287  1.00  0.00    -0.051 Br
HETATM   16  H   UNL     1     -40.680  54.812 -49.725  1.00  0.00     0.165 HD
HETATM   17  C   UNL     1     -41.240  55.567 -51.620  1.00  0.00     0.102 A 
ENDBRANCH   6   7
ENDBRANCH   2   5
BRANCH   1  18
HETATM   18  C   UNL     1     -42.535  59.139 -56.912  1.00  0.00     0.280 C 
BRANCH  18  19
HETATM   19  O   UNL     1     -42.255  58.131 -57.884  1.00  0.00    -0.342 OA
BRANCH  19  20
HETATM   20  C   UNL     1     -43.375  57.638 -58.501  1.00  0.00     0.069 A 
HETATM   21  C   UNL     1     -43.515  56.318 -58.932  1.00  0.00     0.044 A 
HETATM   22  C   UNL     1     -44.704  55.880 -59.544  1.00  0.00    -0.053 A 
HETATM   23  C   UNL     1     -45.759  56.794 -59.734  1.00  0.00    -0.056 A 
HETATM   24  C   UNL     1     -44.807  54.451 -60.004  1.00  0.00     0.049 C 
HETATM   25  C   UNL     1     -47.050  56.379 -60.388  1.00  0.00     0.049 C 
HETATM   26  C   UNL     1     -45.619  58.108 -59.266  1.00  0.00     0.010 A 
HETATM   27  C   UNL     1     -44.438  58.525 -58.647  1.00  0.00     0.037 A 
ENDBRANCH  19  20
ENDBRANCH  18  19
ENDBRANCH   1  18
TORSDOF 5
ENDMDL
MODEL 4
REMARK VINA RESULT:      -8.0      2.330      2.946
REMARK  5 active torsions:
REMARK  status: ('A' for Active; 'I' for Inactive)
REMARK    1  A    between atoms: C_6  and  O_7 
REMARK    2  A    between atoms: O_7  and  C_8 
REMARK    3  A    between atoms: C_8  and  C_9 
REMARK       I    between atoms: C_9  and  N_10 
REMARK    4  A    between atoms: N_10  and  N_11 
REMARK    5  A    between atoms: C_12  and  C_13 
ROOT
HETATM    1  C   UNL     1     -42.420  56.310 -54.145  1.00  0.00     0.261 C 
HETATM    2  N   UNL     1     -43.241  55.741 -55.110  1.00  0.00    -0.246 N 
HETATM    3  O   UNL     1     -41.928  57.435 -54.203  1.00  0.00    -0.269 OA
HETATM    4  H   UNL     1     -43.568  54.786 -54.986  1.00  0.00     0.192 HD
ENDROOT
BRANCH   2   5
HETATM    5  N   UNL     1     -43.543  56.441 -56.239  1.00  0.00    -0.184 NA
HETATM    6  C   UNL     1     -43.078  55.972 -57.350  1.00  0.00     0.152 C 
BRANCH   6   7
HETATM    7  C   UNL     1     -43.371  56.671 -58.586  1.00  0.00     0.011 A 
HETATM    8  C   UNL     1     -42.973  57.993 -58.966  1.00  0.00     0.005 A 
HETATM    9  C   UNL     1     -43.478  58.229 -60.249  1.00  0.00     0.043 A 
HETATM   10  C   UNL     1     -42.216  59.012 -58.348  1.00  0.00     0.033 A 
HETATM   11  C   UNL     1     -43.270  59.426 -60.942  1.00  0.00     0.031 A 
HETATM   12  N   UNL     1     -44.160  57.097 -60.630  1.00  0.00    -0.364 N 
HETATM   13  C   UNL     1     -42.516  60.420 -60.311  1.00  0.00     0.021 A 
HETATM   14  C   UNL     1     -41.998  60.212 -59.035  1.00  0.00     0.012 A 
HETATM   15 BR   UNL     1     -40.974  61.575 -58.214  1.00  0.00    -0.051 Br
HETATM   16  H   UNL     1     -44.631  56.979 -61.517  1.00  0.00     0.165 HD
HETATM   17  C   UNL     1     -44.097  56.155 -59.644  1.00  0.00     0.102 A 
ENDBRANCH   6   7
ENDBRANCH   2   5
BRANCH   1  18
HETATM   18  C   UNL     1     -42.263  55.437 -52.905  1.00  0.00     0.280 C 
BRANCH  18  19
HETATM   19  O   UNL     1     -40.887  55.156 -52.642  1.00  0.00    -0.342 OA
BRANCH  19  20
HETATM   20  C   UNL     1     -40.534  53.858 -52.905  1.00  0.00     0.069 A 
HETATM   21  C   UNL     1     -40.229  52.916 -51.922  1.00  0.00     0.044 A 
HETATM   22  C   UNL     1     -39.890  51.595 -52.268  1.00  0.00    -0.053 A 
HETATM   23  C   UNL     1     -39.845  51.227 -53.628  1.00  0.00    -0.056 A 
HETATM   24  C   UNL     1     -39.557  50.614 -51.176  1.00  0.00     0.049 C 
HETATM   25  C   UNL     1     -39.482  49.830 -54.054  1.00  0.00     0.049 C 
HETATM   26  C   UNL     1     -40.186  52.175 -54.604  1.00  0.00     0.010 A 
HETATM   27  C   UNL     1     -40.535  53.479 -54.244  1.00  0.00     0.037 A 
ENDBRANCH  19  20
ENDBRANCH  18  19
ENDBRANCH   1  18
TORSDOF 5
ENDMDL
MODEL 5
REMARK VINA RESULT:      -8.0      2.692      2.892
REMARK  5 active torsions:
REMARK  status: ('A' for Active; 'I' for Inactive)
REMARK    1  A    between atoms: C_6  and  O_7 
REMARK    2  A    between atoms: O_7  and  C_8 
REMARK    3  A    between atoms: C_8  and  C_9 
REMARK       I    between atoms: C_9  and  N_10 
REMARK    4  A    between atoms: N_10  and  N_11 
REMARK    5  A    between atoms: C_12  and  C_13 
ROOT
HETATM    1  C   UNL     1     -42.816  55.944 -54.989  1.00  0.00     0.261 C 
HETATM    2  N   UNL     1     -42.091  56.014 -56.171  1.00  0.00    -0.246 N 
HETATM    3  O   UNL     1     -44.012  56.201 -54.872  1.00  0.00    -0.269 OA
HETATM    4  H   UNL     1     -41.094  55.818 -56.157  1.00  0.00     0.192 HD
ENDROOT
BRANCH   2   5
HETATM    5  N   UNL     1     -42.709  56.410 -57.320  1.00  0.00    -0.184 NA
HETATM    6  C   UNL     1     -42.540  57.643 -57.670  1.00  0.00     0.152 C 
BRANCH   6   7
HETATM    7  C   UNL     1     -43.168  58.120 -58.887  1.00  0.00     0.011 A 
HETATM    8  C   UNL     1     -42.837  59.287 -59.650  1.00  0.00     0.005 A 
HETATM    9  C   UNL     1     -43.705  59.329 -60.745  1.00  0.00     0.043 A 
HETATM   10  C   UNL     1     -41.870  60.307 -59.524  1.00  0.00     0.033 A 
HETATM   11  C   UNL     1     -43.660  60.336 -61.716  1.00  0.00     0.031 A 
HETATM   12  N   UNL     1     -44.535  58.236 -60.648  1.00  0.00    -0.364 N 
HETATM   13  C   UNL     1     -42.693  61.334 -61.571  1.00  0.00     0.021 A 
HETATM   14  C   UNL     1     -41.813  61.316 -60.492  1.00  0.00     0.012 A 
HETATM   15 BR   UNL     1     -40.509  62.678 -60.332  1.00  0.00    -0.051 Br
HETATM   16  H   UNL     1     -45.266  58.006 -61.307  1.00  0.00     0.165 HD
HETATM   17  C   UNL     1     -44.217  57.501 -59.541  1.00  0.00     0.102 A 
ENDBRANCH   6   7
ENDBRANCH   2   5
BRANCH   1  18
HETATM   18  C   UNL     1     -42.003  55.393 -53.822  1.00  0.00     0.280 C 
BRANCH  18  19
HETATM   19  O   UNL     1     -40.778  54.816 -54.274  1.00  0.00    -0.342 OA
BRANCH  19  20
HETATM   20  C   UNL     1     -40.466  53.636 -53.650  1.00  0.00     0.069 A 
HETATM   21  C   UNL     1     -40.204  52.441 -54.323  1.00  0.00     0.044 A 
HETATM   22  C   UNL     1     -39.874  51.271 -53.614  1.00  0.00    -0.053 A 
HETATM   23  C   UNL     1     -39.822  51.308 -52.206  1.00  0.00    -0.056 A 
HETATM   24  C   UNL     1     -39.610  50.002 -54.378  1.00  0.00     0.049 C 
HETATM   25  C   UNL     1     -39.480  50.085 -51.399  1.00  0.00     0.049 C 
HETATM   26  C   UNL     1     -40.054  52.523 -51.545  1.00  0.00     0.010 A 
HETATM   27  C   UNL     1     -40.366  53.680 -52.263  1.00  0.00     0.037 A 
ENDBRANCH  19  20
ENDBRANCH  18  19
ENDBRANCH   1  18
TORSDOF 5
ENDMDL
MODEL 6
REMARK VINA RESULT:      -7.9      3.424     10.358
REMARK  5 active torsions:
REMARK  status: ('A' for Active; 'I' for Inactive)
REMARK    1  A    between atoms: C_6  and  O_7 
REMARK    2  A    between atoms: O_7  and  C_8 
REMARK    3  A    between atoms: C_8  and  C_9 
REMARK       I    between atoms: C_9  and  N_10 
REMARK    4  A    between atoms: N_10  and  N_11 
REMARK    5  A    between atoms: C_12  and  C_13 
ROOT
HETATM    1  C   UNL     1     -43.172  56.706 -57.546  1.00  0.00     0.261 C 
HETATM    2  N   UNL     1     -43.194  55.490 -56.876  1.00  0.00    -0.246 N 
HETATM    3  O   UNL     1     -42.458  57.665 -57.258  1.00  0.00    -0.269 OA
HETATM    4  H   UNL     1     -43.849  54.770 -57.170  1.00  0.00     0.192 HD
ENDROOT
BRANCH   2   5
HETATM    5  N   UNL     1     -42.388  55.301 -55.793  1.00  0.00    -0.184 NA
HETATM    6  C   UNL     1     -42.945  54.798 -54.741  1.00  0.00     0.152 C 
BRANCH   6   7
HETATM    7  C   UNL     1     -42.136  54.568 -53.559  1.00  0.00     0.011 A 
HETATM    8  C   UNL     1     -41.268  53.461 -53.289  1.00  0.00     0.005 A 
HETATM    9  C   UNL     1     -40.692  53.680 -52.033  1.00  0.00     0.043 A 
HETATM   10  C   UNL     1     -40.901  52.298 -53.998  1.00  0.00     0.033 A 
HETATM   11  C   UNL     1     -39.775  52.799 -51.450  1.00  0.00     0.031 A 
HETATM   12  N   UNL     1     -41.196  54.869 -51.558  1.00  0.00    -0.364 N 
HETATM   13  C   UNL     1     -39.426  51.654 -52.173  1.00  0.00     0.021 A 
HETATM   14  C   UNL     1     -39.981  51.411 -53.426  1.00  0.00     0.012 A 
HETATM   15 BR   UNL     1     -39.478  49.857 -54.381  1.00  0.00    -0.051 Br
HETATM   16  H   UNL     1     -40.954  55.283 -50.668  1.00  0.00     0.165 HD
HETATM   17  C   UNL     1     -42.058  55.412 -52.467  1.00  0.00     0.102 A 
ENDBRANCH   6   7
ENDBRANCH   2   5
BRANCH   1  18
HETATM   18  C   UNL     1     -44.056  56.719 -58.788  1.00  0.00     0.280 C 
BRANCH  18  19
HETATM   19  O   UNL     1     -44.903  57.869 -58.807  1.00  0.00    -0.342 OA
BRANCH  19  20
HETATM   20  C   UNL     1     -45.930  57.778 -59.710  1.00  0.00     0.069 A 
HETATM   21  C   UNL     1     -46.615  58.878 -60.229  1.00  0.00     0.044 A 
HETATM   22  C   UNL     1     -47.650  58.706 -61.167  1.00  0.00    -0.053 A 
HETATM   23  C   UNL     1     -48.005  57.405 -61.573  1.00  0.00    -0.056 A 
HETATM   24  C   UNL     1     -48.370  59.919 -61.693  1.00  0.00     0.049 C 
HETATM   25  C   UNL     1     -49.108  57.164 -62.568  1.00  0.00     0.049 C 
HETATM   26  C   UNL     1     -47.286  56.311 -61.069  1.00  0.00     0.010 A 
HETATM   27  C   UNL     1     -46.251  56.497 -60.150  1.00  0.00     0.037 A 
ENDBRANCH  19  20
ENDBRANCH  18  19
ENDBRANCH   1  18
TORSDOF 5
ENDMDL
MODEL 7
REMARK VINA RESULT:      -7.9      3.369      9.984
REMARK  5 active torsions:
REMARK  status: ('A' for Active; 'I' for Inactive)
REMARK    1  A    between atoms: C_6  and  O_7 
REMARK    2  A    between atoms: O_7  and  C_8 
REMARK    3  A    between atoms: C_8  and  C_9 
REMARK       I    between atoms: C_9  and  N_10 
REMARK    4  A    between atoms: N_10  and  N_11 
REMARK    5  A    between atoms: C_12  and  C_13 
ROOT
HETATM    1  C   UNL     1     -42.391  55.753 -56.084  1.00  0.00     0.261 C 
HETATM    2  N   UNL     1     -41.474  56.178 -55.133  1.00  0.00    -0.246 N 
HETATM    3  O   UNL     1     -42.867  54.622 -56.158  1.00  0.00    -0.269 OA
HETATM    4  H   UNL     1     -41.111  57.127 -55.180  1.00  0.00     0.192 HD
ENDROOT
BRANCH   2   5
HETATM    5  N   UNL     1     -41.021  55.303 -54.192  1.00  0.00    -0.184 NA
HETATM    6  C   UNL     1     -41.604  55.343 -53.039  1.00  0.00     0.152 C 
BRANCH   6   7
HETATM    7  C   UNL     1     -41.170  54.431 -51.999  1.00  0.00     0.011 A 
HETATM    8  C   UNL     1     -40.657  53.102 -52.151  1.00  0.00     0.005 A 
HETATM    9  C   UNL     1     -40.361  52.620 -50.872  1.00  0.00     0.043 A 
HETATM   10  C   UNL     1     -40.399  52.264 -53.257  1.00  0.00     0.033 A 
HETATM   11  C   UNL     1     -39.827  51.348 -50.641  1.00  0.00     0.031 A 
HETATM   12  N   UNL     1     -40.687  53.614 -49.979  1.00  0.00    -0.364 N 
HETATM   13  C   UNL     1     -39.579  50.537 -51.752  1.00  0.00     0.021 A 
HETATM   14  C   UNL     1     -39.861  50.991 -53.037  1.00  0.00     0.012 A 
HETATM   15 BR   UNL     1     -39.503  49.869 -54.519  1.00  0.00    -0.051 Br
HETATM   16  H   UNL     1     -40.577  53.547 -48.976  1.00  0.00     0.165 HD
HETATM   17  C   UNL     1     -41.167  54.706 -50.644  1.00  0.00     0.102 A 
ENDBRANCH   6   7
ENDBRANCH   2   5
BRANCH   1  18
HETATM   18  C   UNL     1     -42.868  56.876 -56.999  1.00  0.00     0.280 C 
BRANCH  18  19
HETATM   19  O   UNL     1     -42.773  56.499 -58.373  1.00  0.00    -0.342 OA
BRANCH  19  20
HETATM   20  C   UNL     1     -43.970  56.552 -59.039  1.00  0.00     0.069 A 
HETATM   21  C   UNL     1     -44.936  57.539 -58.834  1.00  0.00     0.044 A 
HETATM   22  C   UNL     1     -46.136  57.538 -59.569  1.00  0.00    -0.053 A 
HETATM   23  C   UNL     1     -46.367  56.516 -60.511  1.00  0.00    -0.056 A 
HETATM   24  C   UNL     1     -47.154  58.615 -59.309  1.00  0.00     0.049 C 
HETATM   25  C   UNL     1     -47.636  56.463 -61.319  1.00  0.00     0.049 C 
HETATM   26  C   UNL     1     -45.375  55.549 -60.730  1.00  0.00     0.010 A 
HETATM   27  C   UNL     1     -44.182  55.572 -60.004  1.00  0.00     0.037 A 
ENDBRANCH  19  20
ENDBRANCH  18  19
ENDBRANCH   1  18
TORSDOF 5
ENDMDL
MODEL 8
REMARK VINA RESULT:      -7.7      3.905      9.809
REMARK  5 active torsions:
REMARK  status: ('A' for Active; 'I' for Inactive)
REMARK    1  A    between atoms: C_6  and  O_7 
REMARK    2  A    between atoms: O_7  and  C_8 
REMARK    3  A    between atoms: C_8  and  C_9 
REMARK       I    between atoms: C_9  and  N_10 
REMARK    4  A    between atoms: N_10  and  N_11 
REMARK    5  A    between atoms: C_12  and  C_13 
ROOT
HETATM    1  C   UNL     1     -43.058  56.395 -55.766  1.00  0.00     0.261 C 
HETATM    2  N   UNL     1     -42.068  55.466 -56.052  1.00  0.00    -0.246 N 
HETATM    3  O   UNL     1     -43.744  56.414 -54.745  1.00  0.00    -0.269 OA
HETATM    4  H   UNL     1     -41.581  55.514 -56.943  1.00  0.00     0.192 HD
ENDROOT
BRANCH   2   5
HETATM    5  N   UNL     1     -41.807  54.462 -55.167  1.00  0.00    -0.184 NA
HETATM    6  C   UNL     1     -40.592  54.020 -55.138  1.00  0.00     0.152 C 
BRANCH   6   7
HETATM    7  C   UNL     1     -40.254  52.957 -54.212  1.00  0.00     0.011 A 
HETATM    8  C   UNL     1     -40.326  52.978 -52.782  1.00  0.00     0.005 A 
HETATM    9  C   UNL     1     -39.911  51.724 -52.324  1.00  0.00     0.043 A 
HETATM   10  C   UNL     1     -40.721  53.940 -51.827  1.00  0.00     0.033 A 
HETATM   11  C   UNL     1     -39.866  51.382 -50.968  1.00  0.00     0.031 A 
HETATM   12  N   UNL     1     -39.593  50.973 -53.432  1.00  0.00    -0.364 N 
HETATM   13  C   UNL     1     -40.264  52.351 -50.042  1.00  0.00     0.021 A 
HETATM   14  C   UNL     1     -40.684  53.608 -50.468  1.00  0.00     0.012 A 
HETATM   15 BR   UNL     1     -41.225  54.892 -49.187  1.00  0.00    -0.051 Br
HETATM   16  H   UNL     1     -39.263  50.017 -53.406  1.00  0.00     0.165 HD
HETATM   17  C   UNL     1     -39.800  51.700 -54.569  1.00  0.00     0.102 A 
ENDBRANCH   6   7
ENDBRANCH   2   5
BRANCH   1  18
HETATM   18  C   UNL     1     -43.155  57.504 -56.808  1.00  0.00     0.280 C 
BRANCH  18  19
HETATM   19  O   UNL     1     -42.180  57.333 -57.837  1.00  0.00    -0.342 OA
BRANCH  19  20
HETATM   20  C   UNL     1     -42.026  58.437 -58.635  1.00  0.00     0.069 A 
HETATM   21  C   UNL     1     -41.780  59.723 -58.152  1.00  0.00     0.044 A 
HETATM   22  C   UNL     1     -41.617  60.807 -59.034  1.00  0.00    -0.053 A 
HETATM   23  C   UNL     1     -41.719  60.588 -60.423  1.00  0.00    -0.056 A 
HETATM   24  C   UNL     1     -41.364  62.179 -58.471  1.00  0.00     0.049 C 
HETATM   25  C   UNL     1     -41.559  61.712 -61.411  1.00  0.00     0.049 C 
HETATM   26  C   UNL     1     -41.933  59.285 -60.896  1.00  0.00     0.010 A 
HETATM   27  C   UNL     1     -42.078  58.216 -60.007  1.00  0.00     0.037 A 
ENDBRANCH  19  20
ENDBRANCH  18  19
ENDBRANCH   1  18
TORSDOF 5
ENDMDL
MODEL 9
REMARK VINA RESULT:      -7.5      6.635      7.853
REMARK  5 active torsions:
REMARK  status: ('A' for Active; 'I' for Inactive)
REMARK    1  A    between atoms: C_6  and  O_7 
REMARK    2  A    between atoms: O_7  and  C_8 
REMARK    3  A    between atoms: C_8  and  C_9 
REMARK       I    between atoms: C_9  and  N_10 
REMARK    4  A    between atoms: N_10  and  N_11 
REMARK    5  A    between atoms: C_12  and  C_13 
ROOT
HETATM    1  C   UNL     1     -41.897  57.065 -52.729  1.00  0.00     0.261 C 
HETATM    2  N   UNL     1     -43.058  57.806 -52.901  1.00  0.00    -0.246 N 
HETATM    3  O   UNL     1     -40.816  57.513 -52.354  1.00  0.00    -0.269 OA
HETATM    4  H   UNL     1     -43.895  57.348 -53.251  1.00  0.00     0.192 HD
ENDROOT
BRANCH   2   5
HETATM    5  N   UNL     1     -43.045  59.148 -52.663  1.00  0.00    -0.184 NA
HETATM    6  C   UNL     1     -43.615  59.546 -51.573  1.00  0.00     0.152 C 
BRANCH   6   7
HETATM    7  C   UNL     1     -43.626  60.963 -51.263  1.00  0.00     0.011 A 
HETATM    8  C   UNL     1     -44.043  61.595 -50.047  1.00  0.00     0.005 A 
HETATM    9  C   UNL     1     -43.863  62.972 -50.210  1.00  0.00     0.043 A 
HETATM   10  C   UNL     1     -44.543  61.128 -48.812  1.00  0.00     0.033 A 
HETATM   11  C   UNL     1     -44.159  63.904 -49.209  1.00  0.00     0.031 A 
HETATM   12  N   UNL     1     -43.363  63.169 -51.476  1.00  0.00    -0.364 N 
HETATM   13  C   UNL     1     -44.651  63.417 -47.994  1.00  0.00     0.021 A 
HETATM   14  C   UNL     1     -44.838  62.051 -47.803  1.00  0.00     0.012 A 
HETATM   15 BR   UNL     1     -45.497  61.426 -46.142  1.00  0.00    -0.051 Br
HETATM   16  H   UNL     1     -43.132  64.070 -51.872  1.00  0.00     0.165 HD
HETATM   17  C   UNL     1     -43.211  61.971 -52.114  1.00  0.00     0.102 A 
ENDBRANCH   6   7
ENDBRANCH   2   5
BRANCH   1  18
HETATM   18  C   UNL     1     -42.107  55.569 -52.940  1.00  0.00     0.280 C 
BRANCH  18  19
HETATM   19  O   UNL     1     -41.008  54.988 -53.643  1.00  0.00    -0.342 OA
BRANCH  19  20
HETATM   20  C   UNL     1     -40.615  53.776 -53.139  1.00  0.00     0.069 A 
HETATM   21  C   UNL     1     -40.337  52.655 -53.924  1.00  0.00     0.044 A 
HETATM   22  C   UNL     1     -39.922  51.447 -53.335  1.00  0.00    -0.053 A 
HETATM   23  C   UNL     1     -39.800  51.368 -51.933  1.00  0.00    -0.056 A 
HETATM   24  C   UNL     1     -39.644  50.260 -54.217  1.00  0.00     0.049 C 
HETATM   25  C   UNL     1     -39.366  50.098 -51.251  1.00  0.00     0.049 C 
HETATM   26  C   UNL     1     -40.050  52.511 -51.159  1.00  0.00     0.010 A 
HETATM   27  C   UNL     1     -40.447  53.708 -51.760  1.00  0.00     0.037 A 
ENDBRANCH  19  20
ENDBRANCH  18  19
ENDBRANCH   1  18
TORSDOF 5
ENDMDL
MODEL 10
REMARK VINA RESULT:      -7.4      4.356      9.030
REMARK  5 active torsions:
REMARK  status: ('A' for Active; 'I' for Inactive)
REMARK    1  A    between atoms: C_6  and  O_7 
REMARK    2  A    between atoms: O_7  and  C_8 
REMARK    3  A    between atoms: C_8  and  C_9 
REMARK       I    between atoms: C_9  and  N_10 
REMARK    4  A    between atoms: N_10  and  N_11 
REMARK    5  A    between atoms: C_12  and  C_13 
ROOT
HETATM    1  C   UNL     1     -42.563  55.461 -55.822  1.00  0.00     0.261 C 
HETATM    2  N   UNL     1     -41.317  54.928 -55.520  1.00  0.00    -0.246 N 
HETATM    3  O   UNL     1     -43.641  55.011 -55.441  1.00  0.00    -0.269 OA
HETATM    4  H   UNL     1     -40.483  55.354 -55.916  1.00  0.00     0.192 HD
ENDROOT
BRANCH   2   5
HETATM    5  N   UNL     1     -41.231  53.804 -54.754  1.00  0.00    -0.184 NA
HETATM    6  C   UNL     1     -40.100  53.178 -54.774  1.00  0.00     0.152 C 
BRANCH   6   7
HETATM    7  C   UNL     1     -39.946  51.979 -53.973  1.00  0.00     0.011 A 
HETATM    8  C   UNL     1     -40.029  51.853 -52.549  1.00  0.00     0.005 A 
HETATM    9  C   UNL     1     -39.827  50.506 -52.236  1.00  0.00     0.043 A 
HETATM   10  C   UNL     1     -40.274  52.756 -51.491  1.00  0.00     0.033 A 
HETATM   11  C   UNL     1     -39.852  50.014 -50.926  1.00  0.00     0.031 A 
HETATM   12  N   UNL     1     -39.622  49.840 -53.422  1.00  0.00    -0.364 N 
HETATM   13  C   UNL     1     -40.098  50.927 -49.896  1.00  0.00     0.021 A 
HETATM   14  C   UNL     1     -40.306  52.274 -50.178  1.00  0.00     0.012 A 
HETATM   15 BR   UNL     1     -40.646  53.479 -48.758  1.00  0.00    -0.051 Br
HETATM   16  H   UNL     1     -39.451  48.847 -53.505  1.00  0.00     0.165 HD
HETATM   17  C   UNL     1     -39.698  50.713 -54.470  1.00  0.00     0.102 A 
ENDBRANCH   6   7
ENDBRANCH   2   5
BRANCH   1  18
HETATM   18  C   UNL     1     -42.479  56.769 -56.602  1.00  0.00     0.280 C 
BRANCH  18  19
HETATM   19  O   UNL     1     -43.410  57.729 -56.102  1.00  0.00    -0.342 OA
BRANCH  19  20
HETATM   20  C   UNL     1     -43.066  58.238 -54.877  1.00  0.00     0.069 A 
HETATM   21  C   UNL     1     -43.850  58.111 -53.728  1.00  0.00     0.044 A 
HETATM   22  C   UNL     1     -43.423  58.647 -52.500  1.00  0.00    -0.053 A 
HETATM   23  C   UNL     1     -42.193  59.332 -52.436  1.00  0.00    -0.056 A 
HETATM   24  C   UNL     1     -44.304  58.497 -51.289  1.00  0.00     0.049 C 
HETATM   25  C   UNL     1     -41.691  59.930 -51.148  1.00  0.00     0.049 C 
HETATM   26  C   UNL     1     -41.400  59.423 -53.589  1.00  0.00     0.010 A 
HETATM   27  C   UNL     1     -41.831  58.873 -54.799  1.00  0.00     0.037 A 
ENDBRANCH  19  20
ENDBRANCH  18  19
ENDBRANCH   1  18
TORSDOF 5
ENDMDL
