MODEL 1
REMARK VINA RESULT:      -8.0      0.000      0.000
REMARK  10 active torsions:
REMARK  status: ('A' for Active; 'I' for Inactive)
REMARK    1  A    between atoms: C_6  and  C_7 
REMARK    2  A    between atoms: C_7  and  C_8 
REMARK       I    between atoms: C_8  and  N_9 
REMARK    3  A    between atoms: N_9  and  C_10 
REMARK    4  A    between atoms: C_10  and  C_11 
REMARK    5  A    between atoms: C_11  and  N_12 
REMARK    6  A    between atoms: C_17  and  C_18 
REMARK    7  A    between atoms: C_27  and  C_28 
REMARK    8  A    between atoms: C_28  and  O_29 
REMARK    9  A    between atoms: O_29  and  C_30 
REMARK   10  A    between atoms: C_30  and  C_31 
ROOT
HETATM    1  C   UNL     1     -44.250  54.464 -53.710  1.00  0.00     0.071 C 
HETATM    2  C   UNL     1     -43.799  55.661 -54.507  1.00  0.00     0.048 C 
HETATM    3  N   UNL     1     -44.784  56.633 -54.689  1.00  0.00    -0.229 NA
HETATM    4  C   UNL     1     -44.358  57.841 -54.845  1.00  0.00     0.170 C 
HETATM    5  N   UNL     1     -42.853  58.184 -54.989  1.00  0.00    -0.318 N 
HETATM    6  C   UNL     1     -42.572  59.235 -54.299  1.00  0.00     0.011 C 
HETATM    7  C   UNL     1     -42.126  57.093 -55.659  1.00  0.00     0.169 C 
HETATM    8  S   UNL     1     -45.279  59.278 -54.582  1.00  0.00    -0.086 SA
HETATM    9  C   UNL     1     -43.767  60.112 -53.957  1.00  0.00     0.135 C 
HETATM   10  C   UNL     1     -42.526  55.864 -54.909  1.00  0.00     0.069 C 
ENDROOT
BRANCH   6  11
HETATM   11  C   UNL     1     -41.185  59.472 -53.777  1.00  0.00     0.156 C 
BRANCH  11  12
HETATM   12  C   UNL     1     -41.101  59.139 -52.296  1.00  0.00     0.223 C 
HETATM   13  N   UNL     1     -40.944  57.821 -51.965  1.00  0.00    -0.359 N 
HETATM   14  H   UNL     1     -40.834  57.112 -52.692  1.00  0.00     0.162 HD
HETATM   15  O   UNL     1     -41.257  60.009 -51.440  1.00  0.00    -0.273 OA
BRANCH  13  16
HETATM   16  C   UNL     1     -41.144  57.310 -50.599  1.00  0.00     0.150 C 
BRANCH  16  17
HETATM   17  C   UNL     1     -40.594  55.891 -50.307  1.00  0.00     0.253 C 
BRANCH  17  18
HETATM   18  N   UNL     1     -41.545  55.043 -49.484  1.00  0.00    -0.077 N 
HETATM   19  H   UNL     1     -41.960  55.663 -48.761  1.00  0.00     0.279 HD
HETATM   20  C   UNL     1     -42.710  54.495 -50.262  1.00  0.00     0.269 C 
HETATM   21  C   UNL     1     -40.830  53.944 -48.746  1.00  0.00     0.269 C 
ENDBRANCH  17  18
ENDBRANCH  16  17
ENDBRANCH  13  16
ENDBRANCH  11  12
ENDBRANCH   6  11
BRANCH   7  22
HETATM   22  C   UNL     1     -42.403  57.107 -57.164  1.00  0.00     0.008 A 
HETATM   23  C   UNL     1     -42.124  58.220 -57.978  1.00  0.00     0.125 A 
HETATM   24  F   UNL     1     -41.621  59.339 -57.446  1.00  0.00    -0.205 F 
HETATM   25  C   UNL     1     -42.350  58.207 -59.352  1.00  0.00     0.043 A 
HETATM   26  C   UNL     1     -42.886  57.076 -59.954  1.00  0.00     0.003 A 
HETATM   27  C   UNL     1     -43.212  55.970 -59.175  1.00  0.00     0.001 A 
HETATM   28  C   UNL     1     -42.986  55.985 -57.794  1.00  0.00     0.013 A 
ENDBRANCH   7  22
BRANCH  10  29
HETATM   29  C   UNL     1     -41.361  55.177 -54.341  1.00  0.00     0.294 C 
HETATM   30  O   UNL     1     -40.416  55.856 -53.951  1.00  0.00    -0.259 OA
BRANCH  29  31
HETATM   31  O   UNL     1     -41.409  53.867 -54.619  1.00  0.00    -0.313 OA
BRANCH  31  32
HETATM   32  C   UNL     1     -40.138  53.213 -54.763  1.00  0.00     0.217 C 
BRANCH  32  33
HETATM   33  C   UNL     1     -39.986  52.106 -53.762  1.00  0.00    -0.034 A 
HETATM   34  C   UNL     1     -39.890  50.776 -54.194  1.00  0.00     0.009 A 
HETATM   35  C   UNL     1     -39.712  49.747 -53.271  1.00  0.00     0.001 A 
HETATM   36  C   UNL     1     -39.634  50.035 -51.909  1.00  0.00     0.000 A 
HETATM   37  C   UNL     1     -39.740  51.353 -51.468  1.00  0.00     0.001 A 
HETATM   38  C   UNL     1     -39.917  52.385 -52.390  1.00  0.00     0.009 A 
ENDBRANCH  32  33
ENDBRANCH  31  32
ENDBRANCH  29  31
ENDBRANCH  10  29
TORSDOF 10
ENDMDL
MODEL 2
REMARK VINA RESULT:      -7.8      2.957      6.656
REMARK  10 active torsions:
REMARK  status: ('A' for Active; 'I' for Inactive)
REMARK    1  A    between atoms: C_6  and  C_7 
REMARK    2  A    between atoms: C_7  and  C_8 
REMARK       I    between atoms: C_8  and  N_9 
REMARK    3  A    between atoms: N_9  and  C_10 
REMARK    4  A    between atoms: C_10  and  C_11 
REMARK    5  A    between atoms: C_11  and  N_12 
REMARK    6  A    between atoms: C_17  and  C_18 
REMARK    7  A    between atoms: C_27  and  C_28 
REMARK    8  A    between atoms: C_28  and  O_29 
REMARK    9  A    between atoms: O_29  and  C_30 
REMARK   10  A    between atoms: C_30  and  C_31 
ROOT
HETATM    1  C   UNL     1     -39.735  58.825 -52.540  1.00  0.00     0.071 C 
HETATM    2  C   UNL     1     -41.101  58.859 -53.176  1.00  0.00     0.048 C 
HETATM    3  N   UNL     1     -41.293  59.918 -54.066  1.00  0.00    -0.229 NA
HETATM    4  C   UNL     1     -42.150  59.710 -55.008  1.00  0.00     0.170 C 
HETATM    5  N   UNL     1     -43.037  58.440 -55.065  1.00  0.00    -0.318 N 
HETATM    6  C   UNL     1     -43.097  57.998 -56.275  1.00  0.00     0.011 C 
HETATM    7  C   UNL     1     -43.354  57.957 -53.711  1.00  0.00     0.169 C 
HETATM    8  S   UNL     1     -42.235  60.570 -56.504  1.00  0.00    -0.086 SA
HETATM    9  C   UNL     1     -42.748  59.020 -57.345  1.00  0.00     0.135 C 
HETATM   10  C   UNL     1     -42.031  57.894 -53.019  1.00  0.00     0.069 C 
ENDROOT
BRANCH   6  11
HETATM   11  C   UNL     1     -43.363  56.548 -56.558  1.00  0.00     0.156 C 
BRANCH  11  12
HETATM   12  C   UNL     1     -43.563  56.317 -58.047  1.00  0.00     0.223 C 
HETATM   13  N   UNL     1     -44.816  56.548 -58.548  1.00  0.00    -0.359 N 
HETATM   14  H   UNL     1     -45.557  56.912 -57.945  1.00  0.00     0.162 HD
HETATM   15  O   UNL     1     -42.661  55.859 -58.746  1.00  0.00    -0.273 OA
BRANCH  13  16
HETATM   16  C   UNL     1     -45.242  56.092 -59.880  1.00  0.00     0.150 C 
BRANCH  16  17
HETATM   17  C   UNL     1     -46.759  56.174 -60.184  1.00  0.00     0.253 C 
BRANCH  17  18
HETATM   18  N   UNL     1     -47.088  57.131 -61.314  1.00  0.00    -0.077 N 
HETATM   19  H   UNL     1     -46.292  57.103 -61.981  1.00  0.00     0.279 HD
HETATM   20  C   UNL     1     -48.299  56.741 -62.116  1.00  0.00     0.269 C 
HETATM   21  C   UNL     1     -47.198  58.555 -60.838  1.00  0.00     0.269 C 
ENDBRANCH  17  18
ENDBRANCH  16  17
ENDBRANCH  13  16
ENDBRANCH  11  12
ENDBRANCH   6  11
BRANCH   7  22
HETATM   22  C   UNL     1     -44.431  58.833 -53.067  1.00  0.00     0.008 A 
HETATM   23  C   UNL     1     -44.936  58.591 -51.776  1.00  0.00     0.125 A 
HETATM   24  F   UNL     1     -44.502  57.545 -51.063  1.00  0.00    -0.205 F 
HETATM   25  C   UNL     1     -45.891  59.415 -51.188  1.00  0.00     0.043 A 
HETATM   26  C   UNL     1     -46.389  60.506 -51.889  1.00  0.00     0.003 A 
HETATM   27  C   UNL     1     -45.943  60.754 -53.184  1.00  0.00     0.001 A 
HETATM   28  C   UNL     1     -44.984  59.922 -53.774  1.00  0.00     0.013 A 
ENDBRANCH   7  22
BRANCH  10  29
HETATM   29  C   UNL     1     -41.741  56.538 -52.537  1.00  0.00     0.294 C 
HETATM   30  O   UNL     1     -41.638  56.359 -51.327  1.00  0.00    -0.259 OA
BRANCH  29  31
HETATM   31  O   UNL     1     -41.338  55.759 -53.549  1.00  0.00    -0.313 OA
BRANCH  31  32
HETATM   32  C   UNL     1     -42.031  54.509 -53.689  1.00  0.00     0.217 C 
BRANCH  32  33
HETATM   33  C   UNL     1     -41.116  53.352 -53.413  1.00  0.00    -0.034 A 
HETATM   34  C   UNL     1     -40.559  53.185 -52.138  1.00  0.00     0.009 A 
HETATM   35  C   UNL     1     -39.738  52.092 -51.866  1.00  0.00     0.001 A 
HETATM   36  C   UNL     1     -39.460  51.161 -52.865  1.00  0.00     0.000 A 
HETATM   37  C   UNL     1     -39.999  51.324 -54.140  1.00  0.00     0.001 A 
HETATM   38  C   UNL     1     -40.822  52.416 -54.414  1.00  0.00     0.009 A 
ENDBRANCH  32  33
ENDBRANCH  31  32
ENDBRANCH  29  31
ENDBRANCH  10  29
TORSDOF 10
ENDMDL
MODEL 3
REMARK VINA RESULT:      -7.6      3.030      6.802
REMARK  10 active torsions:
REMARK  status: ('A' for Active; 'I' for Inactive)
REMARK    1  A    between atoms: C_6  and  C_7 
REMARK    2  A    between atoms: C_7  and  C_8 
REMARK       I    between atoms: C_8  and  N_9 
REMARK    3  A    between atoms: N_9  and  C_10 
REMARK    4  A    between atoms: C_10  and  C_11 
REMARK    5  A    between atoms: C_11  and  N_12 
REMARK    6  A    between atoms: C_17  and  C_18 
REMARK    7  A    between atoms: C_27  and  C_28 
REMARK    8  A    between atoms: C_28  and  O_29 
REMARK    9  A    between atoms: O_29  and  C_30 
REMARK   10  A    between atoms: C_30  and  C_31 
ROOT
HETATM    1  C   UNL     1     -42.030  59.700 -55.909  1.00  0.00     0.071 C 
HETATM    2  C   UNL     1     -42.002  58.601 -54.878  1.00  0.00     0.048 C 
HETATM    3  N   UNL     1     -41.000  58.741 -53.916  1.00  0.00    -0.229 NA
HETATM    4  C   UNL     1     -41.247  58.209 -52.767  1.00  0.00     0.170 C 
HETATM    5  N   UNL     1     -42.496  57.327 -52.506  1.00  0.00    -0.318 N 
HETATM    6  C   UNL     1     -43.015  57.625 -51.364  1.00  0.00     0.011 C 
HETATM    7  C   UNL     1     -42.880  56.586 -53.718  1.00  0.00     0.169 C 
HETATM    8  S   UNL     1     -40.486  58.630 -51.275  1.00  0.00    -0.086 SA
HETATM    9  C   UNL     1     -42.074  58.333 -50.401  1.00  0.00     0.135 C 
HETATM   10  C   UNL     1     -42.932  57.626 -54.790  1.00  0.00     0.069 C 
ENDROOT
BRANCH   6  11
HETATM   11  C   UNL     1     -44.473  57.395 -51.092  1.00  0.00     0.156 C 
BRANCH  11  12
HETATM   12  C   UNL     1     -45.246  58.702 -51.154  1.00  0.00     0.223 C 
HETATM   13  N   UNL     1     -44.981  59.530 -52.212  1.00  0.00    -0.359 N 
HETATM   14  H   UNL     1     -44.331  59.243 -52.946  1.00  0.00     0.162 HD
HETATM   15  O   UNL     1     -46.007  59.034 -50.246  1.00  0.00    -0.273 OA
BRANCH  13  16
HETATM   16  C   UNL     1     -45.415  60.935 -52.255  1.00  0.00     0.150 C 
BRANCH  16  17
HETATM   17  C   UNL     1     -46.120  61.399 -53.555  1.00  0.00     0.253 C 
BRANCH  17  18
HETATM   18  N   UNL     1     -45.229  61.309 -54.779  1.00  0.00    -0.077 N 
HETATM   19  H   UNL     1     -44.673  60.436 -54.690  1.00  0.00     0.279 HD
HETATM   20  C   UNL     1     -45.978  61.179 -56.077  1.00  0.00     0.269 C 
HETATM   21  C   UNL     1     -44.239  62.441 -54.844  1.00  0.00     0.269 C 
ENDBRANCH  17  18
ENDBRANCH  16  17
ENDBRANCH  13  16
ENDBRANCH  11  12
ENDBRANCH   6  11
BRANCH   7  22
HETATM   22  C   UNL     1     -41.936  55.403 -53.947  1.00  0.00     0.008 A 
HETATM   23  C   UNL     1     -41.885  54.294 -53.083  1.00  0.00     0.125 A 
HETATM   24  F   UNL     1     -42.657  54.248 -51.992  1.00  0.00    -0.205 F 
HETATM   25  C   UNL     1     -41.046  53.208 -53.320  1.00  0.00     0.043 A 
HETATM   26  C   UNL     1     -40.210  53.211 -54.430  1.00  0.00     0.003 A 
HETATM   27  C   UNL     1     -40.204  54.309 -55.285  1.00  0.00     0.001 A 
HETATM   28  C   UNL     1     -41.047  55.400 -55.043  1.00  0.00     0.013 A 
ENDBRANCH   7  22
BRANCH  10  29
HETATM   29  C   UNL     1     -44.259  57.691 -55.412  1.00  0.00     0.294 C 
HETATM   30  O   UNL     1     -45.203  58.085 -54.733  1.00  0.00    -0.259 OA
BRANCH  29  31
HETATM   31  O   UNL     1     -44.267  57.014 -56.568  1.00  0.00    -0.313 OA
BRANCH  31  32
HETATM   32  C   UNL     1     -44.661  57.763 -57.728  1.00  0.00     0.217 C 
BRANCH  32  33
HETATM   33  C   UNL     1     -44.881  56.858 -58.904  1.00  0.00    -0.034 A 
HETATM   34  C   UNL     1     -43.926  55.885 -59.230  1.00  0.00     0.009 A 
HETATM   35  C   UNL     1     -44.140  55.017 -60.299  1.00  0.00     0.001 A 
HETATM   36  C   UNL     1     -45.306  55.116 -61.056  1.00  0.00     0.000 A 
HETATM   37  C   UNL     1     -46.257  56.087 -60.748  1.00  0.00     0.001 A 
HETATM   38  C   UNL     1     -46.045  56.957 -59.678  1.00  0.00     0.009 A 
ENDBRANCH  32  33
ENDBRANCH  31  32
ENDBRANCH  29  31
ENDBRANCH  10  29
TORSDOF 10
ENDMDL
MODEL 4
REMARK VINA RESULT:      -7.6      3.142      6.739
REMARK  10 active torsions:
REMARK  status: ('A' for Active; 'I' for Inactive)
REMARK    1  A    between atoms: C_6  and  C_7 
REMARK    2  A    between atoms: C_7  and  C_8 
REMARK       I    between atoms: C_8  and  N_9 
REMARK    3  A    between atoms: N_9  and  C_10 
REMARK    4  A    between atoms: C_10  and  C_11 
REMARK    5  A    between atoms: C_11  and  N_12 
REMARK    6  A    between atoms: C_17  and  C_18 
REMARK    7  A    between atoms: C_27  and  C_28 
REMARK    8  A    between atoms: C_28  and  O_29 
REMARK    9  A    between atoms: O_29  and  C_30 
REMARK   10  A    between atoms: C_30  and  C_31 
ROOT
HETATM    1  C   UNL     1     -42.102  59.560 -56.063  1.00  0.00     0.071 C 
HETATM    2  C   UNL     1     -42.069  58.487 -55.005  1.00  0.00     0.048 C 
HETATM    3  N   UNL     1     -41.087  58.673 -54.030  1.00  0.00    -0.229 NA
HETATM    4  C   UNL     1     -41.343  58.164 -52.872  1.00  0.00     0.170 C 
HETATM    5  N   UNL     1     -42.577  57.261 -52.611  1.00  0.00    -0.318 N 
HETATM    6  C   UNL     1     -43.122  57.574 -51.486  1.00  0.00     0.011 C 
HETATM    7  C   UNL     1     -42.923  56.481 -53.811  1.00  0.00     0.169 C 
HETATM    8  S   UNL     1     -40.618  58.638 -51.378  1.00  0.00    -0.086 SA
HETATM    9  C   UNL     1     -42.215  58.327 -50.525  1.00  0.00     0.135 C 
HETATM   10  C   UNL     1     -42.978  57.494 -54.909  1.00  0.00     0.069 C 
ENDROOT
BRANCH   6  11
HETATM   11  C   UNL     1     -44.579  57.318 -51.233  1.00  0.00     0.156 C 
BRANCH  11  12
HETATM   12  C   UNL     1     -45.372  58.614 -51.286  1.00  0.00     0.223 C 
HETATM   13  N   UNL     1     -45.138  59.442 -52.350  1.00  0.00    -0.359 N 
HETATM   14  H   UNL     1     -44.497  59.162 -53.095  1.00  0.00     0.162 HD
HETATM   15  O   UNL     1     -46.121  58.938 -50.366  1.00  0.00    -0.273 OA
BRANCH  13  16
HETATM   16  C   UNL     1     -45.591  60.842 -52.390  1.00  0.00     0.150 C 
BRANCH  16  17
HETATM   17  C   UNL     1     -44.562  61.912 -51.950  1.00  0.00     0.253 C 
BRANCH  17  18
HETATM   18  N   UNL     1     -44.766  62.382 -50.522  1.00  0.00    -0.077 N 
HETATM   19  H   UNL     1     -44.421  63.361 -50.470  1.00  0.00     0.279 HD
HETATM   20  C   UNL     1     -46.206  62.440 -50.094  1.00  0.00     0.269 C 
HETATM   21  C   UNL     1     -43.947  61.587 -49.541  1.00  0.00     0.269 C 
ENDBRANCH  17  18
ENDBRANCH  16  17
ENDBRANCH  13  16
ENDBRANCH  11  12
ENDBRANCH   6  11
BRANCH   7  22
HETATM   22  C   UNL     1     -41.949  55.315 -53.994  1.00  0.00     0.008 A 
HETATM   23  C   UNL     1     -41.878  54.236 -53.094  1.00  0.00     0.125 A 
HETATM   24  F   UNL     1     -42.659  54.206 -52.008  1.00  0.00    -0.205 F 
HETATM   25  C   UNL     1     -41.011  53.164 -53.290  1.00  0.00     0.043 A 
HETATM   26  C   UNL     1     -40.166  53.151 -54.392  1.00  0.00     0.003 A 
HETATM   27  C   UNL     1     -40.179  54.220 -55.283  1.00  0.00     0.001 A 
HETATM   28  C   UNL     1     -41.050  55.298 -55.083  1.00  0.00     0.013 A 
ENDBRANCH   7  22
BRANCH  10  29
HETATM   29  C   UNL     1     -44.295  57.514 -55.556  1.00  0.00     0.294 C 
HETATM   30  O   UNL     1     -45.277  57.782 -54.871  1.00  0.00    -0.259 OA
BRANCH  29  31
HETATM   31  O   UNL     1     -44.233  56.934 -56.762  1.00  0.00    -0.313 OA
BRANCH  31  32
HETATM   32  C   UNL     1     -44.835  57.667 -57.840  1.00  0.00     0.217 C 
BRANCH  32  33
HETATM   33  C   UNL     1     -43.808  58.068 -58.858  1.00  0.00    -0.034 A 
HETATM   34  C   UNL     1     -43.865  59.336 -59.451  1.00  0.00     0.009 A 
HETATM   35  C   UNL     1     -42.894  59.728 -60.371  1.00  0.00     0.001 A 
HETATM   36  C   UNL     1     -41.861  58.856 -60.711  1.00  0.00     0.000 A 
HETATM   37  C   UNL     1     -41.801  57.588 -60.135  1.00  0.00     0.001 A 
HETATM   38  C   UNL     1     -42.772  57.194 -59.214  1.00  0.00     0.009 A 
ENDBRANCH  32  33
ENDBRANCH  31  32
ENDBRANCH  29  31
ENDBRANCH  10  29
TORSDOF 10
ENDMDL
MODEL 5
REMARK VINA RESULT:      -7.6      3.598      5.393
REMARK  10 active torsions:
REMARK  status: ('A' for Active; 'I' for Inactive)
REMARK    1  A    between atoms: C_6  and  C_7 
REMARK    2  A    between atoms: C_7  and  C_8 
REMARK       I    between atoms: C_8  and  N_9 
REMARK    3  A    between atoms: N_9  and  C_10 
REMARK    4  A    between atoms: C_10  and  C_11 
REMARK    5  A    between atoms: C_11  and  N_12 
REMARK    6  A    between atoms: C_17  and  C_18 
REMARK    7  A    between atoms: C_27  and  C_28 
REMARK    8  A    between atoms: C_28  and  O_29 
REMARK    9  A    between atoms: O_29  and  C_30 
REMARK   10  A    between atoms: C_30  and  C_31 
ROOT
HETATM    1  C   UNL     1     -42.444  58.056 -56.619  1.00  0.00     0.071 C 
HETATM    2  C   UNL     1     -42.458  58.693 -55.253  1.00  0.00     0.048 C 
HETATM    3  N   UNL     1     -42.318  60.082 -55.267  1.00  0.00    -0.229 NA
HETATM    4  C   UNL     1     -42.854  60.709 -54.275  1.00  0.00     0.170 C 
HETATM    5  N   UNL     1     -43.470  59.974 -53.056  1.00  0.00    -0.318 N 
HETATM    6  C   UNL     1     -44.580  60.535 -52.718  1.00  0.00     0.011 C 
HETATM    7  C   UNL     1     -42.759  58.713 -52.787  1.00  0.00     0.169 C 
HETATM    8  S   UNL     1     -43.295  62.379 -54.255  1.00  0.00    -0.086 SA
HETATM    9  C   UNL     1     -44.748  61.964 -53.211  1.00  0.00     0.135 C 
HETATM   10  C   UNL     1     -42.713  58.021 -54.111  1.00  0.00     0.069 C 
ENDROOT
BRANCH   6  11
HETATM   11  C   UNL     1     -45.654  59.764 -52.008  1.00  0.00     0.156 C 
BRANCH  11  12
HETATM   12  C   UNL     1     -45.606  60.024 -50.511  1.00  0.00     0.223 C 
HETATM   13  N   UNL     1     -45.193  61.266 -50.110  1.00  0.00    -0.359 N 
HETATM   14  H   UNL     1     -44.984  61.991 -50.798  1.00  0.00     0.162 HD
HETATM   15  O   UNL     1     -45.843  59.127 -49.703  1.00  0.00    -0.273 OA
BRANCH  13  16
HETATM   16  C   UNL     1     -44.811  61.572 -48.722  1.00  0.00     0.150 C 
BRANCH  16  17
HETATM   17  C   UNL     1     -45.885  61.305 -47.637  1.00  0.00     0.253 C 
BRANCH  17  18
HETATM   18  N   UNL     1     -45.448  60.282 -46.606  1.00  0.00    -0.077 N 
HETATM   19  H   UNL     1     -44.753  59.662 -47.067  1.00  0.00     0.279 HD
HETATM   20  C   UNL     1     -44.736  60.872 -45.419  1.00  0.00     0.269 C 
HETATM   21  C   UNL     1     -46.584  59.400 -46.165  1.00  0.00     0.269 C 
ENDBRANCH  17  18
ENDBRANCH  16  17
ENDBRANCH  13  16
ENDBRANCH  11  12
ENDBRANCH   6  11
BRANCH   7  22
HETATM   22  C   UNL     1     -41.418  58.988 -52.102  1.00  0.00     0.008 A 
HETATM   23  C   UNL     1     -41.322  59.545 -50.814  1.00  0.00     0.125 A 
HETATM   24  F   UNL     1     -42.425  59.886 -50.139  1.00  0.00    -0.205 F 
HETATM   25  C   UNL     1     -40.096  59.758 -50.189  1.00  0.00     0.043 A 
HETATM   26  C   UNL     1     -38.918  59.437 -50.850  1.00  0.00     0.003 A 
HETATM   27  C   UNL     1     -38.972  58.922 -52.142  1.00  0.00     0.001 A 
HETATM   28  C   UNL     1     -40.205  58.709 -52.769  1.00  0.00     0.013 A 
ENDBRANCH   7  22
BRANCH  10  29
HETATM   29  C   UNL     1     -43.359  56.705 -54.052  1.00  0.00     0.294 C 
HETATM   30  O   UNL     1     -44.557  56.654 -53.791  1.00  0.00    -0.259 OA
BRANCH  29  31
HETATM   31  O   UNL     1     -42.438  55.734 -54.008  1.00  0.00    -0.313 OA
BRANCH  31  32
HETATM   32  C   UNL     1     -42.402  54.961 -52.798  1.00  0.00     0.217 C 
BRANCH  32  33
HETATM   33  C   UNL     1     -41.441  53.816 -52.918  1.00  0.00    -0.034 A 
HETATM   34  C   UNL     1     -40.698  53.403 -51.804  1.00  0.00     0.009 A 
HETATM   35  C   UNL     1     -39.830  52.316 -51.899  1.00  0.00     0.001 A 
HETATM   36  C   UNL     1     -39.691  51.638 -53.108  1.00  0.00     0.000 A 
HETATM   37  C   UNL     1     -40.416  52.048 -54.226  1.00  0.00     0.001 A 
HETATM   38  C   UNL     1     -41.286  53.134 -54.132  1.00  0.00     0.009 A 
ENDBRANCH  32  33
ENDBRANCH  31  32
ENDBRANCH  29  31
ENDBRANCH  10  29
TORSDOF 10
ENDMDL
MODEL 6
REMARK VINA RESULT:      -7.5      2.510      6.342
REMARK  10 active torsions:
REMARK  status: ('A' for Active; 'I' for Inactive)
REMARK    1  A    between atoms: C_6  and  C_7 
REMARK    2  A    between atoms: C_7  and  C_8 
REMARK       I    between atoms: C_8  and  N_9 
REMARK    3  A    between atoms: N_9  and  C_10 
REMARK    4  A    between atoms: C_10  and  C_11 
REMARK    5  A    between atoms: C_11  and  N_12 
REMARK    6  A    between atoms: C_17  and  C_18 
REMARK    7  A    between atoms: C_27  and  C_28 
REMARK    8  A    between atoms: C_28  and  O_29 
REMARK    9  A    between atoms: O_29  and  C_30 
REMARK   10  A    between atoms: C_30  and  C_31 
ROOT
HETATM    1  C   UNL     1     -39.350  58.891 -52.092  1.00  0.00     0.071 C 
HETATM    2  C   UNL     1     -40.784  58.971 -52.547  1.00  0.00     0.048 C 
HETATM    3  N   UNL     1     -41.020  59.933 -53.532  1.00  0.00    -0.229 NA
HETATM    4  C   UNL     1     -42.011  59.693 -54.323  1.00  0.00     0.170 C 
HETATM    5  N   UNL     1     -42.986  58.507 -54.105  1.00  0.00    -0.318 N 
HETATM    6  C   UNL     1     -43.243  57.935 -55.231  1.00  0.00     0.011 C 
HETATM    7  C   UNL     1     -43.148  58.214 -52.671  1.00  0.00     0.169 C 
HETATM    8  S   UNL     1     -42.239  60.377 -55.892  1.00  0.00    -0.086 SA
HETATM    9  C   UNL     1     -42.972  58.792 -56.458  1.00  0.00     0.135 C 
HETATM   10  C   UNL     1     -41.750  58.116 -52.152  1.00  0.00     0.069 C 
ENDROOT
BRANCH   6  11
HETATM   11  C   UNL     1     -43.649  56.491 -55.292  1.00  0.00     0.156 C 
BRANCH  11  12
HETATM   12  C   UNL     1     -43.182  55.854 -56.591  1.00  0.00     0.223 C 
HETATM   13  N   UNL     1     -43.910  56.133 -57.716  1.00  0.00    -0.359 N 
HETATM   14  H   UNL     1     -44.696  56.784 -57.677  1.00  0.00     0.162 HD
HETATM   15  O   UNL     1     -42.246  55.057 -56.606  1.00  0.00    -0.273 OA
BRANCH  13  16
HETATM   16  C   UNL     1     -43.772  55.371 -58.967  1.00  0.00     0.150 C 
BRANCH  16  17
HETATM   17  C   UNL     1     -43.642  56.202 -60.268  1.00  0.00     0.253 C 
BRANCH  17  18
HETATM   18  N   UNL     1     -44.969  56.748 -60.760  1.00  0.00    -0.077 N 
HETATM   19  H   UNL     1     -44.906  56.818 -61.795  1.00  0.00     0.279 HD
HETATM   20  C   UNL     1     -46.143  55.847 -60.489  1.00  0.00     0.269 C 
HETATM   21  C   UNL     1     -45.234  58.139 -60.252  1.00  0.00     0.269 C 
ENDBRANCH  17  18
ENDBRANCH  16  17
ENDBRANCH  13  16
ENDBRANCH  11  12
ENDBRANCH   6  11
BRANCH   7  22
HETATM   22  C   UNL     1     -44.060  59.251 -52.011  1.00  0.00     0.008 A 
HETATM   23  C   UNL     1     -45.300  59.630 -52.556  1.00  0.00     0.125 A 
HETATM   24  F   UNL     1     -45.721  59.105 -53.712  1.00  0.00    -0.205 F 
HETATM   25  C   UNL     1     -46.136  60.548 -51.928  1.00  0.00     0.043 A 
HETATM   26  C   UNL     1     -45.742  61.137 -50.733  1.00  0.00     0.003 A 
HETATM   27  C   UNL     1     -44.504  60.817 -50.183  1.00  0.00     0.001 A 
HETATM   28  C   UNL     1     -43.664  59.894 -50.818  1.00  0.00     0.013 A 
ENDBRANCH   7  22
BRANCH  10  29
HETATM   29  C   UNL     1     -41.494  56.806 -51.542  1.00  0.00     0.294 C 
HETATM   30  O   UNL     1     -41.341  56.747 -50.326  1.00  0.00    -0.259 OA
BRANCH  29  31
HETATM   31  O   UNL     1     -41.174  55.908 -52.483  1.00  0.00    -0.313 OA
BRANCH  31  32
HETATM   32  C   UNL     1     -41.985  54.723 -52.518  1.00  0.00     0.217 C 
BRANCH  32  33
HETATM   33  C   UNL     1     -41.147  53.503 -52.766  1.00  0.00    -0.034 A 
HETATM   34  C   UNL     1     -41.147  52.896 -54.028  1.00  0.00     0.009 A 
HETATM   35  C   UNL     1     -40.342  51.784 -54.276  1.00  0.00     0.001 A 
HETATM   36  C   UNL     1     -39.537  51.266 -53.263  1.00  0.00     0.000 A 
HETATM   37  C   UNL     1     -39.537  51.856 -52.000  1.00  0.00     0.001 A 
HETATM   38  C   UNL     1     -40.341  52.969 -51.751  1.00  0.00     0.009 A 
ENDBRANCH  32  33
ENDBRANCH  31  32
ENDBRANCH  29  31
ENDBRANCH  10  29
TORSDOF 10
ENDMDL
MODEL 7
REMARK VINA RESULT:      -7.1      2.980      6.283
REMARK  10 active torsions:
REMARK  status: ('A' for Active; 'I' for Inactive)
REMARK    1  A    between atoms: C_6  and  C_7 
REMARK    2  A    between atoms: C_7  and  C_8 
REMARK       I    between atoms: C_8  and  N_9 
REMARK    3  A    between atoms: N_9  and  C_10 
REMARK    4  A    between atoms: C_10  and  C_11 
REMARK    5  A    between atoms: C_11  and  N_12 
REMARK    6  A    between atoms: C_17  and  C_18 
REMARK    7  A    between atoms: C_27  and  C_28 
REMARK    8  A    between atoms: C_28  and  O_29 
REMARK    9  A    between atoms: O_29  and  C_30 
REMARK   10  A    between atoms: C_30  and  C_31 
ROOT
HETATM    1  C   UNL     1     -40.624  58.277 -53.579  1.00  0.00     0.071 C 
HETATM    2  C   UNL     1     -42.015  58.848 -53.675  1.00  0.00     0.048 C 
HETATM    3  N   UNL     1     -42.058  60.192 -54.054  1.00  0.00    -0.229 NA
HETATM    4  C   UNL     1     -43.129  60.566 -54.670  1.00  0.00     0.170 C 
HETATM    5  N   UNL     1     -44.363  59.642 -54.838  1.00  0.00    -0.318 N 
HETATM    6  C   UNL     1     -44.836  59.751 -56.031  1.00  0.00     0.011 C 
HETATM    7  C   UNL     1     -44.497  58.728 -53.691  1.00  0.00     0.169 C 
HETATM    8  S   UNL     1     -43.276  61.955 -55.686  1.00  0.00    -0.086 SA
HETATM    9  C   UNL     1     -44.435  61.022 -56.763  1.00  0.00     0.135 C 
HETATM   10  C   UNL     1     -43.142  58.118 -53.540  1.00  0.00     0.069 C 
ENDROOT
BRANCH   6  11
HETATM   11  C   UNL     1     -45.607  58.630 -56.665  1.00  0.00     0.156 C 
BRANCH  11  12
HETATM   12  C   UNL     1     -44.777  57.940 -57.735  1.00  0.00     0.223 C 
HETATM   13  N   UNL     1     -44.063  56.837 -57.352  1.00  0.00    -0.359 N 
HETATM   14  H   UNL     1     -44.139  56.474 -56.399  1.00  0.00     0.162 HD
HETATM   15  O   UNL     1     -44.685  58.409 -58.868  1.00  0.00    -0.273 OA
BRANCH  13  16
HETATM   16  C   UNL     1     -42.997  56.247 -58.177  1.00  0.00     0.150 C 
BRANCH  16  17
HETATM   17  C   UNL     1     -43.429  55.658 -59.543  1.00  0.00     0.253 C 
BRANCH  17  18
HETATM   18  N   UNL     1     -44.831  55.079 -59.524  1.00  0.00    -0.077 N 
HETATM   19  H   UNL     1     -45.267  55.365 -58.626  1.00  0.00     0.279 HD
HETATM   20  C   UNL     1     -45.733  55.619 -60.600  1.00  0.00     0.269 C 
HETATM   21  C   UNL     1     -44.823  53.575 -59.536  1.00  0.00     0.269 C 
ENDBRANCH  17  18
ENDBRANCH  16  17
ENDBRANCH  13  16
ENDBRANCH  11  12
ENDBRANCH   6  11
BRANCH   7  22
HETATM   22  C   UNL     1     -45.060  59.471 -52.476  1.00  0.00     0.008 A 
HETATM   23  C   UNL     1     -45.086  58.909 -51.187  1.00  0.00     0.125 A 
HETATM   24  F   UNL     1     -44.634  57.668 -50.979  1.00  0.00    -0.205 F 
HETATM   25  C   UNL     1     -45.570  59.608 -50.084  1.00  0.00     0.043 A 
HETATM   26  C   UNL     1     -46.067  60.895 -50.245  1.00  0.00     0.003 A 
HETATM   27  C   UNL     1     -46.095  61.469 -51.513  1.00  0.00     0.001 A 
HETATM   28  C   UNL     1     -45.610  60.763 -52.621  1.00  0.00     0.013 A 
ENDBRANCH   7  22
BRANCH  10  29
HETATM   29  C   UNL     1     -43.196  56.655 -53.651  1.00  0.00     0.294 C 
HETATM   30  O   UNL     1     -43.934  56.161 -54.497  1.00  0.00    -0.259 OA
BRANCH  29  31
HETATM   31  O   UNL     1     -42.630  56.085 -52.579  1.00  0.00    -0.313 OA
BRANCH  31  32
HETATM   32  C   UNL     1     -43.033  54.734 -52.305  1.00  0.00     0.217 C 
BRANCH  32  33
HETATM   33  C   UNL     1     -41.920  53.770 -52.595  1.00  0.00    -0.034 A 
HETATM   34  C   UNL     1     -41.729  53.289 -53.897  1.00  0.00     0.009 A 
HETATM   35  C   UNL     1     -40.675  52.422 -54.181  1.00  0.00     0.001 A 
HETATM   36  C   UNL     1     -39.806  52.024 -53.166  1.00  0.00     0.000 A 
HETATM   37  C   UNL     1     -39.993  52.488 -51.865  1.00  0.00     0.001 A 
HETATM   38  C   UNL     1     -41.048  53.356 -51.579  1.00  0.00     0.009 A 
ENDBRANCH  32  33
ENDBRANCH  31  32
ENDBRANCH  29  31
ENDBRANCH  10  29
TORSDOF 10
ENDMDL
MODEL 8
REMARK VINA RESULT:      -7.1      2.632      4.219
REMARK  10 active torsions:
REMARK  status: ('A' for Active; 'I' for Inactive)
REMARK    1  A    between atoms: C_6  and  C_7 
REMARK    2  A    between atoms: C_7  and  C_8 
REMARK       I    between atoms: C_8  and  N_9 
REMARK    3  A    between atoms: N_9  and  C_10 
REMARK    4  A    between atoms: C_10  and  C_11 
REMARK    5  A    between atoms: C_11  and  N_12 
REMARK    6  A    between atoms: C_17  and  C_18 
REMARK    7  A    between atoms: C_27  and  C_28 
REMARK    8  A    between atoms: C_28  and  O_29 
REMARK    9  A    between atoms: O_29  and  C_30 
REMARK   10  A    between atoms: C_30  and  C_31 
ROOT
HETATM    1  C   UNL     1     -44.723  57.831 -53.355  1.00  0.00     0.071 C 
HETATM    2  C   UNL     1     -44.361  58.274 -54.749  1.00  0.00     0.048 C 
HETATM    3  N   UNL     1     -45.460  58.511 -55.578  1.00  0.00    -0.229 NA
HETATM    4  C   UNL     1     -45.274  59.373 -56.520  1.00  0.00     0.170 C 
HETATM    5  N   UNL     1     -43.884  59.989 -56.828  1.00  0.00    -0.318 N 
HETATM    6  C   UNL     1     -44.002  61.251 -57.057  1.00  0.00     0.011 C 
HETATM    7  C   UNL     1     -42.807  59.030 -56.534  1.00  0.00     0.169 C 
HETATM    8  S   UNL     1     -46.513  60.242 -57.353  1.00  0.00    -0.086 SA
HETATM    9  C   UNL     1     -45.402  61.701 -57.449  1.00  0.00     0.135 C 
HETATM   10  C   UNL     1     -43.103  58.550 -55.150  1.00  0.00     0.069 C 
ENDROOT
BRANCH   6  11
HETATM   11  C   UNL     1     -42.859  62.194 -56.816  1.00  0.00     0.156 C 
BRANCH  11  12
HETATM   12  C   UNL     1     -43.145  63.095 -55.626  1.00  0.00     0.223 C 
HETATM   13  N   UNL     1     -43.030  62.536 -54.382  1.00  0.00    -0.359 N 
HETATM   14  H   UNL     1     -42.712  61.571 -54.274  1.00  0.00     0.162 HD
HETATM   15  O   UNL     1     -43.547  64.247 -55.784  1.00  0.00    -0.273 OA
BRANCH  13  16
HETATM   16  C   UNL     1     -43.554  63.177 -53.165  1.00  0.00     0.150 C 
BRANCH  16  17
HETATM   17  C   UNL     1     -43.263  62.455 -51.826  1.00  0.00     0.253 C 
BRANCH  17  18
HETATM   18  N   UNL     1     -44.442  61.649 -51.316  1.00  0.00    -0.077 N 
HETATM   19  H   UNL     1     -44.904  62.217 -50.579  1.00  0.00     0.279 HD
HETATM   20  C   UNL     1     -45.503  61.391 -52.350  1.00  0.00     0.269 C 
HETATM   21  C   UNL     1     -44.010  60.366 -50.660  1.00  0.00     0.269 C 
ENDBRANCH  17  18
ENDBRANCH  16  17
ENDBRANCH  13  16
ENDBRANCH  11  12
ENDBRANCH   6  11
BRANCH   7  22
HETATM   22  C   UNL     1     -42.719  57.966 -57.631  1.00  0.00     0.008 A 
HETATM   23  C   UNL     1     -42.293  58.257 -58.940  1.00  0.00     0.125 A 
HETATM   24  F   UNL     1     -41.969  59.509 -59.285  1.00  0.00    -0.205 F 
HETATM   25  C   UNL     1     -42.185  57.274 -59.919  1.00  0.00     0.043 A 
HETATM   26  C   UNL     1     -42.524  55.961 -59.621  1.00  0.00     0.003 A 
HETATM   27  C   UNL     1     -42.988  55.642 -58.348  1.00  0.00     0.001 A 
HETATM   28  C   UNL     1     -43.097  56.632 -57.365  1.00  0.00     0.013 A 
ENDBRANCH   7  22
BRANCH  10  29
HETATM   29  C   UNL     1     -41.985  58.819 -54.237  1.00  0.00     0.294 C 
HETATM   30  O   UNL     1     -41.814  59.970 -53.847  1.00  0.00    -0.259 OA
BRANCH  29  31
HETATM   31  O   UNL     1     -41.141  57.779 -54.214  1.00  0.00    -0.313 OA
BRANCH  31  32
HETATM   32  C   UNL     1     -41.308  56.864 -53.120  1.00  0.00     0.217 C 
BRANCH  32  33
HETATM   33  C   UNL     1     -40.977  55.461 -53.536  1.00  0.00    -0.034 A 
HETATM   34  C   UNL     1     -40.627  55.187 -54.866  1.00  0.00     0.009 A 
HETATM   35  C   UNL     1     -40.283  53.892 -55.251  1.00  0.00     0.001 A 
HETATM   36  C   UNL     1     -40.291  52.859 -54.315  1.00  0.00     0.000 A 
HETATM   37  C   UNL     1     -40.648  53.118 -52.993  1.00  0.00     0.001 A 
HETATM   38  C   UNL     1     -40.992  54.414 -52.605  1.00  0.00     0.009 A 
ENDBRANCH  32  33
ENDBRANCH  31  32
ENDBRANCH  29  31
ENDBRANCH  10  29
TORSDOF 10
ENDMDL
MODEL 9
REMARK VINA RESULT:      -7.0      2.985      6.581
REMARK  10 active torsions:
REMARK  status: ('A' for Active; 'I' for Inactive)
REMARK    1  A    between atoms: C_6  and  C_7 
REMARK    2  A    between atoms: C_7  and  C_8 
REMARK       I    between atoms: C_8  and  N_9 
REMARK    3  A    between atoms: N_9  and  C_10 
REMARK    4  A    between atoms: C_10  and  C_11 
REMARK    5  A    between atoms: C_11  and  N_12 
REMARK    6  A    between atoms: C_17  and  C_18 
REMARK    7  A    between atoms: C_27  and  C_28 
REMARK    8  A    between atoms: C_28  and  O_29 
REMARK    9  A    between atoms: O_29  and  C_30 
REMARK   10  A    between atoms: C_30  and  C_31 
ROOT
HETATM    1  C   UNL     1     -40.150  58.699 -52.766  1.00  0.00     0.071 C 
HETATM    2  C   UNL     1     -41.570  59.198 -52.842  1.00  0.00     0.048 C 
HETATM    3  N   UNL     1     -41.722  60.387 -53.558  1.00  0.00    -0.229 NA
HETATM    4  C   UNL     1     -42.872  60.561 -54.116  1.00  0.00     0.170 C 
HETATM    5  N   UNL     1     -44.069  59.604 -53.881  1.00  0.00    -0.318 N 
HETATM    6  C   UNL     1     -44.677  59.377 -54.994  1.00  0.00     0.011 C 
HETATM    7  C   UNL     1     -44.029  59.033 -52.524  1.00  0.00     0.169 C 
HETATM    8  S   UNL     1     -43.201  61.620 -55.441  1.00  0.00    -0.086 SA
HETATM    9  C   UNL     1     -44.425  60.409 -56.082  1.00  0.00     0.135 C 
HETATM   10  C   UNL     1     -42.636  58.511 -52.382  1.00  0.00     0.069 C 
ENDROOT
BRANCH   6  11
HETATM   11  C   UNL     1     -45.458  58.112 -55.208  1.00  0.00     0.156 C 
BRANCH  11  12
HETATM   12  C   UNL     1     -45.714  57.879 -56.688  1.00  0.00     0.223 C 
HETATM   13  N   UNL     1     -44.697  57.320 -57.414  1.00  0.00    -0.359 N 
HETATM   14  H   UNL     1     -43.832  57.028 -56.955  1.00  0.00     0.162 HD
HETATM   15  O   UNL     1     -46.756  58.260 -57.219  1.00  0.00    -0.273 OA
BRANCH  13  16
HETATM   16  C   UNL     1     -44.677  57.309 -58.885  1.00  0.00     0.150 C 
BRANCH  16  17
HETATM   17  C   UNL     1     -44.112  58.576 -59.576  1.00  0.00     0.253 C 
BRANCH  17  18
HETATM   18  N   UNL     1     -42.600  58.566 -59.693  1.00  0.00    -0.077 N 
HETATM   19  H   UNL     1     -42.350  59.213 -60.467  1.00  0.00     0.279 HD
HETATM   20  C   UNL     1     -41.886  59.094 -58.479  1.00  0.00     0.269 C 
HETATM   21  C   UNL     1     -42.070  57.212 -60.079  1.00  0.00     0.269 C 
ENDBRANCH  17  18
ENDBRANCH  16  17
ENDBRANCH  13  16
ENDBRANCH  11  12
ENDBRANCH   6  11
BRANCH   7  22
HETATM   22  C   UNL     1     -44.489  60.066 -51.493  1.00  0.00     0.008 A 
HETATM   23  C   UNL     1     -45.788  60.608 -51.488  1.00  0.00     0.125 A 
HETATM   24  F   UNL     1     -46.675  60.251 -52.423  1.00  0.00    -0.205 F 
HETATM   25  C   UNL     1     -46.205  61.522 -50.524  1.00  0.00     0.043 A 
HETATM   26  C   UNL     1     -45.319  61.940 -49.539  1.00  0.00     0.003 A 
HETATM   27  C   UNL     1     -44.014  61.457 -49.536  1.00  0.00     0.001 A 
HETATM   28  C   UNL     1     -43.596  60.539 -50.508  1.00  0.00     0.013 A 
ENDBRANCH   7  22
BRANCH  10  29
HETATM   29  C   UNL     1     -42.629  57.072 -52.090  1.00  0.00     0.294 C 
HETATM   30  O   UNL     1     -42.463  56.713 -50.929  1.00  0.00    -0.259 OA
BRANCH  29  31
HETATM   31  O   UNL     1     -42.511  56.367 -53.223  1.00  0.00    -0.313 OA
BRANCH  31  32
HETATM   32  C   UNL     1     -43.018  55.024 -53.178  1.00  0.00     0.217 C 
BRANCH  32  33
HETATM   33  C   UNL     1     -41.900  54.025 -53.227  1.00  0.00    -0.034 A 
HETATM   34  C   UNL     1     -41.257  53.632 -52.046  1.00  0.00     0.009 A 
HETATM   35  C   UNL     1     -40.242  52.677 -52.080  1.00  0.00     0.001 A 
HETATM   36  C   UNL     1     -39.856  52.111 -53.295  1.00  0.00     0.000 A 
HETATM   37  C   UNL     1     -40.481  52.503 -54.477  1.00  0.00     0.001 A 
HETATM   38  C   UNL     1     -41.497  53.458 -54.444  1.00  0.00     0.009 A 
ENDBRANCH  32  33
ENDBRANCH  31  32
ENDBRANCH  29  31
ENDBRANCH  10  29
TORSDOF 10
ENDMDL
MODEL 10
REMARK VINA RESULT:      -6.9      4.066      6.806
REMARK  10 active torsions:
REMARK  status: ('A' for Active; 'I' for Inactive)
REMARK    1  A    between atoms: C_6  and  C_7 
REMARK    2  A    between atoms: C_7  and  C_8 
REMARK       I    between atoms: C_8  and  N_9 
REMARK    3  A    between atoms: N_9  and  C_10 
REMARK    4  A    between atoms: C_10  and  C_11 
REMARK    5  A    between atoms: C_11  and  N_12 
REMARK    6  A    between atoms: C_17  and  C_18 
REMARK    7  A    between atoms: C_27  and  C_28 
REMARK    8  A    between atoms: C_28  and  O_29 
REMARK    9  A    between atoms: O_29  and  C_30 
REMARK   10  A    between atoms: C_30  and  C_31 
ROOT
HETATM    1  C   UNL     1     -42.142  60.256 -56.328  1.00  0.00     0.071 C 
HETATM    2  C   UNL     1     -42.258  59.257 -55.205  1.00  0.00     0.048 C 
HETATM    3  N   UNL     1     -41.121  59.167 -54.399  1.00  0.00    -0.229 NA
HETATM    4  C   UNL     1     -41.326  58.797 -53.180  1.00  0.00     0.170 C 
HETATM    5  N   UNL     1     -42.713  58.320 -52.674  1.00  0.00    -0.318 N 
HETATM    6  C   UNL     1     -42.953  58.820 -51.510  1.00  0.00     0.011 C 
HETATM    7  C   UNL     1     -43.462  57.645 -53.747  1.00  0.00     0.169 C 
HETATM    8  S   UNL     1     -40.263  59.075 -51.847  1.00  0.00    -0.086 SA
HETATM    9  C   UNL     1     -41.722  59.291 -50.752  1.00  0.00     0.135 C 
HETATM   10  C   UNL     1     -43.392  58.591 -54.901  1.00  0.00     0.069 C 
ENDROOT
BRANCH   6  11
HETATM   11  C   UNL     1     -44.360  59.027 -51.031  1.00  0.00     0.156 C 
BRANCH  11  12
HETATM   12  C   UNL     1     -44.560  60.453 -50.546  1.00  0.00     0.223 C 
HETATM   13  N   UNL     1     -44.407  60.681 -49.205  1.00  0.00    -0.359 N 
HETATM   14  H   UNL     1     -44.117  59.926 -48.581  1.00  0.00     0.162 HD
HETATM   15  O   UNL     1     -44.930  61.339 -51.315  1.00  0.00    -0.273 OA
BRANCH  13  16
HETATM   16  C   UNL     1     -44.852  61.919 -48.548  1.00  0.00     0.150 C 
BRANCH  16  17
HETATM   17  C   UNL     1     -46.019  61.781 -47.537  1.00  0.00     0.253 C 
BRANCH  17  18
HETATM   18  N   UNL     1     -46.781  63.076 -47.329  1.00  0.00    -0.077 N 
HETATM   19  H   UNL     1     -46.111  63.854 -47.488  1.00  0.00     0.279 HD
HETATM   20  C   UNL     1     -47.897  63.297 -48.313  1.00  0.00     0.269 C 
HETATM   21  C   UNL     1     -47.277  63.221 -45.916  1.00  0.00     0.269 C 
ENDBRANCH  17  18
ENDBRANCH  16  17
ENDBRANCH  13  16
ENDBRANCH  11  12
ENDBRANCH   6  11
BRANCH   7  22
HETATM   22  C   UNL     1     -42.919  56.233 -53.975  1.00  0.00     0.008 A 
HETATM   23  C   UNL     1     -42.910  55.249 -52.969  1.00  0.00     0.125 A 
HETATM   24  F   UNL     1     -43.362  55.531 -51.742  1.00  0.00    -0.205 F 
HETATM   25  C   UNL     1     -42.445  53.958 -53.200  1.00  0.00     0.043 A 
HETATM   26  C   UNL     1     -41.949  53.615 -54.451  1.00  0.00     0.003 A 
HETATM   27  C   UNL     1     -41.904  54.573 -55.460  1.00  0.00     0.001 A 
HETATM   28  C   UNL     1     -42.371  55.871 -55.226  1.00  0.00     0.013 A 
ENDBRANCH   7  22
BRANCH  10  29
HETATM   29  C   UNL     1     -44.730  58.991 -55.351  1.00  0.00     0.294 C 
HETATM   30  O   UNL     1     -45.312  59.879 -54.735  1.00  0.00    -0.259 OA
BRANCH  29  31
HETATM   31  O   UNL     1     -45.224  58.088 -56.209  1.00  0.00    -0.313 OA
BRANCH  31  32
HETATM   32  C   UNL     1     -45.297  58.505 -57.581  1.00  0.00     0.217 C 
BRANCH  32  33
HETATM   33  C   UNL     1     -44.984  57.366 -58.507  1.00  0.00    -0.034 A 
HETATM   34  C   UNL     1     -45.924  56.961 -59.464  1.00  0.00     0.009 A 
HETATM   35  C   UNL     1     -45.625  55.928 -60.352  1.00  0.00     0.001 A 
HETATM   36  C   UNL     1     -44.389  55.286 -60.286  1.00  0.00     0.000 A 
HETATM   37  C   UNL     1     -43.452  55.674 -59.331  1.00  0.00     0.001 A 
HETATM   38  C   UNL     1     -43.748  56.708 -58.442  1.00  0.00     0.009 A 
ENDBRANCH  32  33
ENDBRANCH  31  32
ENDBRANCH  29  31
ENDBRANCH  10  29
TORSDOF 10
ENDMDL
