MODEL 1
REMARK VINA RESULT:      -8.3      0.000      0.000
REMARK  5 active torsions:
REMARK  status: ('A' for Active; 'I' for Inactive)
REMARK    1  A    between atoms: O_2  and  C_3 
REMARK    2  A    between atoms: C_5  and  C_15 
REMARK    3  A    between atoms: C_8  and  C_9 
REMARK       I    between atoms: C_15  and  N_17 
REMARK    4  A    between atoms: N_17  and  C_18 
REMARK    5  A    between atoms: C_18  and  C_19 
ROOT
HETATM    1  C   UNL     1     -40.773  53.631 -52.268  1.00  0.00     0.080 A 
HETATM    2  C   UNL     1     -41.173  54.842 -52.855  1.00  0.00     0.054 A 
HETATM    3  C   UNL     1     -41.098  55.021 -54.243  1.00  0.00     0.034 A 
HETATM    4  C   UNL     1     -40.586  54.002 -55.047  1.00  0.00     0.018 A 
HETATM    5  C   UNL     1     -40.195  52.791 -54.472  1.00  0.00     0.016 A 
HETATM    6  C   UNL     1     -40.298  52.581 -53.085  1.00  0.00     0.010 A 
ENDROOT
BRANCH   3   7
HETATM    7  C   UNL     1     -41.545  56.282 -54.896  1.00  0.00     0.252 C 
HETATM    8  O   UNL     1     -41.483  57.348 -54.296  1.00  0.00    -0.268 OA
HETATM    9  N   UNL     1     -41.979  56.165 -56.198  1.00  0.00    -0.353 N 
HETATM   10  H   UNL     1     -41.719  55.330 -56.709  1.00  0.00     0.163 HD
BRANCH   9  11
HETATM   11  C   UNL     1     -42.273  57.334 -56.994  1.00  0.00     0.163 C 
BRANCH  11  12
HETATM   12  C   UNL     1     -43.459  57.093 -57.894  1.00  0.00    -0.019 A 
HETATM   13  C   UNL     1     -43.438  55.992 -58.767  1.00  0.00     0.012 A 
HETATM   14  C   UNL     1     -44.509  55.739 -59.628  1.00  0.00     0.020 A 
HETATM   15  C   UNL     1     -45.609  56.591 -59.629  1.00  0.00     0.012 A 
HETATM   16 BR   UNL     1     -47.053  56.256 -60.802  1.00  0.00    -0.051 Br
HETATM   17  C   UNL     1     -45.652  57.691 -58.778  1.00  0.00     0.043 A 
HETATM   18  C   UNL     1     -44.582  57.940 -57.914  1.00  0.00     0.043 A 
HETATM   19 CL   UNL     1     -44.684  59.335 -56.898  1.00  0.00    -0.084 Cl
ENDBRANCH  11  12
ENDBRANCH   9  11
ENDBRANCH   3   7
BRANCH   1  20
HETATM   20  O   UNL     1     -40.860  53.388 -50.920  1.00  0.00    -0.355 OA
HETATM   21  C   UNL     1     -40.363  54.379 -50.031  1.00  0.00     0.210 C 
ENDBRANCH   1  20
BRANCH   6  22
HETATM   22  C   UNL     1     -39.892  51.292 -52.533  1.00  0.00     0.013 A 
HETATM   23  C   UNL     1     -39.584  50.896 -51.210  1.00  0.00     0.152 A 
HETATM   24  N   UNL     1     -39.252  49.605 -51.117  1.00  0.00    -0.187 NA
HETATM   25  N   UNL     1     -39.362  49.164 -52.379  1.00  0.00    -0.289 N 
HETATM   26  H   UNL     1     -39.166  48.185 -52.564  1.00  0.00     0.188 HD
HETATM   27  C   UNL     1     -39.737  50.131 -53.264  1.00  0.00     0.123 A 
ENDBRANCH   6  22
TORSDOF 5
ENDMDL
MODEL 2
REMARK VINA RESULT:      -8.1      4.227      5.272
REMARK  5 active torsions:
REMARK  status: ('A' for Active; 'I' for Inactive)
REMARK    1  A    between atoms: O_2  and  C_3 
REMARK    2  A    between atoms: C_5  and  C_15 
REMARK    3  A    between atoms: C_8  and  C_9 
REMARK       I    between atoms: C_15  and  N_17 
REMARK    4  A    between atoms: N_17  and  C_18 
REMARK    5  A    between atoms: C_18  and  C_19 
ROOT
HETATM    1  C   UNL     1     -40.736  53.604 -52.285  1.00  0.00     0.080 A 
HETATM    2  C   UNL     1     -41.058  54.928 -52.624  1.00  0.00     0.054 A 
HETATM    3  C   UNL     1     -40.884  55.392 -53.936  1.00  0.00     0.034 A 
HETATM    4  C   UNL     1     -40.351  54.542 -54.906  1.00  0.00     0.018 A 
HETATM    5  C   UNL     1     -40.038  53.222 -54.580  1.00  0.00     0.016 A 
HETATM    6  C   UNL     1     -40.240  52.729 -53.278  1.00  0.00     0.010 A 
ENDROOT
BRANCH   3   7
HETATM    7  C   UNL     1     -41.247  56.780 -54.331  1.00  0.00     0.252 C 
HETATM    8  O   UNL     1     -42.011  56.981 -55.266  1.00  0.00    -0.268 OA
HETATM    9  N   UNL     1     -40.704  57.786 -53.560  1.00  0.00    -0.353 N 
HETATM   10  H   UNL     1     -40.341  57.538 -52.648  1.00  0.00     0.163 HD
BRANCH   9  11
HETATM   11  C   UNL     1     -41.115  59.160 -53.731  1.00  0.00     0.163 C 
BRANCH  11  12
HETATM   12  C   UNL     1     -41.963  59.621 -52.572  1.00  0.00    -0.019 A 
HETATM   13  C   UNL     1     -43.322  59.903 -52.793  1.00  0.00     0.012 A 
HETATM   14  C   UNL     1     -44.142  60.346 -51.752  1.00  0.00     0.020 A 
HETATM   15  C   UNL     1     -43.606  60.520 -50.479  1.00  0.00     0.012 A 
HETATM   16 BR   UNL     1     -44.711  61.130 -49.073  1.00  0.00    -0.051 Br
HETATM   17  C   UNL     1     -42.262  60.253 -50.236  1.00  0.00     0.043 A 
HETATM   18  C   UNL     1     -41.445  59.805 -51.278  1.00  0.00     0.043 A 
HETATM   19 CL   UNL     1     -39.780  59.513 -50.917  1.00  0.00    -0.084 Cl
ENDBRANCH  11  12
ENDBRANCH   9  11
ENDBRANCH   3   7
BRANCH   1  20
HETATM   20  O   UNL     1     -40.921  53.087 -51.028  1.00  0.00    -0.355 OA
HETATM   21  C   UNL     1     -40.520  53.878 -49.917  1.00  0.00     0.210 C 
ENDBRANCH   1  20
BRANCH   6  22
HETATM   22  C   UNL     1     -39.912  51.336 -52.989  1.00  0.00     0.013 A 
HETATM   23  C   UNL     1     -39.870  50.193 -53.822  1.00  0.00     0.152 A 
HETATM   24  N   UNL     1     -39.517  49.084 -53.166  1.00  0.00    -0.187 NA
HETATM   25  N   UNL     1     -39.317  49.514 -51.912  1.00  0.00    -0.289 N 
HETATM   26  H   UNL     1     -39.023  48.839 -51.213  1.00  0.00     0.188 HD
HETATM   27  C   UNL     1     -39.542  50.850 -51.751  1.00  0.00     0.123 A 
ENDBRANCH   6  22
TORSDOF 5
ENDMDL
MODEL 3
REMARK VINA RESULT:      -7.7      4.119      8.895
REMARK  5 active torsions:
REMARK  status: ('A' for Active; 'I' for Inactive)
REMARK    1  A    between atoms: O_2  and  C_3 
REMARK    2  A    between atoms: C_5  and  C_15 
REMARK    3  A    between atoms: C_8  and  C_9 
REMARK       I    between atoms: C_15  and  N_17 
REMARK    4  A    between atoms: N_17  and  C_18 
REMARK    5  A    between atoms: C_18  and  C_19 
ROOT
HETATM    1  C   UNL     1     -43.686  57.285 -57.175  1.00  0.00     0.080 A 
HETATM    2  C   UNL     1     -43.109  56.841 -55.975  1.00  0.00     0.054 A 
HETATM    3  C   UNL     1     -43.738  57.089 -54.746  1.00  0.00     0.034 A 
HETATM    4  C   UNL     1     -44.930  57.814 -54.711  1.00  0.00     0.018 A 
HETATM    5  C   UNL     1     -45.515  58.250 -55.901  1.00  0.00     0.016 A 
HETATM    6  C   UNL     1     -44.916  57.979 -57.145  1.00  0.00     0.010 A 
ENDROOT
BRANCH   3   7
HETATM    7  C   UNL     1     -43.165  56.603 -53.461  1.00  0.00     0.252 C 
HETATM    8  O   UNL     1     -43.860  56.543 -52.454  1.00  0.00    -0.268 OA
HETATM    9  N   UNL     1     -41.848  56.200 -53.504  1.00  0.00    -0.353 N 
HETATM   10  H   UNL     1     -41.445  55.997 -54.410  1.00  0.00     0.163 HD
BRANCH   9  11
HETATM   11  C   UNL     1     -41.231  55.550 -52.371  1.00  0.00     0.163 C 
BRANCH  11  12
HETATM   12  C   UNL     1     -40.775  54.156 -52.728  1.00  0.00    -0.019 A 
HETATM   13  C   UNL     1     -41.024  53.671 -54.023  1.00  0.00     0.012 A 
HETATM   14  C   UNL     1     -40.633  52.381 -54.393  1.00  0.00     0.020 A 
HETATM   15  C   UNL     1     -39.996  51.562 -53.466  1.00  0.00     0.012 A 
HETATM   16 BR   UNL     1     -39.477  49.813 -53.963  1.00  0.00    -0.051 Br
HETATM   17  C   UNL     1     -39.743  52.017 -52.176  1.00  0.00     0.043 A 
HETATM   18  C   UNL     1     -40.131  53.309 -51.809  1.00  0.00     0.043 A 
HETATM   19 CL   UNL     1     -39.811  53.808 -50.186  1.00  0.00    -0.084 Cl
ENDBRANCH  11  12
ENDBRANCH   9  11
ENDBRANCH   3   7
BRANCH   1  20
HETATM   20  O   UNL     1     -43.134  57.039 -58.407  1.00  0.00    -0.355 OA
HETATM   21  C   UNL     1     -43.256  55.727 -58.942  1.00  0.00     0.210 C 
ENDBRANCH   1  20
BRANCH   6  22
HETATM   22  C   UNL     1     -45.575  58.442 -58.363  1.00  0.00     0.013 A 
HETATM   23  C   UNL     1     -46.493  57.803 -59.230  1.00  0.00     0.152 A 
HETATM   24  N   UNL     1     -46.869  58.578 -60.252  1.00  0.00    -0.187 NA
HETATM   25  N   UNL     1     -46.206  59.723 -60.035  1.00  0.00    -0.289 N 
HETATM   26  H   UNL     1     -46.341  60.488 -60.689  1.00  0.00     0.188 HD
HETATM   27  C   UNL     1     -45.416  59.694 -58.923  1.00  0.00     0.123 A 
ENDBRANCH   6  22
TORSDOF 5
ENDMDL
MODEL 4
REMARK VINA RESULT:      -7.6      2.204      2.547
REMARK  5 active torsions:
REMARK  status: ('A' for Active; 'I' for Inactive)
REMARK    1  A    between atoms: O_2  and  C_3 
REMARK    2  A    between atoms: C_5  and  C_15 
REMARK    3  A    between atoms: C_8  and  C_9 
REMARK       I    between atoms: C_15  and  N_17 
REMARK    4  A    between atoms: N_17  and  C_18 
REMARK    5  A    between atoms: C_18  and  C_19 
ROOT
HETATM    1  C   UNL     1     -40.696  53.619 -52.314  1.00  0.00     0.080 A 
HETATM    2  C   UNL     1     -41.021  54.982 -52.388  1.00  0.00     0.054 A 
HETATM    3  C   UNL     1     -40.997  55.656 -53.617  1.00  0.00     0.034 A 
HETATM    4  C   UNL     1     -40.610  54.976 -54.773  1.00  0.00     0.018 A 
HETATM    5  C   UNL     1     -40.295  53.618 -54.710  1.00  0.00     0.016 A 
HETATM    6  C   UNL     1     -40.349  52.918 -53.491  1.00  0.00     0.010 A 
ENDROOT
BRANCH   3   7
HETATM    7  C   UNL     1     -41.368  57.093 -53.730  1.00  0.00     0.252 C 
HETATM    8  O   UNL     1     -40.808  57.935 -53.039  1.00  0.00    -0.268 OA
HETATM    9  N   UNL     1     -42.328  57.395 -54.671  1.00  0.00    -0.353 N 
HETATM   10  H   UNL     1     -42.514  56.709 -55.392  1.00  0.00     0.163 HD
BRANCH   9  11
HETATM   11  C   UNL     1     -42.648  58.766 -54.997  1.00  0.00     0.163 C 
BRANCH  11  12
HETATM   12  C   UNL     1     -42.508  59.018 -56.478  1.00  0.00    -0.019 A 
HETATM   13  C   UNL     1     -42.203  57.939 -57.326  1.00  0.00     0.012 A 
HETATM   14  C   UNL     1     -42.050  58.128 -58.701  1.00  0.00     0.020 A 
HETATM   15  C   UNL     1     -42.194  59.403 -59.242  1.00  0.00     0.012 A 
HETATM   16 BR   UNL     1     -41.977  59.662 -61.101  1.00  0.00    -0.051 Br
HETATM   17  C   UNL     1     -42.492  60.488 -58.423  1.00  0.00     0.043 A 
HETATM   18  C   UNL     1     -42.649  60.295 -57.048  1.00  0.00     0.043 A 
HETATM   19 CL   UNL     1     -42.994  61.686 -56.081  1.00  0.00    -0.084 Cl
ENDBRANCH  11  12
ENDBRANCH   9  11
ENDBRANCH   3   7
BRANCH   1  20
HETATM   20  O   UNL     1     -40.738  52.901 -51.145  1.00  0.00    -0.355 OA
HETATM   21  C   UNL     1     -40.453  53.585 -49.932  1.00  0.00     0.210 C 
ENDBRANCH   1  20
BRANCH   6  22
HETATM   22  C   UNL     1     -40.026  51.494 -53.479  1.00  0.00     0.013 A 
HETATM   23  C   UNL     1     -40.059  50.518 -54.502  1.00  0.00     0.152 A 
HETATM   24  N   UNL     1     -39.682  49.307 -54.080  1.00  0.00    -0.187 NA
HETATM   25  N   UNL     1     -39.389  49.506 -52.787  1.00  0.00    -0.289 N 
HETATM   26  H   UNL     1     -39.060  48.716 -52.242  1.00  0.00     0.188 HD
HETATM   27  C   UNL     1     -39.580  50.793 -52.376  1.00  0.00     0.123 A 
ENDBRANCH   6  22
TORSDOF 5
ENDMDL
MODEL 5
REMARK VINA RESULT:      -7.5     15.280     17.911
REMARK  5 active torsions:
REMARK  status: ('A' for Active; 'I' for Inactive)
REMARK    1  A    between atoms: O_2  and  C_3 
REMARK    2  A    between atoms: C_5  and  C_15 
REMARK    3  A    between atoms: C_8  and  C_9 
REMARK       I    between atoms: C_15  and  N_17 
REMARK    4  A    between atoms: N_17  and  C_18 
REMARK    5  A    between atoms: C_18  and  C_19 
ROOT
HETATM    1  C   UNL     1     -36.666  39.773 -56.397  1.00  0.00     0.080 A 
HETATM    2  C   UNL     1     -36.462  40.209 -55.079  1.00  0.00     0.054 A 
HETATM    3  C   UNL     1     -35.898  41.466 -54.822  1.00  0.00     0.034 A 
HETATM    4  C   UNL     1     -35.499  42.277 -55.885  1.00  0.00     0.018 A 
HETATM    5  C   UNL     1     -35.707  41.855 -57.199  1.00  0.00     0.016 A 
HETATM    6  C   UNL     1     -36.305  40.613 -57.475  1.00  0.00     0.010 A 
ENDROOT
BRANCH   3   7
HETATM    7  C   UNL     1     -35.700  41.968 -53.434  1.00  0.00     0.252 C 
HETATM    8  O   UNL     1     -36.575  42.618 -52.878  1.00  0.00    -0.268 OA
HETATM    9  N   UNL     1     -34.511  41.617 -52.832  1.00  0.00    -0.353 N 
HETATM   10  H   UNL     1     -33.988  40.847 -53.230  1.00  0.00     0.163 HD
BRANCH   9  11
HETATM   11  C   UNL     1     -34.274  41.893 -51.434  1.00  0.00     0.163 C 
BRANCH  11  12
HETATM   12  C   UNL     1     -33.920  40.632 -50.685  1.00  0.00    -0.019 A 
HETATM   13  C   UNL     1     -32.565  40.301 -50.514  1.00  0.00     0.012 A 
HETATM   14  C   UNL     1     -32.191  39.135 -49.840  1.00  0.00     0.020 A 
HETATM   15  C   UNL     1     -33.171  38.286 -49.336  1.00  0.00     0.012 A 
HETATM   16 BR   UNL     1     -32.667  36.704 -48.434  1.00  0.00    -0.051 Br
HETATM   17  C   UNL     1     -34.520  38.589 -49.497  1.00  0.00     0.043 A 
HETATM   18  C   UNL     1     -34.892  39.758 -50.168  1.00  0.00     0.043 A 
HETATM   19 CL   UNL     1     -36.582  40.067 -50.356  1.00  0.00    -0.084 Cl
ENDBRANCH  11  12
ENDBRANCH   9  11
ENDBRANCH   3   7
BRANCH   1  20
HETATM   20  O   UNL     1     -37.248  38.569 -56.706  1.00  0.00    -0.355 OA
HETATM   21  C   UNL     1     -36.583  37.382 -56.293  1.00  0.00     0.210 C 
ENDBRANCH   1  20
BRANCH   6  22
HETATM   22  C   UNL     1     -36.517  40.223 -58.866  1.00  0.00     0.013 A 
HETATM   23  C   UNL     1     -36.055  39.109 -59.605  1.00  0.00     0.152 A 
HETATM   24  N   UNL     1     -36.478  39.113 -60.873  1.00  0.00    -0.187 NA
HETATM   25  N   UNL     1     -37.227  40.223 -60.947  1.00  0.00    -0.289 N 
HETATM   26  H   UNL     1     -37.676  40.442 -61.831  1.00  0.00     0.188 HD
HETATM   27  C   UNL     1     -37.280  40.924 -59.778  1.00  0.00     0.123 A 
ENDBRANCH   6  22
TORSDOF 5
ENDMDL
MODEL 6
REMARK VINA RESULT:      -7.5      4.434      8.646
REMARK  5 active torsions:
REMARK  status: ('A' for Active; 'I' for Inactive)
REMARK    1  A    between atoms: O_2  and  C_3 
REMARK    2  A    between atoms: C_5  and  C_15 
REMARK    3  A    between atoms: C_8  and  C_9 
REMARK       I    between atoms: C_15  and  N_17 
REMARK    4  A    between atoms: N_17  and  C_18 
REMARK    5  A    between atoms: C_18  and  C_19 
ROOT
HETATM    1  C   UNL     1     -43.677  57.822 -56.341  1.00  0.00     0.080 A 
HETATM    2  C   UNL     1     -43.496  57.683 -54.956  1.00  0.00     0.054 A 
HETATM    3  C   UNL     1     -43.005  56.486 -54.417  1.00  0.00     0.034 A 
HETATM    4  C   UNL     1     -42.729  55.408 -55.260  1.00  0.00     0.018 A 
HETATM    5  C   UNL     1     -42.897  55.542 -56.638  1.00  0.00     0.016 A 
HETATM    6  C   UNL     1     -43.354  56.747 -57.200  1.00  0.00     0.010 A 
ENDROOT
BRANCH   3   7
HETATM    7  C   UNL     1     -42.773  56.322 -52.956  1.00  0.00     0.252 C 
HETATM    8  O   UNL     1     -43.716  56.314 -52.174  1.00  0.00    -0.268 OA
HETATM    9  N   UNL     1     -41.462  56.143 -52.571  1.00  0.00    -0.353 N 
HETATM   10  H   UNL     1     -40.796  55.863 -53.280  1.00  0.00     0.163 HD
BRANCH   9  11
HETATM   11  C   UNL     1     -41.126  55.801 -51.208  1.00  0.00     0.163 C 
BRANCH  11  12
HETATM   12  C   UNL     1     -40.731  54.350 -51.095  1.00  0.00    -0.019 A 
HETATM   13  C   UNL     1     -40.493  53.616 -52.271  1.00  0.00     0.012 A 
HETATM   14  C   UNL     1     -40.140  52.266 -52.214  1.00  0.00     0.020 A 
HETATM   15  C   UNL     1     -40.029  51.633 -50.979  1.00  0.00     0.012 A 
HETATM   16 BR   UNL     1     -39.562  49.803 -50.903  1.00  0.00    -0.051 Br
HETATM   17  C   UNL     1     -40.264  52.336 -49.802  1.00  0.00     0.043 A 
HETATM   18  C   UNL     1     -40.613  53.688 -49.860  1.00  0.00     0.043 A 
HETATM   19 CL   UNL     1     -40.916  54.500 -48.364  1.00  0.00    -0.084 Cl
ENDBRANCH  11  12
ENDBRANCH   9  11
ENDBRANCH   3   7
BRANCH   1  20
HETATM   20  O   UNL     1     -44.119  58.982 -56.927  1.00  0.00    -0.355 OA
HETATM   21  C   UNL     1     -43.254  60.110 -56.904  1.00  0.00     0.210 C 
ENDBRANCH   1  20
BRANCH   6  22
HETATM   22  C   UNL     1     -43.497  56.843 -58.650  1.00  0.00     0.013 A 
HETATM   23  C   UNL     1     -42.598  57.275 -59.653  1.00  0.00     0.152 A 
HETATM   24  N   UNL     1     -43.118  57.209 -60.882  1.00  0.00    -0.187 NA
HETATM   25  N   UNL     1     -44.348  56.719 -60.673  1.00  0.00    -0.289 N 
HETATM   26  H   UNL     1     -44.947  56.566 -61.479  1.00  0.00     0.188 HD
HETATM   27  C   UNL     1     -44.628  56.487 -59.359  1.00  0.00     0.123 A 
ENDBRANCH   6  22
TORSDOF 5
ENDMDL
MODEL 7
REMARK VINA RESULT:      -7.4      4.457      9.369
REMARK  5 active torsions:
REMARK  status: ('A' for Active; 'I' for Inactive)
REMARK    1  A    between atoms: O_2  and  C_3 
REMARK    2  A    between atoms: C_5  and  C_15 
REMARK    3  A    between atoms: C_8  and  C_9 
REMARK       I    between atoms: C_15  and  N_17 
REMARK    4  A    between atoms: N_17  and  C_18 
REMARK    5  A    between atoms: C_18  and  C_19 
ROOT
HETATM    1  C   UNL     1     -43.570  57.031 -58.617  1.00  0.00     0.080 A 
HETATM    2  C   UNL     1     -43.267  55.860 -57.907  1.00  0.00     0.054 A 
HETATM    3  C   UNL     1     -42.667  55.928 -56.641  1.00  0.00     0.034 A 
HETATM    4  C   UNL     1     -42.333  57.169 -56.098  1.00  0.00     0.018 A 
HETATM    5  C   UNL     1     -42.641  58.339 -56.794  1.00  0.00     0.016 A 
HETATM    6  C   UNL     1     -43.275  58.291 -58.048  1.00  0.00     0.010 A 
ENDROOT
BRANCH   3   7
HETATM    7  C   UNL     1     -42.363  54.703 -55.851  1.00  0.00     0.252 C 
HETATM    8  O   UNL     1     -43.235  53.870 -55.636  1.00  0.00    -0.268 OA
HETATM    9  N   UNL     1     -41.058  54.566 -55.432  1.00  0.00    -0.353 N 
HETATM   10  H   UNL     1     -40.352  55.124 -55.896  1.00  0.00     0.163 HD
BRANCH   9  11
HETATM   11  C   UNL     1     -40.599  53.345 -54.811  1.00  0.00     0.163 C 
BRANCH  11  12
HETATM   12  C   UNL     1     -40.578  53.476 -53.308  1.00  0.00    -0.019 A 
HETATM   13  C   UNL     1     -41.020  54.676 -52.724  1.00  0.00     0.012 A 
HETATM   14  C   UNL     1     -41.004  54.847 -51.337  1.00  0.00     0.020 A 
HETATM   15  C   UNL     1     -40.538  53.820 -50.521  1.00  0.00     0.012 A 
HETATM   16 BR   UNL     1     -40.506  54.055 -48.646  1.00  0.00    -0.051 Br
HETATM   17  C   UNL     1     -40.090  52.625 -51.075  1.00  0.00     0.043 A 
HETATM   18  C   UNL     1     -40.111  52.454 -52.463  1.00  0.00     0.043 A 
HETATM   19 CL   UNL     1     -39.520  50.956 -53.092  1.00  0.00    -0.084 Cl
ENDBRANCH  11  12
ENDBRANCH   9  11
ENDBRANCH   3   7
BRANCH   1  20
HETATM   20  O   UNL     1     -44.191  57.026 -59.842  1.00  0.00    -0.355 OA
HETATM   21  C   UNL     1     -44.283  55.788 -60.535  1.00  0.00     0.210 C 
ENDBRANCH   1  20
BRANCH   6  22
HETATM   22  C   UNL     1     -43.591  59.543 -58.730  1.00  0.00     0.013 A 
HETATM   23  C   UNL     1     -44.760  60.339 -58.730  1.00  0.00     0.152 A 
HETATM   24  N   UNL     1     -44.648  61.429 -59.495  1.00  0.00    -0.187 NA
HETATM   25  N   UNL     1     -43.400  61.344 -59.976  1.00  0.00    -0.289 N 
HETATM   26  H   UNL     1     -43.070  62.083 -60.590  1.00  0.00     0.188 HD
HETATM   27  C   UNL     1     -42.726  60.235 -59.554  1.00  0.00     0.123 A 
ENDBRANCH   6  22
TORSDOF 5
ENDMDL
MODEL 8
REMARK VINA RESULT:      -7.3      2.991      3.745
REMARK  5 active torsions:
REMARK  status: ('A' for Active; 'I' for Inactive)
REMARK    1  A    between atoms: O_2  and  C_3 
REMARK    2  A    between atoms: C_5  and  C_15 
REMARK    3  A    between atoms: C_8  and  C_9 
REMARK       I    between atoms: C_15  and  N_17 
REMARK    4  A    between atoms: N_17  and  C_18 
REMARK    5  A    between atoms: C_18  and  C_19 
ROOT
HETATM    1  C   UNL     1     -41.516  55.844 -52.624  1.00  0.00     0.080 A 
HETATM    2  C   UNL     1     -41.982  55.842 -53.948  1.00  0.00     0.054 A 
HETATM    3  C   UNL     1     -42.327  54.640 -54.582  1.00  0.00     0.034 A 
HETATM    4  C   UNL     1     -42.171  53.430 -53.905  1.00  0.00     0.018 A 
HETATM    5  C   UNL     1     -41.718  53.424 -52.585  1.00  0.00     0.016 A 
HETATM    6  C   UNL     1     -41.402  54.623 -51.921  1.00  0.00     0.010 A 
ENDROOT
BRANCH   3   7
HETATM    7  C   UNL     1     -42.854  54.612 -55.974  1.00  0.00     0.252 C 
HETATM    8  O   UNL     1     -43.615  53.722 -56.332  1.00  0.00    -0.268 OA
HETATM    9  N   UNL     1     -42.463  55.654 -56.786  1.00  0.00    -0.353 N 
HETATM   10  H   UNL     1     -42.095  56.486 -56.343  1.00  0.00     0.163 HD
BRANCH   9  11
HETATM   11  C   UNL     1     -43.042  55.834 -58.098  1.00  0.00     0.163 C 
BRANCH  11  12
HETATM   12  C   UNL     1     -42.734  57.207 -58.642  1.00  0.00    -0.019 A 
HETATM   13  C   UNL     1     -42.115  57.316 -59.899  1.00  0.00     0.012 A 
HETATM   14  C   UNL     1     -41.798  58.567 -60.437  1.00  0.00     0.020 A 
HETATM   15  C   UNL     1     -42.092  59.721 -59.716  1.00  0.00     0.012 A 
HETATM   16 BR   UNL     1     -41.654  61.412 -60.437  1.00  0.00    -0.051 Br
HETATM   17  C   UNL     1     -42.700  59.639 -58.468  1.00  0.00     0.043 A 
HETATM   18  C   UNL     1     -43.020  58.387 -57.934  1.00  0.00     0.043 A 
HETATM   19 CL   UNL     1     -43.753  58.350 -56.369  1.00  0.00    -0.084 Cl
ENDBRANCH  11  12
ENDBRANCH   9  11
ENDBRANCH   3   7
BRANCH   1  20
HETATM   20  O   UNL     1     -41.200  56.992 -51.942  1.00  0.00    -0.355 OA
HETATM   21  C   UNL     1     -42.242  57.926 -51.691  1.00  0.00     0.210 C 
ENDBRANCH   1  20
BRANCH   6  22
HETATM   22  C   UNL     1     -40.947  54.566 -50.535  1.00  0.00     0.013 A 
HETATM   23  C   UNL     1     -41.565  54.976 -49.330  1.00  0.00     0.152 A 
HETATM   24  N   UNL     1     -40.808  54.747 -48.253  1.00  0.00    -0.187 NA
HETATM   25  N   UNL     1     -39.707  54.174 -48.762  1.00  0.00    -0.289 N 
HETATM   26  H   UNL     1     -38.972  53.892 -48.121  1.00  0.00     0.188 HD
HETATM   27  C   UNL     1     -39.737  54.045 -50.119  1.00  0.00     0.123 A 
ENDBRANCH   6  22
TORSDOF 5
ENDMDL
MODEL 9
REMARK VINA RESULT:      -7.3      2.779      3.545
REMARK  5 active torsions:
REMARK  status: ('A' for Active; 'I' for Inactive)
REMARK    1  A    between atoms: O_2  and  C_3 
REMARK    2  A    between atoms: C_5  and  C_15 
REMARK    3  A    between atoms: C_8  and  C_9 
REMARK       I    between atoms: C_15  and  N_17 
REMARK    4  A    between atoms: N_17  and  C_18 
REMARK    5  A    between atoms: C_18  and  C_19 
ROOT
HETATM    1  C   UNL     1     -41.542  55.999 -52.675  1.00  0.00     0.080 A 
HETATM    2  C   UNL     1     -41.957  56.035 -54.015  1.00  0.00     0.054 A 
HETATM    3  C   UNL     1     -42.240  54.849 -54.707  1.00  0.00     0.034 A 
HETATM    4  C   UNL     1     -42.071  53.618 -54.071  1.00  0.00     0.018 A 
HETATM    5  C   UNL     1     -41.669  53.574 -52.735  1.00  0.00     0.016 A 
HETATM    6  C   UNL     1     -41.416  54.755 -52.015  1.00  0.00     0.010 A 
ENDROOT
BRANCH   3   7
HETATM    7  C   UNL     1     -42.712  54.859 -56.119  1.00  0.00     0.252 C 
HETATM    8  O   UNL     1     -43.477  53.993 -56.524  1.00  0.00    -0.268 OA
HETATM    9  N   UNL     1     -42.267  55.907 -56.894  1.00  0.00    -0.353 N 
HETATM   10  H   UNL     1     -41.898  56.722 -56.420  1.00  0.00     0.163 HD
BRANCH   9  11
HETATM   11  C   UNL     1     -42.789  56.125 -58.224  1.00  0.00     0.163 C 
BRANCH  11  12
HETATM   12  C   UNL     1     -44.028  56.984 -58.185  1.00  0.00    -0.019 A 
HETATM   13  C   UNL     1     -44.141  57.971 -57.190  1.00  0.00     0.012 A 
HETATM   14  C   UNL     1     -45.278  58.779 -57.108  1.00  0.00     0.020 A 
HETATM   15  C   UNL     1     -46.316  58.603 -58.017  1.00  0.00     0.012 A 
HETATM   16 BR   UNL     1     -47.859  59.690 -57.900  1.00  0.00    -0.051 Br
HETATM   17  C   UNL     1     -46.231  57.631 -59.008  1.00  0.00     0.043 A 
HETATM   18  C   UNL     1     -45.091  56.826 -59.092  1.00  0.00     0.043 A 
HETATM   19 CL   UNL     1     -45.054  55.619 -60.330  1.00  0.00    -0.084 Cl
ENDBRANCH  11  12
ENDBRANCH   9  11
ENDBRANCH   3   7
BRANCH   1  20
HETATM   20  O   UNL     1     -41.289  57.129 -51.938  1.00  0.00    -0.355 OA
HETATM   21  C   UNL     1     -42.386  57.975 -51.618  1.00  0.00     0.210 C 
ENDBRANCH   1  20
BRANCH   6  22
HETATM   22  C   UNL     1     -41.013  54.658 -50.615  1.00  0.00     0.013 A 
HETATM   23  C   UNL     1     -41.685  55.011 -49.421  1.00  0.00     0.152 A 
HETATM   24  N   UNL     1     -40.965  54.760 -48.324  1.00  0.00    -0.187 NA
HETATM   25  N   UNL     1     -39.834  54.228 -48.810  1.00  0.00    -0.289 N 
HETATM   26  H   UNL     1     -39.118  53.939 -48.151  1.00  0.00     0.188 HD
HETATM   27  C   UNL     1     -39.809  54.148 -50.171  1.00  0.00     0.123 A 
ENDBRANCH   6  22
TORSDOF 5
ENDMDL
MODEL 10
REMARK VINA RESULT:      -7.1     15.015     17.645
REMARK  5 active torsions:
REMARK  status: ('A' for Active; 'I' for Inactive)
REMARK    1  A    between atoms: O_2  and  C_3 
REMARK    2  A    between atoms: C_5  and  C_15 
REMARK    3  A    between atoms: C_8  and  C_9 
REMARK       I    between atoms: C_15  and  N_17 
REMARK    4  A    between atoms: N_17  and  C_18 
REMARK    5  A    between atoms: C_18  and  C_19 
ROOT
HETATM    1  C   UNL     1     -37.550  38.755 -57.729  1.00  0.00     0.080 A 
HETATM    2  C   UNL     1     -37.258  39.370 -56.501  1.00  0.00     0.054 A 
HETATM    3  C   UNL     1     -37.261  40.768 -56.384  1.00  0.00     0.034 A 
HETATM    4  C   UNL     1     -37.520  41.556 -57.506  1.00  0.00     0.018 A 
HETATM    5  C   UNL     1     -37.821  40.953 -58.728  1.00  0.00     0.016 A 
HETATM    6  C   UNL     1     -37.858  39.553 -58.855  1.00  0.00     0.010 A 
ENDROOT
BRANCH   3   7
HETATM    7  C   UNL     1     -36.987  41.446 -55.088  1.00  0.00     0.252 C 
HETATM    8  O   UNL     1     -36.384  42.511 -55.060  1.00  0.00    -0.268 OA
HETATM    9  N   UNL     1     -37.484  40.821 -53.965  1.00  0.00    -0.353 N 
HETATM   10  H   UNL     1     -38.212  40.129 -54.093  1.00  0.00     0.163 HD
BRANCH   9  11
HETATM   11  C   UNL     1     -37.436  41.463 -52.672  1.00  0.00     0.163 C 
BRANCH  11  12
HETATM   12  C   UNL     1     -36.215  41.032 -51.898  1.00  0.00    -0.019 A 
HETATM   13  C   UNL     1     -35.079  41.860 -51.903  1.00  0.00     0.012 A 
HETATM   14  C   UNL     1     -33.921  41.494 -51.212  1.00  0.00     0.020 A 
HETATM   15  C   UNL     1     -33.886  40.290 -50.515  1.00  0.00     0.012 A 
HETATM   16 BR   UNL     1     -32.317  39.789 -49.589  1.00  0.00    -0.051 Br
HETATM   17  C   UNL     1     -34.996  39.450 -50.499  1.00  0.00     0.043 A 
HETATM   18  C   UNL     1     -36.155  39.821 -51.187  1.00  0.00     0.043 A 
HETATM   19 CL   UNL     1     -37.491  38.724 -51.149  1.00  0.00    -0.084 Cl
ENDBRANCH  11  12
ENDBRANCH   9  11
ENDBRANCH   3   7
BRANCH   1  20
HETATM   20  O   UNL     1     -37.598  37.394 -57.892  1.00  0.00    -0.355 OA
HETATM   21  C   UNL     1     -36.375  36.672 -57.828  1.00  0.00     0.210 C 
ENDBRANCH   1  20
BRANCH   6  22
HETATM   22  C   UNL     1     -38.194  38.968 -60.150  1.00  0.00     0.013 A 
HETATM   23  C   UNL     1     -39.365  38.320 -60.608  1.00  0.00     0.152 A 
HETATM   24  N   UNL     1     -39.276  37.922 -61.881  1.00  0.00    -0.187 NA
HETATM   25  N   UNL     1     -38.052  38.330 -62.249  1.00  0.00    -0.289 N 
HETATM   26  H   UNL     1     -37.752  38.148 -63.202  1.00  0.00     0.188 HD
HETATM   27  C   UNL     1     -37.363  38.956 -61.253  1.00  0.00     0.123 A 
ENDBRANCH   6  22
TORSDOF 5
ENDMDL
