MODEL 1
REMARK VINA RESULT:      -9.0      0.000      0.000
REMARK  4 active torsions:
REMARK  status: ('A' for Active; 'I' for Inactive)
REMARK    1  A    between atoms: C_7  and  C_8 
REMARK    2  A    between atoms: N_9  and  N_10 
REMARK       I    between atoms: N_10  and  C_11 
REMARK    3  A    between atoms: C_11  and  C_12 
REMARK    4  A    between atoms: C_16  and  C_17 
ROOT
HETATM    1  N   UNL     1     -42.436  56.059 -57.211  1.00  0.00    -0.242 N 
HETATM    2  C   UNL     1     -42.694  55.730 -55.889  1.00  0.00     0.289 C 
HETATM    3  O   UNL     1     -43.603  56.212 -55.219  1.00  0.00    -0.264 OA
HETATM    4  H   UNL     1     -41.642  55.658 -57.694  1.00  0.00     0.192 HD
ENDROOT
BRANCH   1   5
HETATM    5  N   UNL     1     -43.209  56.989 -57.849  1.00  0.00    -0.183 NA
HETATM    6  C   UNL     1     -43.151  56.985 -59.141  1.00  0.00     0.153 C 
BRANCH   6   7
HETATM    7  C   UNL     1     -43.929  57.937 -59.913  1.00  0.00     0.018 A 
HETATM    8  C   UNL     1     -45.304  57.934 -60.108  1.00  0.00     0.018 A 
HETATM    9  C   UNL     1     -46.362  57.009 -59.618  1.00  0.00     0.069 C 
HETATM   10  N   UNL     1     -45.617  59.011 -60.900  1.00  0.00    -0.358 N 
HETATM   11  H   UNL     1     -46.549  59.255 -61.203  1.00  0.00     0.166 HD
HETATM   12  C   UNL     1     -44.486  59.718 -61.226  1.00  0.00     0.043 A 
HETATM   13  C   UNL     1     -43.408  59.072 -60.623  1.00  0.00     0.004 A 
HETATM   14  C   UNL     1     -44.343  60.874 -62.005  1.00  0.00     0.030 A 
HETATM   15  C   UNL     1     -42.117  59.613 -60.810  1.00  0.00     0.014 A 
HETATM   16  C   UNL     1     -41.956  60.767 -61.584  1.00  0.00     0.001 A 
HETATM   17  C   UNL     1     -43.054  61.387 -62.173  1.00  0.00     0.002 A 
ENDBRANCH   6   7
ENDBRANCH   1   5
BRANCH   2  18
HETATM   18  C   UNL     1     -41.786  54.763 -55.323  1.00  0.00     0.121 A 
HETATM   19  N   UNL     1     -40.440  54.844 -55.546  1.00  0.00    -0.272 N 
HETATM   20  H   UNL     1     -39.958  55.552 -56.094  1.00  0.00     0.189 HD
HETATM   21  N   UNL     1     -39.726  53.870 -54.961  1.00  0.00    -0.174 NA
HETATM   22  C   UNL     1     -40.639  53.105 -54.341  1.00  0.00     0.091 A 
HETATM   23  C   UNL     1     -41.941  53.653 -54.516  1.00  0.00     0.071 A 
BRANCH  22  24
HETATM   24  C   UNL     1     -40.237  51.926 -53.572  1.00  0.00     0.016 A 
HETATM   25  C   UNL     1     -39.951  51.949 -52.196  1.00  0.00     0.046 A 
HETATM   26 CL   UNL     1     -40.102  53.370 -51.217  1.00  0.00    -0.083 Cl
HETATM   27  C   UNL     1     -39.557  50.778 -51.533  1.00  0.00     0.025 A 
HETATM   28  C   UNL     1     -39.452  49.573 -52.228  1.00  0.00     0.002 A 
HETATM   29  C   UNL     1     -39.745  49.530 -53.586  1.00  0.00     0.001 A 
HETATM   30  C   UNL     1     -40.136  50.695 -54.251  1.00  0.00     0.015 A 
ENDBRANCH  22  24
ENDBRANCH   2  18
TORSDOF 4
ENDMDL
MODEL 2
REMARK VINA RESULT:      -8.9      2.637     10.246
REMARK  4 active torsions:
REMARK  status: ('A' for Active; 'I' for Inactive)
REMARK    1  A    between atoms: C_7  and  C_8 
REMARK    2  A    between atoms: N_9  and  N_10 
REMARK       I    between atoms: N_10  and  C_11 
REMARK    3  A    between atoms: C_11  and  C_12 
REMARK    4  A    between atoms: C_16  and  C_17 
ROOT
HETATM    1  N   UNL     1     -42.252  55.841 -54.697  1.00  0.00    -0.242 N 
HETATM    2  C   UNL     1     -42.852  55.487 -55.896  1.00  0.00     0.289 C 
HETATM    3  O   UNL     1     -43.235  54.354 -56.173  1.00  0.00    -0.264 OA
HETATM    4  H   UNL     1     -41.919  56.784 -54.549  1.00  0.00     0.192 HD
ENDROOT
BRANCH   1   5
HETATM    5  N   UNL     1     -42.035  54.893 -53.735  1.00  0.00    -0.183 NA
HETATM    6  C   UNL     1     -40.809  54.510 -53.582  1.00  0.00     0.153 C 
BRANCH   6   7
HETATM    7  C   UNL     1     -40.474  53.503 -52.592  1.00  0.00     0.018 A 
HETATM    8  C   UNL     1     -40.394  53.675 -51.216  1.00  0.00     0.018 A 
HETATM    9  C   UNL     1     -40.614  54.876 -50.362  1.00  0.00     0.069 C 
HETATM   10  N   UNL     1     -40.048  52.468 -50.662  1.00  0.00    -0.358 N 
HETATM   11  H   UNL     1     -39.919  52.299 -49.674  1.00  0.00     0.166 HD
HETATM   12  C   UNL     1     -39.901  51.511 -51.637  1.00  0.00     0.043 A 
HETATM   13  C   UNL     1     -40.161  52.128 -52.860  1.00  0.00     0.004 A 
HETATM   14  C   UNL     1     -39.559  50.158 -51.523  1.00  0.00     0.030 A 
HETATM   15  C   UNL     1     -40.075  51.345 -54.032  1.00  0.00     0.014 A 
HETATM   16  C   UNL     1     -39.736  49.990 -53.937  1.00  0.00     0.001 A 
HETATM   17  C   UNL     1     -39.482  49.408 -52.699  1.00  0.00     0.002 A 
ENDBRANCH   6   7
ENDBRANCH   1   5
BRANCH   2  18
HETATM   18  C   UNL     1     -42.991  56.570 -56.839  1.00  0.00     0.121 A 
HETATM   19  N   UNL     1     -44.211  56.903 -57.358  1.00  0.00    -0.272 N 
HETATM   20  H   UNL     1     -45.101  56.460 -57.145  1.00  0.00     0.189 HD
HETATM   21  N   UNL     1     -44.179  57.924 -58.227  1.00  0.00    -0.174 NA
HETATM   22  C   UNL     1     -42.883  58.268 -58.299  1.00  0.00     0.091 A 
HETATM   23  C   UNL     1     -42.110  57.463 -57.416  1.00  0.00     0.071 A 
BRANCH  22  24
HETATM   24  C   UNL     1     -42.443  59.371 -59.157  1.00  0.00     0.016 A 
HETATM   25  C   UNL     1     -42.107  60.648 -58.677  1.00  0.00     0.046 A 
HETATM   26 CL   UNL     1     -42.109  61.065 -56.996  1.00  0.00    -0.083 Cl
HETATM   27  C   UNL     1     -41.708  61.657 -59.566  1.00  0.00     0.025 A 
HETATM   28  C   UNL     1     -41.630  61.404 -60.936  1.00  0.00     0.002 A 
HETATM   29  C   UNL     1     -41.945  60.141 -61.423  1.00  0.00     0.001 A 
HETATM   30  C   UNL     1     -42.345  59.134 -60.542  1.00  0.00     0.015 A 
ENDBRANCH  22  24
ENDBRANCH   2  18
TORSDOF 4
ENDMDL
MODEL 3
REMARK VINA RESULT:      -8.8      2.743     10.432
REMARK  4 active torsions:
REMARK  status: ('A' for Active; 'I' for Inactive)
REMARK    1  A    between atoms: C_7  and  C_8 
REMARK    2  A    between atoms: N_9  and  N_10 
REMARK       I    between atoms: N_10  and  C_11 
REMARK    3  A    between atoms: C_11  and  C_12 
REMARK    4  A    between atoms: C_16  and  C_17 
ROOT
HETATM    1  N   UNL     1     -41.866  54.987 -56.366  1.00  0.00    -0.242 N 
HETATM    2  C   UNL     1     -42.794  56.011 -56.480  1.00  0.00     0.289 C 
HETATM    3  O   UNL     1     -43.576  56.341 -55.592  1.00  0.00    -0.264 OA
HETATM    4  H   UNL     1     -41.281  54.735 -57.151  1.00  0.00     0.192 HD
ENDROOT
BRANCH   1   5
HETATM    5  N   UNL     1     -41.791  54.257 -55.211  1.00  0.00    -0.183 NA
HETATM    6  C   UNL     1     -40.660  54.302 -54.584  1.00  0.00     0.153 C 
BRANCH   6   7
HETATM    7  C   UNL     1     -40.474  53.558 -53.352  1.00  0.00     0.018 A 
HETATM    8  C   UNL     1     -40.601  54.038 -52.055  1.00  0.00     0.018 A 
HETATM    9  C   UNL     1     -40.950  55.391 -51.540  1.00  0.00     0.069 C 
HETATM   10  N   UNL     1     -40.339  53.000 -51.197  1.00  0.00    -0.358 N 
HETATM   11  H   UNL     1     -40.358  53.063 -50.188  1.00  0.00     0.166 HD
HETATM   12  C   UNL     1     -40.045  51.855 -51.895  1.00  0.00     0.043 A 
HETATM   13  C   UNL     1     -40.122  52.170 -53.252  1.00  0.00     0.004 A 
HETATM   14  C   UNL     1     -39.721  50.575 -51.427  1.00  0.00     0.030 A 
HETATM   15  C   UNL     1     -39.859  51.146 -54.189  1.00  0.00     0.014 A 
HETATM   16  C   UNL     1     -39.535  49.862 -53.739  1.00  0.00     0.001 A 
HETATM   17  C   UNL     1     -39.467  49.583 -52.377  1.00  0.00     0.002 A 
ENDBRANCH   6   7
ENDBRANCH   1   5
BRANCH   2  18
HETATM   18  C   UNL     1     -42.796  56.679 -57.758  1.00  0.00     0.121 A 
HETATM   19  N   UNL     1     -42.461  56.012 -58.903  1.00  0.00    -0.272 N 
HETATM   20  H   UNL     1     -42.197  55.033 -58.979  1.00  0.00     0.189 HD
HETATM   21  N   UNL     1     -42.500  56.768 -60.011  1.00  0.00    -0.174 NA
HETATM   22  C   UNL     1     -42.860  57.987 -59.578  1.00  0.00     0.091 A 
HETATM   23  C   UNL     1     -43.089  57.962 -58.173  1.00  0.00     0.071 A 
BRANCH  22  24
HETATM   24  C   UNL     1     -43.021  59.102 -60.514  1.00  0.00     0.016 A 
HETATM   25  C   UNL     1     -44.267  59.570 -60.966  1.00  0.00     0.046 A 
HETATM   26 CL   UNL     1     -45.780  58.926 -60.421  1.00  0.00    -0.083 Cl
HETATM   27  C   UNL     1     -44.337  60.635 -61.875  1.00  0.00     0.025 A 
HETATM   28  C   UNL     1     -43.173  61.249 -62.337  1.00  0.00     0.002 A 
HETATM   29  C   UNL     1     -41.933  60.807 -61.887  1.00  0.00     0.001 A 
HETATM   30  C   UNL     1     -41.859  59.745 -60.983  1.00  0.00     0.015 A 
ENDBRANCH  22  24
ENDBRANCH   2  18
TORSDOF 4
ENDMDL
MODEL 4
REMARK VINA RESULT:      -8.6      1.370      2.538
REMARK  4 active torsions:
REMARK  status: ('A' for Active; 'I' for Inactive)
REMARK    1  A    between atoms: C_7  and  C_8 
REMARK    2  A    between atoms: N_9  and  N_10 
REMARK       I    between atoms: N_10  and  C_11 
REMARK    3  A    between atoms: C_11  and  C_12 
REMARK    4  A    between atoms: C_16  and  C_17 
ROOT
HETATM    1  N   UNL     1     -42.581  56.380 -56.971  1.00  0.00    -0.242 N 
HETATM    2  C   UNL     1     -42.870  55.885 -55.709  1.00  0.00     0.289 C 
HETATM    3  O   UNL     1     -43.832  56.236 -55.030  1.00  0.00    -0.264 OA
HETATM    4  H   UNL     1     -41.747  56.082 -57.460  1.00  0.00     0.192 HD
ENDROOT
BRANCH   1   5
HETATM    5  N   UNL     1     -43.382  57.336 -57.532  1.00  0.00    -0.183 NA
HETATM    6  C   UNL     1     -43.866  57.057 -58.699  1.00  0.00     0.153 C 
BRANCH   6   7
HETATM    7  C   UNL     1     -44.723  58.007 -59.384  1.00  0.00     0.018 A 
HETATM    8  C   UNL     1     -44.584  59.389 -59.418  1.00  0.00     0.018 A 
HETATM    9  C   UNL     1     -43.571  60.288 -58.799  1.00  0.00     0.069 C 
HETATM   10  N   UNL     1     -45.609  59.894 -60.178  1.00  0.00    -0.358 N 
HETATM   11  H   UNL     1     -45.757  60.875 -60.373  1.00  0.00     0.166 HD
HETATM   12  C   UNL     1     -46.413  58.883 -60.644  1.00  0.00     0.043 A 
HETATM   13  C   UNL     1     -45.884  57.684 -60.164  1.00  0.00     0.004 A 
HETATM   14  C   UNL     1     -47.558  58.943 -61.448  1.00  0.00     0.030 A 
HETATM   15  C   UNL     1     -46.540  56.482 -60.510  1.00  0.00     0.014 A 
HETATM   16  C   UNL     1     -47.685  56.524 -61.313  1.00  0.00     0.001 A 
HETATM   17  C   UNL     1     -48.185  57.737 -61.774  1.00  0.00     0.002 A 
ENDBRANCH   6   7
ENDBRANCH   1   5
BRANCH   2  18
HETATM   18  C   UNL     1     -41.930  54.909 -55.217  1.00  0.00     0.121 A 
HETATM   19  N   UNL     1     -40.592  55.025 -55.475  1.00  0.00    -0.272 N 
HETATM   20  H   UNL     1     -40.139  55.767 -56.001  1.00  0.00     0.189 HD
HETATM   21  N   UNL     1     -39.845  54.037 -54.959  1.00  0.00    -0.174 NA
HETATM   22  C   UNL     1     -40.727  53.227 -54.351  1.00  0.00     0.091 A 
HETATM   23  C   UNL     1     -42.042  53.759 -54.461  1.00  0.00     0.071 A 
BRANCH  22  24
HETATM   24  C   UNL     1     -40.282  52.019 -53.651  1.00  0.00     0.016 A 
HETATM   25  C   UNL     1     -39.897  51.994 -52.300  1.00  0.00     0.046 A 
HETATM   26 CL   UNL     1     -39.960  53.384 -51.268  1.00  0.00    -0.083 Cl
HETATM   27  C   UNL     1     -39.468  50.798 -51.707  1.00  0.00     0.025 A 
HETATM   28  C   UNL     1     -39.427  49.616 -52.446  1.00  0.00     0.002 A 
HETATM   29  C   UNL     1     -39.819  49.621 -53.779  1.00  0.00     0.001 A 
HETATM   30  C   UNL     1     -40.244  50.811 -54.375  1.00  0.00     0.015 A 
ENDBRANCH  22  24
ENDBRANCH   2  18
TORSDOF 4
ENDMDL
MODEL 5
REMARK VINA RESULT:      -8.6      3.171     10.146
REMARK  4 active torsions:
REMARK  status: ('A' for Active; 'I' for Inactive)
REMARK    1  A    between atoms: C_7  and  C_8 
REMARK    2  A    between atoms: N_9  and  N_10 
REMARK       I    between atoms: N_10  and  C_11 
REMARK    3  A    between atoms: C_11  and  C_12 
REMARK    4  A    between atoms: C_16  and  C_17 
ROOT
HETATM    1  N   UNL     1     -41.862  55.056 -56.230  1.00  0.00    -0.242 N 
HETATM    2  C   UNL     1     -42.298  56.359 -56.412  1.00  0.00     0.289 C 
HETATM    3  O   UNL     1     -42.072  57.282 -55.634  1.00  0.00    -0.264 OA
HETATM    4  H   UNL     1     -42.121  54.332 -56.888  1.00  0.00     0.192 HD
ENDROOT
BRANCH   1   5
HETATM    5  N   UNL     1     -41.141  54.724 -55.116  1.00  0.00    -0.183 NA
HETATM    6  C   UNL     1     -41.643  53.792 -54.373  1.00  0.00     0.153 C 
BRANCH   6   7
HETATM    7  C   UNL     1     -40.960  53.370 -53.164  1.00  0.00     0.018 A 
HETATM    8  C   UNL     1     -40.142  52.258 -53.007  1.00  0.00     0.018 A 
HETATM    9  C   UNL     1     -39.727  51.202 -53.972  1.00  0.00     0.069 C 
HETATM   10  N   UNL     1     -39.706  52.239 -51.706  1.00  0.00    -0.358 N 
HETATM   11  H   UNL     1     -39.095  51.538 -51.310  1.00  0.00     0.166 HD
HETATM   12  C   UNL     1     -40.214  53.307 -51.008  1.00  0.00     0.043 A 
HETATM   13  C   UNL     1     -41.005  54.038 -51.894  1.00  0.00     0.004 A 
HETATM   14  C   UNL     1     -40.030  53.675 -49.669  1.00  0.00     0.030 A 
HETATM   15  C   UNL     1     -41.646  55.200 -51.411  1.00  0.00     0.014 A 
HETATM   16  C   UNL     1     -41.473  55.582 -50.076  1.00  0.00     0.001 A 
HETATM   17  C   UNL     1     -40.677  54.829 -49.219  1.00  0.00     0.002 A 
ENDBRANCH   6   7
ENDBRANCH   1   5
BRANCH   2  18
HETATM   18  C   UNL     1     -43.077  56.570 -57.608  1.00  0.00     0.121 A 
HETATM   19  N   UNL     1     -42.542  56.351 -58.846  1.00  0.00    -0.272 N 
HETATM   20  H   UNL     1     -41.600  56.030 -59.051  1.00  0.00     0.189 HD
HETATM   21  N   UNL     1     -43.385  56.598 -59.860  1.00  0.00    -0.174 NA
HETATM   22  C   UNL     1     -44.516  57.013 -59.269  1.00  0.00     0.091 A 
HETATM   23  C   UNL     1     -44.374  56.976 -57.853  1.00  0.00     0.071 A 
BRANCH  22  24
HETATM   24  C   UNL     1     -45.693  57.375 -60.062  1.00  0.00     0.016 A 
HETATM   25  C   UNL     1     -46.066  58.698 -60.349  1.00  0.00     0.046 A 
HETATM   26 CL   UNL     1     -45.141  60.076 -59.853  1.00  0.00    -0.083 Cl
HETATM   27  C   UNL     1     -47.218  58.963 -61.104  1.00  0.00     0.025 A 
HETATM   28  C   UNL     1     -48.004  57.917 -61.587  1.00  0.00     0.002 A 
HETATM   29  C   UNL     1     -47.639  56.601 -61.324  1.00  0.00     0.001 A 
HETATM   30  C   UNL     1     -46.495  56.333 -60.570  1.00  0.00     0.015 A 
ENDBRANCH  22  24
ENDBRANCH   2  18
TORSDOF 4
ENDMDL
MODEL 6
REMARK VINA RESULT:      -8.5      3.123     10.283
REMARK  4 active torsions:
REMARK  status: ('A' for Active; 'I' for Inactive)
REMARK    1  A    between atoms: C_7  and  C_8 
REMARK    2  A    between atoms: N_9  and  N_10 
REMARK       I    between atoms: N_10  and  C_11 
REMARK    3  A    between atoms: C_11  and  C_12 
REMARK    4  A    between atoms: C_16  and  C_17 
ROOT
HETATM    1  N   UNL     1     -41.894  54.975 -56.183  1.00  0.00    -0.242 N 
HETATM    2  C   UNL     1     -42.859  55.960 -56.328  1.00  0.00     0.289 C 
HETATM    3  O   UNL     1     -43.668  56.273 -55.458  1.00  0.00    -0.264 OA
HETATM    4  H   UNL     1     -41.286  54.735 -56.955  1.00  0.00     0.192 HD
ENDROOT
BRANCH   1   5
HETATM    5  N   UNL     1     -41.809  54.266 -55.017  1.00  0.00    -0.183 NA
HETATM    6  C   UNL     1     -40.774  54.509 -54.280  1.00  0.00     0.153 C 
BRANCH   6   7
HETATM    7  C   UNL     1     -40.586  53.804 -53.024  1.00  0.00     0.018 A 
HETATM    8  C   UNL     1     -40.166  52.491 -52.854  1.00  0.00     0.018 A 
HETATM    9  C   UNL     1     -39.795  51.444 -53.846  1.00  0.00     0.069 C 
HETATM   10  N   UNL     1     -40.126  52.236 -51.507  1.00  0.00    -0.358 N 
HETATM   11  H   UNL     1     -39.854  51.355 -51.092  1.00  0.00     0.166 HD
HETATM   12  C   UNL     1     -40.506  53.344 -50.791  1.00  0.00     0.043 A 
HETATM   13  C   UNL     1     -40.801  54.348 -51.713  1.00  0.00     0.004 A 
HETATM   14  C   UNL     1     -40.608  53.528 -49.406  1.00  0.00     0.030 A 
HETATM   15  C   UNL     1     -41.220  55.603 -51.220  1.00  0.00     0.014 A 
HETATM   16  C   UNL     1     -41.327  55.805 -49.839  1.00  0.00     0.001 A 
HETATM   17  C   UNL     1     -41.025  54.781 -48.947  1.00  0.00     0.002 A 
ENDBRANCH   6   7
ENDBRANCH   1   5
BRANCH   2  18
HETATM   18  C   UNL     1     -42.866  56.609 -57.616  1.00  0.00     0.121 A 
HETATM   19  N   UNL     1     -42.561  55.918 -58.756  1.00  0.00    -0.272 N 
HETATM   20  H   UNL     1     -42.318  54.934 -58.820  1.00  0.00     0.189 HD
HETATM   21  N   UNL     1     -42.601  56.658 -59.874  1.00  0.00    -0.174 NA
HETATM   22  C   UNL     1     -42.930  57.890 -59.455  1.00  0.00     0.091 A 
HETATM   23  C   UNL     1     -43.138  57.892 -58.047  1.00  0.00     0.071 A 
BRANCH  22  24
HETATM   24  C   UNL     1     -43.082  58.995 -60.405  1.00  0.00     0.016 A 
HETATM   25  C   UNL     1     -44.323  59.465 -60.866  1.00  0.00     0.046 A 
HETATM   26 CL   UNL     1     -45.842  58.838 -60.316  1.00  0.00    -0.083 Cl
HETATM   27  C   UNL     1     -44.384  60.519 -61.789  1.00  0.00     0.025 A 
HETATM   28  C   UNL     1     -43.215  61.120 -62.256  1.00  0.00     0.002 A 
HETATM   29  C   UNL     1     -41.980  60.676 -61.798  1.00  0.00     0.001 A 
HETATM   30  C   UNL     1     -41.915  59.625 -60.880  1.00  0.00     0.015 A 
ENDBRANCH  22  24
ENDBRANCH   2  18
TORSDOF 4
ENDMDL
MODEL 7
REMARK VINA RESULT:      -8.5      7.342      8.927
REMARK  4 active torsions:
REMARK  status: ('A' for Active; 'I' for Inactive)
REMARK    1  A    between atoms: C_7  and  C_8 
REMARK    2  A    between atoms: N_9  and  N_10 
REMARK       I    between atoms: N_10  and  C_11 
REMARK    3  A    between atoms: C_11  and  C_12 
REMARK    4  A    between atoms: C_16  and  C_17 
ROOT
HETATM    1  N   UNL     1     -43.899  58.548 -51.134  1.00  0.00    -0.242 N 
HETATM    2  C   UNL     1     -44.153  57.186 -51.080  1.00  0.00     0.289 C 
HETATM    3  O   UNL     1     -45.163  56.687 -50.591  1.00  0.00    -0.264 OA
HETATM    4  H   UNL     1     -43.027  58.893 -51.511  1.00  0.00     0.192 HD
ENDROOT
BRANCH   1   5
HETATM    5  N   UNL     1     -44.798  59.434 -50.606  1.00  0.00    -0.183 NA
HETATM    6  C   UNL     1     -44.318  60.576 -50.234  1.00  0.00     0.153 C 
BRANCH   6   7
HETATM    7  C   UNL     1     -45.187  61.584 -49.655  1.00  0.00     0.018 A 
HETATM    8  C   UNL     1     -46.013  62.470 -50.334  1.00  0.00     0.018 A 
HETATM    9  C   UNL     1     -46.258  62.662 -51.791  1.00  0.00     0.069 C 
HETATM   10  N   UNL     1     -46.655  63.244 -49.401  1.00  0.00    -0.358 N 
HETATM   11  H   UNL     1     -47.319  63.976 -49.613  1.00  0.00     0.166 HD
HETATM   12  C   UNL     1     -46.275  62.887 -48.130  1.00  0.00     0.043 A 
HETATM   13  C   UNL     1     -45.355  61.847 -48.253  1.00  0.00     0.004 A 
HETATM   14  C   UNL     1     -46.678  63.407 -46.893  1.00  0.00     0.030 A 
HETATM   15  C   UNL     1     -44.808  61.298 -47.072  1.00  0.00     0.014 A 
HETATM   16  C   UNL     1     -45.200  61.804 -45.828  1.00  0.00     0.001 A 
HETATM   17  C   UNL     1     -46.121  62.844 -45.742  1.00  0.00     0.002 A 
ENDBRANCH   6   7
ENDBRANCH   1   5
BRANCH   2  18
HETATM   18  C   UNL     1     -43.112  56.359 -51.639  1.00  0.00     0.121 A 
HETATM   19  N   UNL     1     -42.112  56.900 -52.398  1.00  0.00    -0.272 N 
HETATM   20  H   UNL     1     -41.994  57.882 -52.633  1.00  0.00     0.189 HD
HETATM   21  N   UNL     1     -41.223  56.006 -52.854  1.00  0.00    -0.174 NA
HETATM   22  C   UNL     1     -41.662  54.824 -52.392  1.00  0.00     0.091 A 
HETATM   23  C   UNL     1     -42.827  55.009 -51.595  1.00  0.00     0.071 A 
BRANCH  22  24
HETATM   24  C   UNL     1     -40.936  53.585 -52.680  1.00  0.00     0.016 A 
HETATM   25  C   UNL     1     -40.097  52.938 -51.757  1.00  0.00     0.046 A 
HETATM   26 CL   UNL     1     -39.865  53.491 -50.132  1.00  0.00    -0.083 Cl
HETATM   27  C   UNL     1     -39.424  51.761 -52.114  1.00  0.00     0.025 A 
HETATM   28  C   UNL     1     -39.583  51.212 -53.387  1.00  0.00     0.002 A 
HETATM   29  C   UNL     1     -40.422  51.833 -54.306  1.00  0.00     0.001 A 
HETATM   30  C   UNL     1     -41.092  53.007 -53.955  1.00  0.00     0.015 A 
ENDBRANCH  22  24
ENDBRANCH   2  18
TORSDOF 4
ENDMDL
MODEL 8
REMARK VINA RESULT:      -8.3      2.859     10.426
REMARK  4 active torsions:
REMARK  status: ('A' for Active; 'I' for Inactive)
REMARK    1  A    between atoms: C_7  and  C_8 
REMARK    2  A    between atoms: N_9  and  N_10 
REMARK       I    between atoms: N_10  and  C_11 
REMARK    3  A    between atoms: C_11  and  C_12 
REMARK    4  A    between atoms: C_16  and  C_17 
ROOT
HETATM    1  N   UNL     1     -42.097  55.363 -56.567  1.00  0.00    -0.242 N 
HETATM    2  C   UNL     1     -42.492  56.689 -56.655  1.00  0.00     0.289 C 
HETATM    3  O   UNL     1     -42.211  57.553 -55.828  1.00  0.00    -0.264 OA
HETATM    4  H   UNL     1     -42.400  54.691 -57.260  1.00  0.00     0.192 HD
ENDROOT
BRANCH   1   5
HETATM    5  N   UNL     1     -41.358  54.938 -55.498  1.00  0.00    -0.183 NA
HETATM    6  C   UNL     1     -41.889  54.005 -54.776  1.00  0.00     0.153 C 
BRANCH   6   7
HETATM    7  C   UNL     1     -41.188  53.489 -53.614  1.00  0.00     0.018 A 
HETATM    8  C   UNL     1     -40.929  54.158 -52.425  1.00  0.00     0.018 A 
HETATM    9  C   UNL     1     -41.266  55.540 -51.983  1.00  0.00     0.069 C 
HETATM   10  N   UNL     1     -40.245  53.299 -51.602  1.00  0.00    -0.358 N 
HETATM   11  H   UNL     1     -39.926  53.522 -50.669  1.00  0.00     0.166 HD
HETATM   12  C   UNL     1     -40.051  52.087 -52.218  1.00  0.00     0.043 A 
HETATM   13  C   UNL     1     -40.631  52.171 -53.483  1.00  0.00     0.004 A 
HETATM   14  C   UNL     1     -39.409  50.934 -51.749  1.00  0.00     0.030 A 
HETATM   15  C   UNL     1     -40.565  51.038 -54.323  1.00  0.00     0.014 A 
HETATM   16  C   UNL     1     -39.929  49.877 -53.871  1.00  0.00     0.001 A 
HETATM   17  C   UNL     1     -39.359  49.828 -52.602  1.00  0.00     0.002 A 
ENDBRANCH   6   7
ENDBRANCH   1   5
BRANCH   2  18
HETATM   18  C   UNL     1     -43.296  57.000 -57.811  1.00  0.00     0.121 A 
HETATM   19  N   UNL     1     -43.106  56.351 -58.999  1.00  0.00    -0.272 N 
HETATM   20  H   UNL     1     -42.427  55.619 -59.187  1.00  0.00     0.189 HD
HETATM   21  N   UNL     1     -43.924  56.755 -59.983  1.00  0.00    -0.174 NA
HETATM   22  C   UNL     1     -44.673  57.721 -59.428  1.00  0.00     0.091 A 
HETATM   23  C   UNL     1     -44.332  57.880 -58.055  1.00  0.00     0.071 A 
BRANCH  22  24
HETATM   24  C   UNL     1     -45.707  58.412 -60.202  1.00  0.00     0.016 A 
HETATM   25  C   UNL     1     -46.895  57.801 -60.639  1.00  0.00     0.046 A 
HETATM   26 CL   UNL     1     -47.319  56.165 -60.261  1.00  0.00    -0.083 Cl
HETATM   27  C   UNL     1     -47.830  58.528 -61.390  1.00  0.00     0.025 A 
HETATM   28  C   UNL     1     -47.599  59.867 -61.705  1.00  0.00     0.002 A 
HETATM   29  C   UNL     1     -46.435  60.488 -61.267  1.00  0.00     0.001 A 
HETATM   30  C   UNL     1     -45.500  59.768 -60.521  1.00  0.00     0.015 A 
ENDBRANCH  22  24
ENDBRANCH   2  18
TORSDOF 4
ENDMDL
MODEL 9
REMARK VINA RESULT:      -8.2      7.473     10.889
REMARK  4 active torsions:
REMARK  status: ('A' for Active; 'I' for Inactive)
REMARK    1  A    between atoms: C_7  and  C_8 
REMARK    2  A    between atoms: N_9  and  N_10 
REMARK       I    between atoms: N_10  and  C_11 
REMARK    3  A    between atoms: C_11  and  C_12 
REMARK    4  A    between atoms: C_16  and  C_17 
ROOT
HETATM    1  N   UNL     1     -42.946  57.810 -51.063  1.00  0.00    -0.242 N 
HETATM    2  C   UNL     1     -43.513  58.993 -51.514  1.00  0.00     0.289 C 
HETATM    3  O   UNL     1     -43.511  59.362 -52.685  1.00  0.00    -0.264 OA
HETATM    4  H   UNL     1     -42.943  57.586 -50.077  1.00  0.00     0.192 HD
ENDROOT
BRANCH   1   5
HETATM    5  N   UNL     1     -42.317  56.974 -51.944  1.00  0.00    -0.183 NA
HETATM    6  C   UNL     1     -42.842  55.800 -52.086  1.00  0.00     0.153 C 
BRANCH   6   7
HETATM    7  C   UNL     1     -42.247  54.835 -52.991  1.00  0.00     0.018 A 
HETATM    8  C   UNL     1     -42.422  54.757 -54.367  1.00  0.00     0.018 A 
HETATM    9  C   UNL     1     -43.228  55.591 -55.302  1.00  0.00     0.069 C 
HETATM   10  N   UNL     1     -41.678  53.699 -54.825  1.00  0.00    -0.358 N 
HETATM   11  H   UNL     1     -41.617  53.408 -55.791  1.00  0.00     0.166 HD
HETATM   12  C   UNL     1     -41.021  53.083 -53.788  1.00  0.00     0.043 A 
HETATM   13  C   UNL     1     -41.356  53.771 -52.622  1.00  0.00     0.004 A 
HETATM   14  C   UNL     1     -40.162  51.977 -53.799  1.00  0.00     0.030 A 
HETATM   15  C   UNL     1     -40.799  53.327 -51.403  1.00  0.00     0.014 A 
HETATM   16  C   UNL     1     -39.938  52.224 -51.396  1.00  0.00     0.001 A 
HETATM   17  C   UNL     1     -39.626  51.560 -52.578  1.00  0.00     0.002 A 
ENDBRANCH   6   7
ENDBRANCH   1   5
BRANCH   2  18
HETATM   18  C   UNL     1     -44.114  59.801 -50.481  1.00  0.00     0.121 A 
HETATM   19  N   UNL     1     -45.393  59.570 -50.059  1.00  0.00    -0.272 N 
HETATM   20  H   UNL     1     -46.021  58.846 -50.397  1.00  0.00     0.189 HD
HETATM   21  N   UNL     1     -45.815  60.408 -49.100  1.00  0.00    -0.174 NA
HETATM   22  C   UNL     1     -44.779  61.237 -48.893  1.00  0.00     0.091 A 
HETATM   23  C   UNL     1     -43.680  60.866 -49.717  1.00  0.00     0.071 A 
BRANCH  22  24
HETATM   24  C   UNL     1     -44.856  62.304 -47.893  1.00  0.00     0.016 A 
HETATM   25  C   UNL     1     -44.674  63.666 -48.188  1.00  0.00     0.046 A 
HETATM   26 CL   UNL     1     -44.399  64.265 -49.790  1.00  0.00    -0.083 Cl
HETATM   27  C   UNL     1     -44.749  64.628 -47.170  1.00  0.00     0.025 A 
HETATM   28  C   UNL     1     -45.012  64.248 -45.854  1.00  0.00     0.002 A 
HETATM   29  C   UNL     1     -45.209  62.906 -45.549  1.00  0.00     0.001 A 
HETATM   30  C   UNL     1     -45.133  61.944 -46.559  1.00  0.00     0.015 A 
ENDBRANCH  22  24
ENDBRANCH   2  18
TORSDOF 4
ENDMDL
MODEL 10
REMARK VINA RESULT:      -8.2      1.406      1.460
REMARK  4 active torsions:
REMARK  status: ('A' for Active; 'I' for Inactive)
REMARK    1  A    between atoms: C_7  and  C_8 
REMARK    2  A    between atoms: N_9  and  N_10 
REMARK       I    between atoms: N_10  and  C_11 
REMARK    3  A    between atoms: C_11  and  C_12 
REMARK    4  A    between atoms: C_16  and  C_17 
ROOT
HETATM    1  N   UNL     1     -42.277  56.273 -57.165  1.00  0.00    -0.242 N 
HETATM    2  C   UNL     1     -42.687  55.781 -55.935  1.00  0.00     0.289 C 
HETATM    3  O   UNL     1     -43.719  56.120 -55.361  1.00  0.00    -0.264 OA
HETATM    4  H   UNL     1     -41.393  55.985 -57.564  1.00  0.00     0.192 HD
ENDROOT
BRANCH   1   5
HETATM    5  N   UNL     1     -43.031  57.212 -57.813  1.00  0.00    -0.183 NA
HETATM    6  C   UNL     1     -42.600  58.430 -57.746  1.00  0.00     0.153 C 
BRANCH   6   7
HETATM    7  C   UNL     1     -43.331  59.504 -58.394  1.00  0.00     0.018 A 
HETATM    8  C   UNL     1     -44.439  60.181 -57.900  1.00  0.00     0.018 A 
HETATM    9  C   UNL     1     -45.190  60.034 -56.622  1.00  0.00     0.069 C 
HETATM   10  N   UNL     1     -44.809  61.115 -58.835  1.00  0.00    -0.358 N 
HETATM   11  H   UNL     1     -45.587  61.753 -58.739  1.00  0.00     0.166 HD
HETATM   12  C   UNL     1     -43.974  61.070 -59.924  1.00  0.00     0.043 A 
HETATM   13  C   UNL     1     -43.034  60.069 -59.680  1.00  0.00     0.004 A 
HETATM   14  C   UNL     1     -43.984  61.836 -61.096  1.00  0.00     0.030 A 
HETATM   15  C   UNL     1     -42.051  59.824 -60.664  1.00  0.00     0.014 A 
HETATM   16  C   UNL     1     -42.046  60.580 -61.841  1.00  0.00     0.001 A 
HETATM   17  C   UNL     1     -43.000  61.571 -62.052  1.00  0.00     0.002 A 
ENDBRANCH   6   7
ENDBRANCH   1   5
BRANCH   2  18
HETATM   18  C   UNL     1     -41.787  54.823 -55.342  1.00  0.00     0.121 A 
HETATM   19  N   UNL     1     -40.448  54.850 -55.614  1.00  0.00    -0.272 N 
HETATM   20  H   UNL     1     -39.966  55.509 -56.219  1.00  0.00     0.189 HD
HETATM   21  N   UNL     1     -39.742  53.892 -54.995  1.00  0.00    -0.174 NA
HETATM   22  C   UNL     1     -40.653  53.194 -54.300  1.00  0.00     0.091 A 
HETATM   23  C   UNL     1     -41.944  53.769 -54.464  1.00  0.00     0.071 A 
BRANCH  22  24
HETATM   24  C   UNL     1     -40.257  52.050 -53.474  1.00  0.00     0.016 A 
HETATM   25  C   UNL     1     -40.017  52.130 -52.092  1.00  0.00     0.046 A 
HETATM   26 CL   UNL     1     -40.221  53.584 -51.173  1.00  0.00    -0.083 Cl
HETATM   27  C   UNL     1     -39.625  50.992 -51.373  1.00  0.00     0.025 A 
HETATM   28  C   UNL     1     -39.479  49.763 -52.017  1.00  0.00     0.002 A 
HETATM   29  C   UNL     1     -39.728  49.665 -53.382  1.00  0.00     0.001 A 
HETATM   30  C   UNL     1     -40.115  50.797 -54.102  1.00  0.00     0.015 A 
ENDBRANCH  22  24
ENDBRANCH   2  18
TORSDOF 4
ENDMDL
