MODEL 1
REMARK VINA RESULT:      -8.1      0.000      0.000
REMARK  4 active torsions:
REMARK  status: ('A' for Active; 'I' for Inactive)
REMARK    1  A    between atoms: C_2  and  C_3 
REMARK    2  A    between atoms: C_3  and  N_4 
REMARK    3  A    between atoms: N_8  and  C_9 
REMARK    4  A    between atoms: C_9  and  C_10 
ROOT
HETATM    1  N   UNL     1     -42.037  55.681 -52.710  1.00  0.00    -0.061 N 
HETATM    2  H   UNL     1     -42.476  54.826 -53.069  1.00  0.00     0.280 HD
HETATM    3  C   UNL     1     -41.422  56.372 -53.929  1.00  0.00     0.216 C 
HETATM    4  C   UNL     1     -42.375  56.237 -55.154  1.00  0.00     0.305 C 
HETATM    5  N   UNL     1     -43.410  57.265 -55.271  1.00  0.00     0.095 N 
HETATM    6  C   UNL     1     -44.262  57.431 -54.093  1.00  0.00     0.279 C 
HETATM    7  C   UNL     1     -43.499  57.735 -52.789  1.00  0.00     0.040 C 
HETATM    8  C   UNL     1     -43.126  56.471 -52.030  1.00  0.00     0.242 C 
HETATM    9  C   UNL     1     -41.073  57.822 -53.585  1.00  0.00     0.035 C 
HETATM   10  C   UNL     1     -42.255  58.609 -53.008  1.00  0.00     0.010 C 
ENDROOT
BRANCH   1  11
HETATM   11  C   UNL     1     -41.015  55.181 -51.702  1.00  0.00     0.274 C 
BRANCH  11  12
HETATM   12  C   UNL     1     -40.597  53.751 -51.914  1.00  0.00    -0.032 A 
HETATM   13  C   UNL     1     -40.232  52.952 -50.821  1.00  0.00     0.011 A 
HETATM   14  C   UNL     1     -39.839  51.621 -50.988  1.00  0.00     0.031 A 
HETATM   15  C   UNL     1     -39.825  51.108 -52.288  1.00  0.00     0.042 A 
HETATM   16  C   UNL     1     -40.183  51.867 -53.401  1.00  0.00    -0.008 A 
HETATM   17  N   UNL     1     -39.502  49.848 -52.743  1.00  0.00    -0.365 N 
HETATM   18  C   UNL     1     -40.574  53.207 -53.213  1.00  0.00     0.022 A 
HETATM   19  C   UNL     1     -40.063  51.025 -54.540  1.00  0.00     0.030 A 
HETATM   20  C   UNL     1     -39.642  49.789 -54.104  1.00  0.00     0.089 A 
HETATM   21  H   UNL     1     -39.216  49.075 -52.155  1.00  0.00     0.165 HD
ENDBRANCH  11  12
ENDBRANCH   1  11
BRANCH   5  22
HETATM   22  C   UNL     1     -44.198  57.088 -56.511  1.00  0.00     0.311 C 
BRANCH  22  23
HETATM   23  C   UNL     1     -43.357  57.153 -57.765  1.00  0.00    -0.027 A 
HETATM   24  C   UNL     1     -42.573  58.279 -58.045  1.00  0.00     0.028 A 
HETATM   25  C   UNL     1     -41.826  58.297 -59.211  1.00  0.00     0.116 A 
HETATM   26  N   UNL     1     -41.803  57.284 -60.101  1.00  0.00    -0.273 NA
HETATM   27  C   UNL     1     -42.549  56.199 -59.809  1.00  0.00     0.116 A 
HETATM   28  C   UNL     1     -43.333  56.087 -58.669  1.00  0.00     0.028 A 
ENDBRANCH  22  23
ENDBRANCH   5  22
TORSDOF 4
ENDMDL
MODEL 2
REMARK VINA RESULT:      -8.1      1.919      7.733
REMARK  4 active torsions:
REMARK  status: ('A' for Active; 'I' for Inactive)
REMARK    1  A    between atoms: C_2  and  C_3 
REMARK    2  A    between atoms: C_3  and  N_4 
REMARK    3  A    between atoms: N_8  and  C_9 
REMARK    4  A    between atoms: C_9  and  C_10 
ROOT
HETATM    1  N   UNL     1     -42.354  56.974 -54.567  1.00  0.00    -0.061 N 
HETATM    2  H   UNL     1     -41.929  57.384 -53.728  1.00  0.00     0.280 HD
HETATM    3  C   UNL     1     -41.318  55.989 -55.113  1.00  0.00     0.216 C 
HETATM    4  C   UNL     1     -40.626  55.238 -53.937  1.00  0.00     0.305 C 
HETATM    5  N   UNL     1     -41.309  54.035 -53.459  1.00  0.00     0.095 N 
HETATM    6  C   UNL     1     -42.708  54.223 -53.071  1.00  0.00     0.279 C 
HETATM    7  C   UNL     1     -43.603  54.818 -54.175  1.00  0.00     0.040 C 
HETATM    8  C   UNL     1     -43.648  56.339 -54.127  1.00  0.00     0.242 C 
HETATM    9  C   UNL     1     -41.977  55.053 -56.130  1.00  0.00     0.035 C 
HETATM   10  C   UNL     1     -43.221  54.343 -55.585  1.00  0.00     0.010 C 
ENDROOT
BRANCH   1  11
HETATM   11  C   UNL     1     -42.612  58.166 -55.474  1.00  0.00     0.274 C 
BRANCH  11  12
HETATM   12  C   UNL     1     -43.795  57.993 -56.387  1.00  0.00    -0.032 A 
HETATM   13  C   UNL     1     -45.071  58.405 -55.977  1.00  0.00     0.011 A 
HETATM   14  C   UNL     1     -46.189  58.256 -56.803  1.00  0.00     0.031 A 
HETATM   15  C   UNL     1     -45.991  57.684 -58.063  1.00  0.00     0.042 A 
HETATM   16  C   UNL     1     -44.740  57.263 -58.511  1.00  0.00    -0.008 A 
HETATM   17  N   UNL     1     -46.891  57.433 -59.076  1.00  0.00    -0.365 N 
HETATM   18  C   UNL     1     -43.626  57.420 -57.663  1.00  0.00     0.022 A 
HETATM   19  C   UNL     1     -44.915  56.750 -59.825  1.00  0.00     0.030 A 
HETATM   20  C   UNL     1     -46.248  56.866 -60.145  1.00  0.00     0.089 A 
HETATM   21  H   UNL     1     -47.879  57.648 -59.039  1.00  0.00     0.165 HD
ENDBRANCH  11  12
ENDBRANCH   1  11
BRANCH   5  22
HETATM   22  C   UNL     1     -40.523  53.359 -52.404  1.00  0.00     0.311 C 
BRANCH  22  23
HETATM   23  C   UNL     1     -40.162  51.933 -52.752  1.00  0.00    -0.027 A 
HETATM   24  C   UNL     1     -40.232  51.478 -54.074  1.00  0.00     0.028 A 
HETATM   25  C   UNL     1     -39.900  50.161 -54.344  1.00  0.00     0.116 A 
HETATM   26  N   UNL     1     -39.504  49.281 -53.401  1.00  0.00    -0.273 NA
HETATM   27  C   UNL     1     -39.423  49.740 -52.136  1.00  0.00     0.116 A 
HETATM   28  C   UNL     1     -39.737  51.039 -51.765  1.00  0.00     0.028 A 
ENDBRANCH  22  23
ENDBRANCH   5  22
TORSDOF 4
ENDMDL
MODEL 3
REMARK VINA RESULT:      -8.0      1.375      7.285
REMARK  4 active torsions:
REMARK  status: ('A' for Active; 'I' for Inactive)
REMARK    1  A    between atoms: C_2  and  C_3 
REMARK    2  A    between atoms: C_3  and  N_4 
REMARK    3  A    between atoms: N_8  and  C_9 
REMARK    4  A    between atoms: C_9  and  C_10 
ROOT
HETATM    1  N   UNL     1     -42.504  56.203 -53.011  1.00  0.00    -0.061 N 
HETATM    2  H   UNL     1     -41.619  56.421 -53.483  1.00  0.00     0.280 HD
HETATM    3  C   UNL     1     -42.626  54.679 -53.049  1.00  0.00     0.216 C 
HETATM    4  C   UNL     1     -41.233  54.027 -52.800  1.00  0.00     0.305 C 
HETATM    5  N   UNL     1     -40.867  53.822 -51.398  1.00  0.00     0.095 N 
HETATM    6  C   UNL     1     -40.928  55.016 -50.554  1.00  0.00     0.279 C 
HETATM    7  C   UNL     1     -42.298  55.723 -50.543  1.00  0.00     0.040 C 
HETATM    8  C   UNL     1     -42.407  56.788 -51.625  1.00  0.00     0.242 C 
HETATM    9  C   UNL     1     -43.700  54.219 -52.058  1.00  0.00     0.035 C 
HETATM   10  C   UNL     1     -43.481  54.748 -50.637  1.00  0.00     0.010 C 
ENDROOT
BRANCH   1  11
HETATM   11  C   UNL     1     -43.555  56.928 -53.836  1.00  0.00     0.274 C 
BRANCH  11  12
HETATM   12  C   UNL     1     -43.130  57.215 -55.251  1.00  0.00    -0.032 A 
HETATM   13  C   UNL     1     -42.531  58.441 -55.575  1.00  0.00     0.011 A 
HETATM   14  C   UNL     1     -42.127  58.734 -56.881  1.00  0.00     0.031 A 
HETATM   15  C   UNL     1     -42.336  57.758 -57.859  1.00  0.00     0.042 A 
HETATM   16  C   UNL     1     -42.925  56.526 -57.579  1.00  0.00    -0.008 A 
HETATM   17  N   UNL     1     -42.029  57.766 -59.201  1.00  0.00    -0.365 N 
HETATM   18  C   UNL     1     -43.328  56.249 -56.257  1.00  0.00     0.022 A 
HETATM   19  C   UNL     1     -42.965  55.793 -58.796  1.00  0.00     0.030 A 
HETATM   20  C   UNL     1     -42.408  56.582 -59.777  1.00  0.00     0.089 A 
HETATM   21  H   UNL     1     -41.579  58.530 -59.689  1.00  0.00     0.165 HD
ENDBRANCH  11  12
ENDBRANCH   1  11
BRANCH   5  22
HETATM   22  C   UNL     1     -39.570  53.121 -51.283  1.00  0.00     0.311 C 
BRANCH  22  23
HETATM   23  C   UNL     1     -39.568  51.759 -51.937  1.00  0.00    -0.027 A 
HETATM   24  C   UNL     1     -39.445  51.630 -53.326  1.00  0.00     0.028 A 
HETATM   25  C   UNL     1     -39.457  50.361 -53.881  1.00  0.00     0.116 A 
HETATM   26  N   UNL     1     -39.576  49.229 -53.158  1.00  0.00    -0.273 NA
HETATM   27  C   UNL     1     -39.675  49.369 -51.820  1.00  0.00     0.116 A 
HETATM   28  C   UNL     1     -39.676  50.595 -51.171  1.00  0.00     0.028 A 
ENDBRANCH  22  23
ENDBRANCH   5  22
TORSDOF 4
ENDMDL
MODEL 4
REMARK VINA RESULT:      -7.9      1.636      2.366
REMARK  4 active torsions:
REMARK  status: ('A' for Active; 'I' for Inactive)
REMARK    1  A    between atoms: C_2  and  C_3 
REMARK    2  A    between atoms: C_3  and  N_4 
REMARK    3  A    between atoms: N_8  and  C_9 
REMARK    4  A    between atoms: C_9  and  C_10 
ROOT
HETATM    1  N   UNL     1     -43.447  56.187 -54.172  1.00  0.00    -0.061 N 
HETATM    2  H   UNL     1     -43.488  55.338 -54.746  1.00  0.00     0.280 HD
HETATM    3  C   UNL     1     -42.254  56.985 -54.702  1.00  0.00     0.216 C 
HETATM    4  C   UNL     1     -42.195  56.886 -56.255  1.00  0.00     0.305 C 
HETATM    5  N   UNL     1     -42.996  57.869 -56.986  1.00  0.00     0.095 N 
HETATM    6  C   UNL     1     -44.413  57.917 -56.622  1.00  0.00     0.279 C 
HETATM    7  C   UNL     1     -44.680  58.170 -55.126  1.00  0.00     0.040 C 
HETATM    8  C   UNL     1     -44.778  56.877 -54.330  1.00  0.00     0.242 C 
HETATM    9  C   UNL     1     -42.320  58.424 -54.185  1.00  0.00     0.035 C 
HETATM   10  C   UNL     1     -43.656  59.114 -54.480  1.00  0.00     0.010 C 
ENDROOT
BRANCH   1  11
HETATM   11  C   UNL     1     -43.265  55.670 -52.754  1.00  0.00     0.274 C 
BRANCH  11  12
HETATM   12  C   UNL     1     -42.186  54.630 -52.617  1.00  0.00    -0.032 A 
HETATM   13  C   UNL     1     -41.385  54.589 -51.467  1.00  0.00     0.011 A 
HETATM   14  C   UNL     1     -40.376  53.635 -51.312  1.00  0.00     0.031 A 
HETATM   15  C   UNL     1     -40.192  52.713 -52.347  1.00  0.00     0.042 A 
HETATM   16  C   UNL     1     -40.967  52.717 -53.505  1.00  0.00    -0.008 A 
HETATM   17  N   UNL     1     -39.299  51.670 -52.459  1.00  0.00    -0.365 N 
HETATM   18  C   UNL     1     -41.978  53.688 -53.644  1.00  0.00     0.022 A 
HETATM   19  C   UNL     1     -40.511  51.645 -54.319  1.00  0.00     0.030 A 
HETATM   20  C   UNL     1     -39.484  51.020 -53.650  1.00  0.00     0.089 A 
HETATM   21  H   UNL     1     -38.615  51.415 -51.758  1.00  0.00     0.165 HD
ENDBRANCH  11  12
ENDBRANCH   1  11
BRANCH   5  22
HETATM   22  C   UNL     1     -42.798  57.738 -58.446  1.00  0.00     0.311 C 
BRANCH  22  23
HETATM   23  C   UNL     1     -43.757  56.764 -59.093  1.00  0.00    -0.027 A 
HETATM   24  C   UNL     1     -43.529  55.385 -59.030  1.00  0.00     0.028 A 
HETATM   25  C   UNL     1     -44.431  54.532 -59.644  1.00  0.00     0.116 A 
HETATM   26  N   UNL     1     -45.530  54.953 -60.302  1.00  0.00    -0.273 NA
HETATM   27  C   UNL     1     -45.746  56.284 -60.338  1.00  0.00     0.116 A 
HETATM   28  C   UNL     1     -44.900  57.218 -59.757  1.00  0.00     0.028 A 
ENDBRANCH  22  23
ENDBRANCH   5  22
TORSDOF 4
ENDMDL
MODEL 5
REMARK VINA RESULT:      -7.7      3.077      5.659
REMARK  4 active torsions:
REMARK  status: ('A' for Active; 'I' for Inactive)
REMARK    1  A    between atoms: C_2  and  C_3 
REMARK    2  A    between atoms: C_3  and  N_4 
REMARK    3  A    between atoms: N_8  and  C_9 
REMARK    4  A    between atoms: C_9  and  C_10 
ROOT
HETATM    1  N   UNL     1     -41.996  56.567 -53.122  1.00  0.00    -0.061 N 
HETATM    2  H   UNL     1     -41.568  56.238 -52.249  1.00  0.00     0.280 HD
HETATM    3  C   UNL     1     -43.250  57.336 -52.702  1.00  0.00     0.216 C 
HETATM    4  C   UNL     1     -42.960  58.166 -51.417  1.00  0.00     0.305 C 
HETATM    5  N   UNL     1     -42.389  59.496 -51.633  1.00  0.00     0.095 N 
HETATM    6  C   UNL     1     -41.168  59.529 -52.439  1.00  0.00     0.279 C 
HETATM    7  C   UNL     1     -41.303  58.886 -53.833  1.00  0.00     0.040 C 
HETATM    8  C   UNL     1     -40.956  57.404 -53.821  1.00  0.00     0.242 C 
HETATM    9  C   UNL     1     -43.758  58.182 -53.873  1.00  0.00     0.035 C 
HETATM   10  C   UNL     1     -42.685  59.102 -54.466  1.00  0.00     0.010 C 
ENDROOT
BRANCH   1  11
HETATM   11  C   UNL     1     -42.283  55.292 -53.900  1.00  0.00     0.274 C 
BRANCH  11  12
HETATM   12  C   UNL     1     -41.488  54.102 -53.436  1.00  0.00    -0.032 A 
HETATM   13  C   UNL     1     -40.910  54.092 -52.159  1.00  0.00     0.011 A 
HETATM   14  C   UNL     1     -40.165  53.000 -51.701  1.00  0.00     0.031 A 
HETATM   15  C   UNL     1     -40.019  51.910 -52.564  1.00  0.00     0.042 A 
HETATM   16  C   UNL     1     -40.579  51.878 -53.840  1.00  0.00    -0.008 A 
HETATM   17  N   UNL     1     -39.363  50.713 -52.378  1.00  0.00    -0.365 N 
HETATM   18  C   UNL     1     -41.324  52.989 -54.283  1.00  0.00     0.022 A 
HETATM   19  C   UNL     1     -40.238  50.625 -54.417  1.00  0.00     0.030 A 
HETATM   20  C   UNL     1     -39.490  49.930 -53.495  1.00  0.00     0.089 A 
HETATM   21  H   UNL     1     -38.872  50.446 -51.534  1.00  0.00     0.165 HD
ENDBRANCH  11  12
ENDBRANCH   1  11
BRANCH   5  22
HETATM   22  C   UNL     1     -42.236  60.225 -50.355  1.00  0.00     0.311 C 
BRANCH  22  23
HETATM   23  C   UNL     1     -43.246  61.335 -50.177  1.00  0.00    -0.027 A 
HETATM   24  C   UNL     1     -43.080  62.566 -50.823  1.00  0.00     0.028 A 
HETATM   25  C   UNL     1     -44.028  63.556 -50.624  1.00  0.00     0.116 A 
HETATM   26  N   UNL     1     -45.115  63.405 -49.840  1.00  0.00    -0.273 NA
HETATM   27  C   UNL     1     -45.270  62.207 -49.239  1.00  0.00     0.116 A 
HETATM   28  C   UNL     1     -44.376  61.155 -49.374  1.00  0.00     0.028 A 
ENDBRANCH  22  23
ENDBRANCH   5  22
TORSDOF 4
ENDMDL
MODEL 6
REMARK VINA RESULT:      -7.7     14.807     17.815
REMARK  4 active torsions:
REMARK  status: ('A' for Active; 'I' for Inactive)
REMARK    1  A    between atoms: C_2  and  C_3 
REMARK    2  A    between atoms: C_3  and  N_4 
REMARK    3  A    between atoms: N_8  and  C_9 
REMARK    4  A    between atoms: C_9  and  C_10 
ROOT
HETATM    1  N   UNL     1     -37.508  40.627 -54.826  1.00  0.00    -0.061 N 
HETATM    2  H   UNL     1     -38.200  40.074 -54.309  1.00  0.00     0.280 HD
HETATM    3  C   UNL     1     -36.803  41.489 -53.777  1.00  0.00     0.216 C 
HETATM    4  C   UNL     1     -36.575  40.664 -52.476  1.00  0.00     0.305 C 
HETATM    5  N   UNL     1     -35.351  39.862 -52.435  1.00  0.00     0.095 N 
HETATM    6  C   UNL     1     -35.172  38.938 -53.555  1.00  0.00     0.279 C 
HETATM    7  C   UNL     1     -35.206  39.602 -54.945  1.00  0.00     0.040 C 
HETATM    8  C   UNL     1     -36.610  39.643 -55.531  1.00  0.00     0.242 C 
HETATM    9  C   UNL     1     -35.513  42.070 -54.363  1.00  0.00     0.035 C 
HETATM   10  C   UNL     1     -34.584  41.006 -54.959  1.00  0.00     0.010 C 
ENDROOT
BRANCH   1  11
HETATM   11  C   UNL     1     -38.336  41.422 -55.823  1.00  0.00     0.274 C 
BRANCH  11  12
HETATM   12  C   UNL     1     -38.010  41.125 -57.262  1.00  0.00    -0.032 A 
HETATM   13  C   UNL     1     -37.185  41.991 -57.993  1.00  0.00     0.011 A 
HETATM   14  C   UNL     1     -36.865  41.742 -59.331  1.00  0.00     0.031 A 
HETATM   15  C   UNL     1     -37.395  40.590 -59.919  1.00  0.00     0.042 A 
HETATM   16  C   UNL     1     -38.217  39.702 -59.228  1.00  0.00    -0.008 A 
HETATM   17  N   UNL     1     -37.240  40.092 -61.194  1.00  0.00    -0.365 N 
HETATM   18  C   UNL     1     -38.530  39.972 -57.881  1.00  0.00     0.022 A 
HETATM   19  C   UNL     1     -38.553  38.654 -60.127  1.00  0.00     0.030 A 
HETATM   20  C   UNL     1     -37.938  38.921 -61.329  1.00  0.00     0.089 A 
HETATM   21  H   UNL     1     -36.681  40.521 -61.920  1.00  0.00     0.165 HD
ENDBRANCH  11  12
ENDBRANCH   1  11
BRANCH   5  22
HETATM   22  C   UNL     1     -35.197  39.192 -51.126  1.00  0.00     0.311 C 
BRANCH  22  23
HETATM   23  C   UNL     1     -33.816  39.353 -50.533  1.00  0.00    -0.027 A 
HETATM   24  C   UNL     1     -33.553  38.970 -49.212  1.00  0.00     0.028 A 
HETATM   25  C   UNL     1     -32.275  39.145 -48.710  1.00  0.00     0.116 A 
HETATM   26  N   UNL     1     -31.254  39.662 -49.424  1.00  0.00    -0.273 NA
HETATM   27  C   UNL     1     -31.518  40.009 -50.700  1.00  0.00     0.116 A 
HETATM   28  C   UNL     1     -32.765  39.876 -51.293  1.00  0.00     0.028 A 
ENDBRANCH  22  23
ENDBRANCH   5  22
TORSDOF 4
ENDMDL
MODEL 7
REMARK VINA RESULT:      -7.6      2.677      7.906
REMARK  4 active torsions:
REMARK  status: ('A' for Active; 'I' for Inactive)
REMARK    1  A    between atoms: C_2  and  C_3 
REMARK    2  A    between atoms: C_3  and  N_4 
REMARK    3  A    between atoms: N_8  and  C_9 
REMARK    4  A    between atoms: C_9  and  C_10 
ROOT
HETATM    1  N   UNL     1     -43.455  56.520 -54.078  1.00  0.00    -0.061 N 
HETATM    2  H   UNL     1     -43.688  56.144 -55.004  1.00  0.00     0.280 HD
HETATM    3  C   UNL     1     -43.239  55.299 -53.182  1.00  0.00     0.216 C 
HETATM    4  C   UNL     1     -42.487  54.186 -53.971  1.00  0.00     0.305 C 
HETATM    5  N   UNL     1     -41.026  54.275 -53.961  1.00  0.00     0.095 N 
HETATM    6  C   UNL     1     -40.474  55.553 -54.411  1.00  0.00     0.279 C 
HETATM    7  C   UNL     1     -40.986  56.781 -53.632  1.00  0.00     0.040 C 
HETATM    8  C   UNL     1     -42.234  57.385 -54.260  1.00  0.00     0.242 C 
HETATM    9  C   UNL     1     -42.526  55.719 -51.893  1.00  0.00     0.035 C 
HETATM   10  C   UNL     1     -41.227  56.493 -52.143  1.00  0.00     0.010 C 
ENDROOT
BRANCH   1  11
HETATM   11  C   UNL     1     -44.666  57.358 -53.700  1.00  0.00     0.274 C 
BRANCH  11  12
HETATM   12  C   UNL     1     -44.326  58.752 -53.249  1.00  0.00    -0.032 A 
HETATM   13  C   UNL     1     -44.406  59.825 -54.149  1.00  0.00     0.011 A 
HETATM   14  C   UNL     1     -44.097  61.131 -53.758  1.00  0.00     0.031 A 
HETATM   15  C   UNL     1     -43.706  61.335 -52.432  1.00  0.00     0.042 A 
HETATM   16  C   UNL     1     -43.616  60.298 -51.505  1.00  0.00    -0.008 A 
HETATM   17  N   UNL     1     -43.363  62.497 -51.775  1.00  0.00    -0.365 N 
HETATM   18  C   UNL     1     -43.930  58.988 -51.918  1.00  0.00     0.022 A 
HETATM   19  C   UNL     1     -43.206  60.871 -50.271  1.00  0.00     0.030 A 
HETATM   20  C   UNL     1     -43.057  62.225 -50.468  1.00  0.00     0.089 A 
HETATM   21  H   UNL     1     -43.351  63.418 -52.195  1.00  0.00     0.165 HD
ENDBRANCH  11  12
ENDBRANCH   1  11
BRANCH   5  22
HETATM   22  C   UNL     1     -40.418  53.125 -54.665  1.00  0.00     0.311 C 
BRANCH  22  23
HETATM   23  C   UNL     1     -40.099  51.966 -53.748  1.00  0.00    -0.027 A 
HETATM   24  C   UNL     1     -39.881  52.173 -52.381  1.00  0.00     0.028 A 
HETATM   25  C   UNL     1     -39.584  51.081 -51.582  1.00  0.00     0.116 A 
HETATM   26  N   UNL     1     -39.495  49.817 -52.043  1.00  0.00    -0.273 NA
HETATM   27  C   UNL     1     -39.726  49.632 -53.359  1.00  0.00     0.116 A 
HETATM   28  C   UNL     1     -40.027  50.660 -54.241  1.00  0.00     0.028 A 
ENDBRANCH  22  23
ENDBRANCH   5  22
TORSDOF 4
ENDMDL
MODEL 8
REMARK VINA RESULT:      -7.5      2.889      8.125
REMARK  4 active torsions:
REMARK  status: ('A' for Active; 'I' for Inactive)
REMARK    1  A    between atoms: C_2  and  C_3 
REMARK    2  A    between atoms: C_3  and  N_4 
REMARK    3  A    between atoms: N_8  and  C_9 
REMARK    4  A    between atoms: C_9  and  C_10 
ROOT
HETATM    1  N   UNL     1     -43.108  56.581 -51.929  1.00  0.00    -0.061 N 
HETATM    2  H   UNL     1     -42.696  57.017 -52.761  1.00  0.00     0.280 HD
HETATM    3  C   UNL     1     -43.396  55.130 -52.324  1.00  0.00     0.216 C 
HETATM    4  C   UNL     1     -42.237  54.580 -53.208  1.00  0.00     0.305 C 
HETATM    5  N   UNL     1     -41.100  54.009 -52.484  1.00  0.00     0.095 N 
HETATM    6  C   UNL     1     -40.487  54.890 -51.489  1.00  0.00     0.279 C 
HETATM    7  C   UNL     1     -41.459  55.418 -50.416  1.00  0.00     0.040 C 
HETATM    8  C   UNL     1     -42.102  56.737 -50.818  1.00  0.00     0.242 C 
HETATM    9  C   UNL     1     -43.656  54.292 -51.070  1.00  0.00     0.035 C 
HETATM   10  C   UNL     1     -42.539  54.399 -50.026  1.00  0.00     0.010 C 
ENDROOT
BRANCH   1  11
HETATM   11  C   UNL     1     -44.356  57.405 -51.655  1.00  0.00     0.274 C 
BRANCH  11  12
HETATM   12  C   UNL     1     -44.780  58.273 -52.809  1.00  0.00    -0.032 A 
HETATM   13  C   UNL     1     -44.796  57.757 -54.113  1.00  0.00     0.011 A 
HETATM   14  C   UNL     1     -45.185  58.540 -55.204  1.00  0.00     0.031 A 
HETATM   15  C   UNL     1     -45.563  59.861 -54.951  1.00  0.00     0.042 A 
HETATM   16  C   UNL     1     -45.564  60.412 -53.671  1.00  0.00    -0.008 A 
HETATM   17  N   UNL     1     -45.999  60.841 -55.816  1.00  0.00    -0.365 N 
HETATM   18  C   UNL     1     -45.167  59.608 -52.584  1.00  0.00     0.022 A 
HETATM   19  C   UNL     1     -46.012  61.755 -53.792  1.00  0.00     0.030 A 
HETATM   20  C   UNL     1     -46.271  61.991 -55.123  1.00  0.00     0.089 A 
HETATM   21  H   UNL     1     -46.114  60.724 -56.814  1.00  0.00     0.165 HD
ENDBRANCH  11  12
ENDBRANCH   1  11
BRANCH   5  22
HETATM   22  C   UNL     1     -40.104  53.443 -53.419  1.00  0.00     0.311 C 
BRANCH  22  23
HETATM   23  C   UNL     1     -39.918  51.951 -53.260  1.00  0.00    -0.027 A 
HETATM   24  C   UNL     1     -39.662  51.391 -52.003  1.00  0.00     0.028 A 
HETATM   25  C   UNL     1     -39.491  50.020 -51.907  1.00  0.00     0.116 A 
HETATM   26  N   UNL     1     -39.561  49.181 -52.961  1.00  0.00    -0.273 NA
HETATM   27  C   UNL     1     -39.827  49.734 -54.162  1.00  0.00     0.116 A 
HETATM   28  C   UNL     1     -40.011  51.095 -54.361  1.00  0.00     0.028 A 
ENDBRANCH  22  23
ENDBRANCH   5  22
TORSDOF 4
ENDMDL
MODEL 9
REMARK VINA RESULT:      -7.5      2.265      7.841
REMARK  4 active torsions:
REMARK  status: ('A' for Active; 'I' for Inactive)
REMARK    1  A    between atoms: C_2  and  C_3 
REMARK    2  A    between atoms: C_3  and  N_4 
REMARK    3  A    between atoms: N_8  and  C_9 
REMARK    4  A    between atoms: C_9  and  C_10 
ROOT
HETATM    1  N   UNL     1     -42.344  57.627 -55.548  1.00  0.00    -0.061 N 
HETATM    2  H   UNL     1     -42.269  58.501 -55.016  1.00  0.00     0.280 HD
HETATM    3  C   UNL     1     -41.368  56.654 -54.883  1.00  0.00     0.216 C 
HETATM    4  C   UNL     1     -41.415  56.830 -53.336  1.00  0.00     0.305 C 
HETATM    5  N   UNL     1     -42.442  56.055 -52.638  1.00  0.00     0.095 N 
HETATM    6  C   UNL     1     -43.809  56.249 -53.123  1.00  0.00     0.279 C 
HETATM    7  C   UNL     1     -44.001  55.964 -54.625  1.00  0.00     0.040 C 
HETATM    8  C   UNL     1     -43.790  57.205 -55.480  1.00  0.00     0.242 C 
HETATM    9  C   UNL     1     -41.664  55.224 -55.343  1.00  0.00     0.035 C 
HETATM   10  C   UNL     1     -43.126  54.811 -55.138  1.00  0.00     0.010 C 
ENDROOT
BRANCH   1  11
HETATM   11  C   UNL     1     -41.957  58.019 -56.965  1.00  0.00     0.274 C 
BRANCH  11  12
HETATM   12  C   UNL     1     -42.967  57.622 -58.007  1.00  0.00    -0.032 A 
HETATM   13  C   UNL     1     -43.883  58.563 -58.498  1.00  0.00     0.011 A 
HETATM   14  C   UNL     1     -44.833  58.223 -59.466  1.00  0.00     0.031 A 
HETATM   15  C   UNL     1     -44.838  56.906 -59.933  1.00  0.00     0.042 A 
HETATM   16  C   UNL     1     -43.945  55.940 -59.473  1.00  0.00    -0.008 A 
HETATM   17  N   UNL     1     -45.638  56.303 -60.879  1.00  0.00    -0.365 N 
HETATM   18  C   UNL     1     -42.996  56.302 -58.497  1.00  0.00     0.022 A 
HETATM   19  C   UNL     1     -44.232  54.736 -60.171  1.00  0.00     0.030 A 
HETATM   20  C   UNL     1     -45.279  54.989 -61.028  1.00  0.00     0.089 A 
HETATM   21  H   UNL     1     -46.373  56.766 -61.397  1.00  0.00     0.165 HD
ENDBRANCH  11  12
ENDBRANCH   1  11
BRANCH   5  22
HETATM   22  C   UNL     1     -42.338  56.231 -51.173  1.00  0.00     0.311 C 
BRANCH  22  23
HETATM   23  C   UNL     1     -41.636  55.085 -50.483  1.00  0.00    -0.027 A 
HETATM   24  C   UNL     1     -41.355  53.898 -51.171  1.00  0.00     0.028 A 
HETATM   25  C   UNL     1     -40.717  52.872 -50.494  1.00  0.00     0.116 A 
HETATM   26  N   UNL     1     -40.342  52.946 -49.201  1.00  0.00    -0.273 NA
HETATM   27  C   UNL     1     -40.603  54.102 -48.557  1.00  0.00     0.116 A 
HETATM   28  C   UNL     1     -41.239  55.186 -49.146  1.00  0.00     0.028 A 
ENDBRANCH  22  23
ENDBRANCH   5  22
TORSDOF 4
ENDMDL
MODEL 10
REMARK VINA RESULT:      -7.4     14.790     18.404
REMARK  4 active torsions:
REMARK  status: ('A' for Active; 'I' for Inactive)
REMARK    1  A    between atoms: C_2  and  C_3 
REMARK    2  A    between atoms: C_3  and  N_4 
REMARK    3  A    between atoms: N_8  and  C_9 
REMARK    4  A    between atoms: C_9  and  C_10 
ROOT
HETATM    1  N   UNL     1     -36.309  40.382 -52.120  1.00  0.00    -0.061 N 
HETATM    2  H   UNL     1     -36.990  39.706 -51.757  1.00  0.00     0.280 HD
HETATM    3  C   UNL     1     -35.560  40.911 -50.895  1.00  0.00     0.216 C 
HETATM    4  C   UNL     1     -35.301  39.750 -49.889  1.00  0.00     0.305 C 
HETATM    5  N   UNL     1     -34.085  38.968 -50.118  1.00  0.00     0.095 N 
HETATM    6  C   UNL     1     -33.953  38.397 -51.459  1.00  0.00     0.279 C 
HETATM    7  C   UNL     1     -34.025  39.428 -52.603  1.00  0.00     0.040 C 
HETATM    8  C   UNL     1     -35.446  39.636 -53.105  1.00  0.00     0.242 C 
HETATM    9  C   UNL     1     -34.284  41.631 -51.337  1.00  0.00     0.035 C 
HETATM   10  C   UNL     1     -33.388  40.777 -52.241  1.00  0.00     0.010 C 
ENDROOT
BRANCH   1  11
HETATM   11  C   UNL     1     -37.160  41.428 -52.823  1.00  0.00     0.274 C 
BRANCH  11  12
HETATM   12  C   UNL     1     -36.822  41.613 -54.277  1.00  0.00    -0.032 A 
HETATM   13  C   UNL     1     -35.657  42.300 -54.650  1.00  0.00     0.011 A 
HETATM   14  C   UNL     1     -35.318  42.488 -55.993  1.00  0.00     0.031 A 
HETATM   15  C   UNL     1     -36.180  41.963 -56.959  1.00  0.00     0.042 A 
HETATM   16  C   UNL     1     -37.346  41.273 -56.631  1.00  0.00    -0.008 A 
HETATM   17  N   UNL     1     -36.092  41.983 -58.333  1.00  0.00    -0.365 N 
HETATM   18  C   UNL     1     -37.672  41.095 -55.272  1.00  0.00     0.022 A 
HETATM   19  C   UNL     1     -37.958  40.879 -57.852  1.00  0.00     0.030 A 
HETATM   20  C   UNL     1     -37.165  41.331 -58.882  1.00  0.00     0.089 A 
HETATM   21  H   UNL     1     -35.339  42.407 -58.860  1.00  0.00     0.165 HD
ENDBRANCH  11  12
ENDBRANCH   1  11
BRANCH   5  22
HETATM   22  C   UNL     1     -33.896  37.954 -49.058  1.00  0.00     0.311 C 
BRANCH  22  23
HETATM   23  C   UNL     1     -32.879  38.362 -48.018  1.00  0.00    -0.027 A 
HETATM   24  C   UNL     1     -31.884  39.301 -48.318  1.00  0.00     0.028 A 
HETATM   25  C   UNL     1     -30.969  39.638 -47.335  1.00  0.00     0.116 A 
HETATM   26  N   UNL     1     -30.978  39.115 -46.092  1.00  0.00    -0.273 NA
HETATM   27  C   UNL     1     -31.953  38.226 -45.813  1.00  0.00     0.116 A 
HETATM   28  C   UNL     1     -32.913  37.822 -46.729  1.00  0.00     0.028 A 
ENDBRANCH  22  23
ENDBRANCH   5  22
TORSDOF 4
ENDMDL
