MODEL 1
REMARK VINA RESULT:      -8.4      0.000      0.000
REMARK  7 active torsions:
REMARK  status: ('A' for Active; 'I' for Inactive)
REMARK    1  A    between atoms: C_2  and  N_3 
REMARK    2  A    between atoms: N_3  and  C_4 
REMARK    3  A    between atoms: C_6  and  N_7 
REMARK    4  A    between atoms: N_7  and  C_8 
REMARK    5  A    between atoms: C_8  and  C_9 
REMARK    6  A    between atoms: C_9  and  C_10 
REMARK    7  A    between atoms: C_12  and  O_13 
ROOT
HETATM    1  C   UNL     1     -40.296  53.551 -52.057  1.00  0.00     0.119 A 
HETATM    2  N   UNL     1     -40.512  54.351 -53.118  1.00  0.00    -0.207 NA
HETATM    3  C   UNL     1     -40.432  53.822 -54.348  1.00  0.00     0.181 A 
HETATM    4  N   UNL     1     -40.185  52.530 -54.552  1.00  0.00    -0.330 N 
HETATM    5  H   UNL     1     -40.209  52.202 -55.508  1.00  0.00     0.168 HD
HETATM    6  C   UNL     1     -39.981  51.685 -53.536  1.00  0.00     0.048 A 
HETATM    7  C   UNL     1     -40.030  52.174 -52.217  1.00  0.00     0.031 A 
HETATM    8  C   UNL     1     -39.731  50.328 -53.792  1.00  0.00     0.030 A 
HETATM    9  C   UNL     1     -39.526  49.443 -52.735  1.00  0.00     0.002 A 
HETATM   10  C   UNL     1     -39.579  49.903 -51.423  1.00  0.00     0.001 A 
HETATM   11  C   UNL     1     -39.831  51.252 -51.163  1.00  0.00     0.017 A 
ENDROOT
BRANCH   3  12
HETATM   12  N   UNL     1     -40.624  54.595 -55.488  1.00  0.00    -0.262 NA
HETATM   13  H   UNL     1     -39.759  54.976 -55.862  1.00  0.00     0.130 HD
BRANCH  12  14
HETATM   14  C   UNL     1     -41.657  55.635 -55.356  1.00  0.00     0.100 C 
BRANCH  14  15
HETATM   15  C   UNL     1     -42.871  55.274 -56.222  1.00  0.00     0.053 C 
BRANCH  15  16
HETATM   16  C   UNL     1     -42.913  56.085 -57.493  1.00  0.00    -0.054 A 
HETATM   17  C   UNL     1     -43.462  55.540 -58.667  1.00  0.00     0.044 A 
HETATM   18  C   UNL     1     -43.484  56.282 -59.850  1.00  0.00     0.068 A 
HETATM   19  C   UNL     1     -42.948  57.571 -59.859  1.00  0.00     0.037 A 
HETATM   20  C   UNL     1     -42.399  58.120 -58.701  1.00  0.00     0.003 A 
HETATM   21  C   UNL     1     -42.380  57.380 -57.520  1.00  0.00     0.007 A 
BRANCH  18  22
HETATM   22  O   UNL     1     -43.987  55.867 -61.052  1.00  0.00    -0.356 OA
HETATM   23  C   UNL     1     -45.024  54.896 -61.024  1.00  0.00     0.210 C 
ENDBRANCH  18  22
ENDBRANCH  15  16
ENDBRANCH  14  15
ENDBRANCH  12  14
ENDBRANCH   3  12
BRANCH   1  24
HETATM   24  N   UNL     1     -40.404  54.088 -50.773  1.00  0.00    -0.273 NA
HETATM   25  H   UNL     1     -39.691  54.791 -50.588  1.00  0.00     0.129 HD
BRANCH  24  26
HETATM   26  C   UNL     1     -41.723  54.498 -50.277  1.00  0.00     0.053 C 
HETATM   27  C   UNL     1     -42.832  53.999 -51.202  1.00  0.00     0.026 C 
HETATM   28  C   UNL     1     -41.744  56.026 -50.211  1.00  0.00     0.026 C 
ENDBRANCH  24  26
ENDBRANCH   1  24
TORSDOF 7
ENDMDL
MODEL 2
REMARK VINA RESULT:      -8.3      2.726      5.007
REMARK  7 active torsions:
REMARK  status: ('A' for Active; 'I' for Inactive)
REMARK    1  A    between atoms: C_2  and  N_3 
REMARK    2  A    between atoms: N_3  and  C_4 
REMARK    3  A    between atoms: C_6  and  N_7 
REMARK    4  A    between atoms: N_7  and  C_8 
REMARK    5  A    between atoms: C_8  and  C_9 
REMARK    6  A    between atoms: C_9  and  C_10 
REMARK    7  A    between atoms: C_12  and  O_13 
ROOT
HETATM    1  C   UNL     1     -40.732  53.608 -53.383  1.00  0.00     0.119 A 
HETATM    2  N   UNL     1     -40.682  54.428 -52.316  1.00  0.00    -0.207 NA
HETATM    3  C   UNL     1     -40.283  53.926 -51.138  1.00  0.00     0.181 A 
HETATM    4  N   UNL     1     -39.900  52.659 -50.998  1.00  0.00    -0.330 N 
HETATM    5  H   UNL     1     -39.549  52.382 -50.091  1.00  0.00     0.168 HD
HETATM    6  C   UNL     1     -39.912  51.805 -52.026  1.00  0.00     0.048 A 
HETATM    7  C   UNL     1     -40.339  52.256 -53.289  1.00  0.00     0.031 A 
HETATM    8  C   UNL     1     -39.494  50.478 -51.839  1.00  0.00     0.030 A 
HETATM    9  C   UNL     1     -39.496  49.586 -52.911  1.00  0.00     0.002 A 
HETATM   10  C   UNL     1     -39.906  50.013 -54.170  1.00  0.00     0.001 A 
HETATM   11  C   UNL     1     -40.320  51.334 -54.361  1.00  0.00     0.017 A 
ENDROOT
BRANCH   3  12
HETATM   12  N   UNL     1     -40.226  54.713 -49.993  1.00  0.00    -0.262 NA
HETATM   13  H   UNL     1     -40.006  54.181 -49.155  1.00  0.00     0.130 HD
BRANCH  12  14
HETATM   14  C   UNL     1     -41.396  55.581 -49.787  1.00  0.00     0.100 C 
BRANCH  14  15
HETATM   15  C   UNL     1     -41.028  57.034 -50.115  1.00  0.00     0.053 C 
BRANCH  15  16
HETATM   16  C   UNL     1     -41.779  57.543 -51.319  1.00  0.00    -0.054 A 
HETATM   17  C   UNL     1     -41.110  58.267 -52.322  1.00  0.00     0.044 A 
HETATM   18  C   UNL     1     -41.807  58.758 -53.428  1.00  0.00     0.068 A 
HETATM   19  C   UNL     1     -43.181  58.529 -53.527  1.00  0.00     0.037 A 
HETATM   20  C   UNL     1     -43.855  57.815 -52.537  1.00  0.00     0.003 A 
HETATM   21  C   UNL     1     -43.158  57.324 -51.435  1.00  0.00     0.007 A 
BRANCH  18  22
HETATM   22  O   UNL     1     -41.273  59.472 -54.464  1.00  0.00    -0.356 OA
HETATM   23  C   UNL     1     -42.129  59.771 -55.559  1.00  0.00     0.210 C 
ENDBRANCH  18  22
ENDBRANCH  15  16
ENDBRANCH  14  15
ENDBRANCH  12  14
ENDBRANCH   3  12
BRANCH   1  24
HETATM   24  N   UNL     1     -41.122  54.129 -54.618  1.00  0.00    -0.273 NA
HETATM   25  H   UNL     1     -41.294  53.400 -55.307  1.00  0.00     0.129 HD
BRANCH  24  26
HETATM   26  C   UNL     1     -42.147  55.179 -54.661  1.00  0.00     0.053 C 
HETATM   27  C   UNL     1     -43.547  54.579 -54.537  1.00  0.00     0.026 C 
HETATM   28  C   UNL     1     -42.009  55.914 -55.995  1.00  0.00     0.026 C 
ENDBRANCH  24  26
ENDBRANCH   1  24
TORSDOF 7
ENDMDL
MODEL 3
REMARK VINA RESULT:      -8.3      2.844      4.362
REMARK  7 active torsions:
REMARK  status: ('A' for Active; 'I' for Inactive)
REMARK    1  A    between atoms: C_2  and  N_3 
REMARK    2  A    between atoms: N_3  and  C_4 
REMARK    3  A    between atoms: C_6  and  N_7 
REMARK    4  A    between atoms: N_7  and  C_8 
REMARK    5  A    between atoms: C_8  and  C_9 
REMARK    6  A    between atoms: C_9  and  C_10 
REMARK    7  A    between atoms: C_12  and  O_13 
ROOT
HETATM    1  C   UNL     1     -40.371  53.513 -52.214  1.00  0.00     0.119 A 
HETATM    2  N   UNL     1     -40.617  54.286 -53.289  1.00  0.00    -0.207 NA
HETATM    3  C   UNL     1     -40.527  53.735 -54.509  1.00  0.00     0.181 A 
HETATM    4  N   UNL     1     -40.241  52.448 -54.689  1.00  0.00    -0.330 N 
HETATM    5  H   UNL     1     -40.260  52.101 -55.639  1.00  0.00     0.168 HD
HETATM    6  C   UNL     1     -40.005  51.630 -53.659  1.00  0.00     0.048 A 
HETATM    7  C   UNL     1     -40.062  52.143 -52.349  1.00  0.00     0.031 A 
HETATM    8  C   UNL     1     -39.714  50.277 -53.890  1.00  0.00     0.030 A 
HETATM    9  C   UNL     1     -39.475  49.419 -52.817  1.00  0.00     0.002 A 
HETATM   10  C   UNL     1     -39.535  49.903 -51.514  1.00  0.00     0.001 A 
HETATM   11  C   UNL     1     -39.828  51.248 -51.279  1.00  0.00     0.017 A 
ENDROOT
BRANCH   3  12
HETATM   12  N   UNL     1     -40.751  54.480 -55.663  1.00  0.00    -0.262 NA
HETATM   13  H   UNL     1     -40.082  55.236 -55.784  1.00  0.00     0.130 HD
BRANCH  12  14
HETATM   14  C   UNL     1     -42.134  54.953 -55.829  1.00  0.00     0.100 C 
BRANCH  14  15
HETATM   15  C   UNL     1     -42.150  56.483 -55.941  1.00  0.00     0.053 C 
BRANCH  15  16
HETATM   16  C   UNL     1     -42.356  57.140 -54.599  1.00  0.00    -0.054 A 
HETATM   17  C   UNL     1     -41.400  58.039 -54.094  1.00  0.00     0.044 A 
HETATM   18  C   UNL     1     -41.577  58.634 -52.842  1.00  0.00     0.068 A 
HETATM   19  C   UNL     1     -42.713  58.322 -52.092  1.00  0.00     0.037 A 
HETATM   20  C   UNL     1     -43.666  57.430 -52.583  1.00  0.00     0.003 A 
HETATM   21  C   UNL     1     -43.488  56.839 -53.833  1.00  0.00     0.007 A 
BRANCH  18  22
HETATM   22  O   UNL     1     -40.725  59.518 -52.242  1.00  0.00    -0.356 OA
HETATM   23  C   UNL     1     -40.099  59.104 -51.036  1.00  0.00     0.210 C 
ENDBRANCH  18  22
ENDBRANCH  15  16
ENDBRANCH  14  15
ENDBRANCH  12  14
ENDBRANCH   3  12
BRANCH   1  24
HETATM   24  N   UNL     1     -40.487  54.072 -50.940  1.00  0.00    -0.273 NA
HETATM   25  H   UNL     1     -39.586  54.339 -50.551  1.00  0.00     0.129 HD
BRANCH  24  26
HETATM   26  C   UNL     1     -41.515  55.092 -50.697  1.00  0.00     0.053 C 
HETATM   27  C   UNL     1     -41.220  55.867 -49.413  1.00  0.00     0.026 C 
HETATM   28  C   UNL     1     -42.864  54.380 -50.581  1.00  0.00     0.026 C 
ENDBRANCH  24  26
ENDBRANCH   1  24
TORSDOF 7
ENDMDL
MODEL 4
REMARK VINA RESULT:      -8.2      3.682      5.285
REMARK  7 active torsions:
REMARK  status: ('A' for Active; 'I' for Inactive)
REMARK    1  A    between atoms: C_2  and  N_3 
REMARK    2  A    between atoms: N_3  and  C_4 
REMARK    3  A    between atoms: C_6  and  N_7 
REMARK    4  A    between atoms: N_7  and  C_8 
REMARK    5  A    between atoms: C_8  and  C_9 
REMARK    6  A    between atoms: C_9  and  C_10 
REMARK    7  A    between atoms: C_12  and  O_13 
ROOT
HETATM    1  C   UNL     1     -42.272  53.973 -51.511  1.00  0.00     0.119 A 
HETATM    2  N   UNL     1     -43.222  54.622 -52.211  1.00  0.00    -0.207 NA
HETATM    3  C   UNL     1     -43.201  54.540 -53.550  1.00  0.00     0.181 A 
HETATM    4  N   UNL     1     -42.299  53.811 -54.204  1.00  0.00    -0.330 N 
HETATM    5  H   UNL     1     -42.398  53.751 -55.209  1.00  0.00     0.168 HD
HETATM    6  C   UNL     1     -41.345  53.132 -53.561  1.00  0.00     0.048 A 
HETATM    7  C   UNL     1     -41.292  53.188 -52.155  1.00  0.00     0.031 A 
HETATM    8  C   UNL     1     -40.417  52.369 -54.286  1.00  0.00     0.030 A 
HETATM    9  C   UNL     1     -39.425  51.652 -53.618  1.00  0.00     0.002 A 
HETATM   10  C   UNL     1     -39.360  51.686 -52.229  1.00  0.00     0.001 A 
HETATM   11  C   UNL     1     -40.284  52.441 -51.502  1.00  0.00     0.017 A 
ENDROOT
BRANCH   3  12
HETATM   12  N   UNL     1     -44.140  55.201 -54.335  1.00  0.00    -0.262 NA
HETATM   13  H   UNL     1     -44.086  54.948 -55.318  1.00  0.00     0.130 HD
BRANCH  12  14
HETATM   14  C   UNL     1     -44.171  56.661 -54.155  1.00  0.00     0.100 C 
BRANCH  14  15
HETATM   15  C   UNL     1     -42.797  57.255 -54.489  1.00  0.00     0.053 C 
BRANCH  15  16
HETATM   16  C   UNL     1     -42.244  58.063 -53.342  1.00  0.00    -0.054 A 
HETATM   17  C   UNL     1     -40.868  58.343 -53.269  1.00  0.00     0.044 A 
HETATM   18  C   UNL     1     -40.349  59.074 -52.197  1.00  0.00     0.068 A 
HETATM   19  C   UNL     1     -41.210  59.520 -51.193  1.00  0.00     0.037 A 
HETATM   20  C   UNL     1     -42.576  59.247 -51.256  1.00  0.00     0.003 A 
HETATM   21  C   UNL     1     -43.093  58.520 -52.326  1.00  0.00     0.007 A 
BRANCH  18  22
HETATM   22  O   UNL     1     -39.036  59.408 -52.011  1.00  0.00    -0.356 OA
HETATM   23  C   UNL     1     -38.556  59.445 -50.674  1.00  0.00     0.210 C 
ENDBRANCH  18  22
ENDBRANCH  15  16
ENDBRANCH  14  15
ENDBRANCH  12  14
ENDBRANCH   3  12
BRANCH   1  24
HETATM   24  N   UNL     1     -42.302  54.031 -50.117  1.00  0.00    -0.273 NA
HETATM   25  H   UNL     1     -42.125  53.125 -49.688  1.00  0.00     0.129 HD
BRANCH  24  26
HETATM   26  C   UNL     1     -41.586  55.114 -49.430  1.00  0.00     0.053 C 
HETATM   27  C   UNL     1     -40.780  55.950 -50.424  1.00  0.00     0.026 C 
HETATM   28  C   UNL     1     -40.651  54.477 -48.401  1.00  0.00     0.026 C 
ENDBRANCH  24  26
ENDBRANCH   1  24
TORSDOF 7
ENDMDL
MODEL 5
REMARK VINA RESULT:      -8.0      1.176      1.877
REMARK  7 active torsions:
REMARK  status: ('A' for Active; 'I' for Inactive)
REMARK    1  A    between atoms: C_2  and  N_3 
REMARK    2  A    between atoms: N_3  and  C_4 
REMARK    3  A    between atoms: C_6  and  N_7 
REMARK    4  A    between atoms: N_7  and  C_8 
REMARK    5  A    between atoms: C_8  and  C_9 
REMARK    6  A    between atoms: C_9  and  C_10 
REMARK    7  A    between atoms: C_12  and  O_13 
ROOT
HETATM    1  C   UNL     1     -40.201  53.581 -52.206  1.00  0.00     0.119 A 
HETATM    2  N   UNL     1     -40.548  54.423 -53.198  1.00  0.00    -0.207 NA
HETATM    3  C   UNL     1     -40.655  53.936 -54.444  1.00  0.00     0.181 A 
HETATM    4  N   UNL     1     -40.469  52.648 -54.723  1.00  0.00    -0.330 N 
HETATM    5  H   UNL     1     -40.637  52.355 -55.677  1.00  0.00     0.168 HD
HETATM    6  C   UNL     1     -40.141  51.765 -53.776  1.00  0.00     0.048 A 
HETATM    7  C   UNL     1     -39.990  52.207 -52.448  1.00  0.00     0.031 A 
HETATM    8  C   UNL     1     -39.960  50.414 -54.109  1.00  0.00     0.030 A 
HETATM    9  C   UNL     1     -39.627  49.487 -53.122  1.00  0.00     0.002 A 
HETATM   10  C   UNL     1     -39.481  49.901 -51.802  1.00  0.00     0.001 A 
HETATM   11  C   UNL     1     -39.664  51.244 -51.464  1.00  0.00     0.017 A 
ENDROOT
BRANCH   3  12
HETATM   12  N   UNL     1     -40.991  54.753 -55.518  1.00  0.00    -0.262 NA
HETATM   13  H   UNL     1     -40.210  54.928 -56.145  1.00  0.00     0.130 HD
BRANCH  12  14
HETATM   14  C   UNL     1     -41.675  56.003 -55.148  1.00  0.00     0.100 C 
BRANCH  14  15
HETATM   15  C   UNL     1     -43.016  56.100 -55.886  1.00  0.00     0.053 C 
BRANCH  15  16
HETATM   16  C   UNL     1     -42.831  56.479 -57.334  1.00  0.00    -0.054 A 
HETATM   17  C   UNL     1     -42.400  57.772 -57.681  1.00  0.00     0.044 A 
HETATM   18  C   UNL     1     -42.248  58.133 -59.022  1.00  0.00     0.068 A 
HETATM   19  C   UNL     1     -42.536  57.198 -60.019  1.00  0.00     0.037 A 
HETATM   20  C   UNL     1     -42.966  55.915 -59.685  1.00  0.00     0.003 A 
HETATM   21  C   UNL     1     -43.115  55.555 -58.347  1.00  0.00     0.007 A 
BRANCH  18  22
HETATM   22  O   UNL     1     -41.839  59.352 -59.487  1.00  0.00    -0.356 OA
HETATM   23  C   UNL     1     -42.652  59.982 -60.467  1.00  0.00     0.210 C 
ENDBRANCH  18  22
ENDBRANCH  15  16
ENDBRANCH  14  15
ENDBRANCH  12  14
ENDBRANCH   3  12
BRANCH   1  24
HETATM   24  N   UNL     1     -40.112  54.074 -50.903  1.00  0.00    -0.273 NA
HETATM   25  H   UNL     1     -39.719  55.012 -50.871  1.00  0.00     0.129 HD
BRANCH  24  26
HETATM   26  C   UNL     1     -41.262  53.928 -50.002  1.00  0.00     0.053 C 
HETATM   27  C   UNL     1     -42.275  55.051 -50.227  1.00  0.00     0.026 C 
HETATM   28  C   UNL     1     -40.741  53.974 -48.565  1.00  0.00     0.026 C 
ENDBRANCH  24  26
ENDBRANCH   1  24
TORSDOF 7
ENDMDL
MODEL 6
REMARK VINA RESULT:      -7.9      1.428      3.508
REMARK  7 active torsions:
REMARK  status: ('A' for Active; 'I' for Inactive)
REMARK    1  A    between atoms: C_2  and  N_3 
REMARK    2  A    between atoms: N_3  and  C_4 
REMARK    3  A    between atoms: C_6  and  N_7 
REMARK    4  A    between atoms: N_7  and  C_8 
REMARK    5  A    between atoms: C_8  and  C_9 
REMARK    6  A    between atoms: C_9  and  C_10 
REMARK    7  A    between atoms: C_12  and  O_13 
ROOT
HETATM    1  C   UNL     1     -40.621  52.853 -52.885  1.00  0.00     0.119 A 
HETATM    2  N   UNL     1     -41.412  53.147 -53.933  1.00  0.00    -0.207 NA
HETATM    3  C   UNL     1     -42.339  54.107 -53.788  1.00  0.00     0.181 A 
HETATM    4  N   UNL     1     -42.473  54.801 -52.661  1.00  0.00    -0.330 N 
HETATM    5  H   UNL     1     -43.151  55.552 -52.660  1.00  0.00     0.168 HD
HETATM    6  C   UNL     1     -41.703  54.564 -51.594  1.00  0.00     0.048 A 
HETATM    7  C   UNL     1     -40.723  53.556 -51.666  1.00  0.00     0.031 A 
HETATM    8  C   UNL     1     -41.872  55.322 -50.425  1.00  0.00     0.030 A 
HETATM    9  C   UNL     1     -41.065  55.084 -49.314  1.00  0.00     0.002 A 
HETATM   10  C   UNL     1     -40.084  54.099 -49.366  1.00  0.00     0.001 A 
HETATM   11  C   UNL     1     -39.910  53.344 -50.528  1.00  0.00     0.017 A 
ENDROOT
BRANCH   3  12
HETATM   12  N   UNL     1     -43.202  54.449 -54.824  1.00  0.00    -0.262 NA
HETATM   13  H   UNL     1     -42.981  53.978 -55.698  1.00  0.00     0.130 HD
BRANCH  12  14
HETATM   14  C   UNL     1     -43.379  55.896 -55.022  1.00  0.00     0.100 C 
BRANCH  14  15
HETATM   15  C   UNL     1     -42.476  56.379 -56.165  1.00  0.00     0.053 C 
BRANCH  15  16
HETATM   16  C   UNL     1     -43.275  56.772 -57.382  1.00  0.00    -0.054 A 
HETATM   17  C   UNL     1     -43.190  56.015 -58.563  1.00  0.00     0.044 A 
HETATM   18  C   UNL     1     -43.913  56.388 -59.699  1.00  0.00     0.068 A 
HETATM   19  C   UNL     1     -44.718  57.528 -59.652  1.00  0.00     0.037 A 
HETATM   20  C   UNL     1     -44.808  58.287 -58.486  1.00  0.00     0.003 A 
HETATM   21  C   UNL     1     -44.088  57.912 -57.353  1.00  0.00     0.007 A 
BRANCH  18  22
HETATM   22  O   UNL     1     -43.915  55.739 -60.902  1.00  0.00    -0.356 OA
HETATM   23  C   UNL     1     -45.080  55.002 -61.244  1.00  0.00     0.210 C 
ENDBRANCH  18  22
ENDBRANCH  15  16
ENDBRANCH  14  15
ENDBRANCH  12  14
ENDBRANCH   3  12
BRANCH   1  24
HETATM   24  N   UNL     1     -39.638  51.873 -53.035  1.00  0.00    -0.273 NA
HETATM   25  H   UNL     1     -38.874  51.987 -52.371  1.00  0.00     0.129 HD
BRANCH  24  26
HETATM   26  C   UNL     1     -40.042  50.468 -53.172  1.00  0.00     0.053 C 
HETATM   27  C   UNL     1     -39.565  49.645 -51.975  1.00  0.00     0.026 C 
HETATM   28  C   UNL     1     -39.422  49.926 -54.461  1.00  0.00     0.026 C 
ENDBRANCH  24  26
ENDBRANCH   1  24
TORSDOF 7
ENDMDL
MODEL 7
REMARK VINA RESULT:      -7.8      2.301      3.026
REMARK  7 active torsions:
REMARK  status: ('A' for Active; 'I' for Inactive)
REMARK    1  A    between atoms: C_2  and  N_3 
REMARK    2  A    between atoms: N_3  and  C_4 
REMARK    3  A    between atoms: C_6  and  N_7 
REMARK    4  A    between atoms: N_7  and  C_8 
REMARK    5  A    between atoms: C_8  and  C_9 
REMARK    6  A    between atoms: C_9  and  C_10 
REMARK    7  A    between atoms: C_12  and  O_13 
ROOT
HETATM    1  C   UNL     1     -43.032  54.862 -53.014  1.00  0.00     0.119 A 
HETATM    2  N   UNL     1     -43.511  55.071 -54.254  1.00  0.00    -0.207 NA
HETATM    3  C   UNL     1     -42.939  54.425 -55.281  1.00  0.00     0.181 A 
HETATM    4  N   UNL     1     -41.943  53.559 -55.110  1.00  0.00    -0.330 N 
HETATM    5  H   UNL     1     -41.615  53.066 -55.930  1.00  0.00     0.168 HD
HETATM    6  C   UNL     1     -41.439  53.299 -53.900  1.00  0.00     0.048 A 
HETATM    7  C   UNL     1     -41.976  53.956 -52.777  1.00  0.00     0.031 A 
HETATM    8  C   UNL     1     -40.393  52.373 -53.760  1.00  0.00     0.030 A 
HETATM    9  C   UNL     1     -39.870  52.093 -52.498  1.00  0.00     0.002 A 
HETATM   10  C   UNL     1     -40.393  52.724 -51.374  1.00  0.00     0.001 A 
HETATM   11  C   UNL     1     -41.436  53.643 -51.507  1.00  0.00     0.017 A 
ENDROOT
BRANCH   3  12
HETATM   12  N   UNL     1     -43.371  54.609 -56.590  1.00  0.00    -0.262 NA
HETATM   13  H   UNL     1     -43.132  53.833 -57.202  1.00  0.00     0.130 HD
BRANCH  12  14
HETATM   14  C   UNL     1     -42.993  55.901 -57.185  1.00  0.00     0.100 C 
BRANCH  14  15
HETATM   15  C   UNL     1     -43.177  55.845 -58.707  1.00  0.00     0.053 C 
BRANCH  15  16
HETATM   16  C   UNL     1     -44.513  56.400 -59.130  1.00  0.00    -0.054 A 
HETATM   17  C   UNL     1     -45.197  55.848 -60.227  1.00  0.00     0.044 A 
HETATM   18  C   UNL     1     -46.426  56.373 -60.635  1.00  0.00     0.068 A 
HETATM   19  C   UNL     1     -46.968  57.460 -59.945  1.00  0.00     0.037 A 
HETATM   20  C   UNL     1     -46.297  58.016 -58.856  1.00  0.00     0.003 A 
HETATM   21  C   UNL     1     -45.072  57.489 -58.450  1.00  0.00     0.007 A 
BRANCH  18  22
HETATM   22  O   UNL     1     -47.185  55.929 -61.681  1.00  0.00    -0.356 OA
HETATM   23  C   UNL     1     -48.245  56.767 -62.121  1.00  0.00     0.210 C 
ENDBRANCH  18  22
ENDBRANCH  15  16
ENDBRANCH  14  15
ENDBRANCH  12  14
ENDBRANCH   3  12
BRANCH   1  24
HETATM   24  N   UNL     1     -43.638  55.511 -51.937  1.00  0.00    -0.273 NA
HETATM   25  H   UNL     1     -43.458  55.042 -51.052  1.00  0.00     0.129 HD
BRANCH  24  26
HETATM   26  C   UNL     1     -43.519  56.970 -51.821  1.00  0.00     0.053 C 
HETATM   27  C   UNL     1     -42.243  57.354 -51.072  1.00  0.00     0.026 C 
HETATM   28  C   UNL     1     -44.745  57.480 -51.061  1.00  0.00     0.026 C 
ENDBRANCH  24  26
ENDBRANCH   1  24
TORSDOF 7
ENDMDL
MODEL 8
REMARK VINA RESULT:      -7.7      3.305      5.093
REMARK  7 active torsions:
REMARK  status: ('A' for Active; 'I' for Inactive)
REMARK    1  A    between atoms: C_2  and  N_3 
REMARK    2  A    between atoms: N_3  and  C_4 
REMARK    3  A    between atoms: C_6  and  N_7 
REMARK    4  A    between atoms: N_7  and  C_8 
REMARK    5  A    between atoms: C_8  and  C_9 
REMARK    6  A    between atoms: C_9  and  C_10 
REMARK    7  A    between atoms: C_12  and  O_13 
ROOT
HETATM    1  C   UNL     1     -41.862  56.940 -50.782  1.00  0.00     0.119 A 
HETATM    2  N   UNL     1     -42.869  57.112 -51.658  1.00  0.00    -0.207 NA
HETATM    3  C   UNL     1     -43.345  56.039 -52.309  1.00  0.00     0.181 A 
HETATM    4  N   UNL     1     -42.882  54.811 -52.089  1.00  0.00    -0.330 N 
HETATM    5  H   UNL     1     -43.343  54.052 -52.572  1.00  0.00     0.168 HD
HETATM    6  C   UNL     1     -41.896  54.579 -51.217  1.00  0.00     0.048 A 
HETATM    7  C   UNL     1     -41.333  55.659 -50.513  1.00  0.00     0.031 A 
HETATM    8  C   UNL     1     -41.440  53.268 -51.008  1.00  0.00     0.030 A 
HETATM    9  C   UNL     1     -40.418  53.019 -50.093  1.00  0.00     0.002 A 
HETATM   10  C   UNL     1     -39.854  54.072 -49.379  1.00  0.00     0.001 A 
HETATM   11  C   UNL     1     -40.307  55.378 -49.581  1.00  0.00     0.017 A 
ENDROOT
BRANCH   3  12
HETATM   12  N   UNL     1     -44.371  56.149 -53.241  1.00  0.00    -0.262 NA
HETATM   13  H   UNL     1     -44.930  55.304 -53.320  1.00  0.00     0.130 HD
BRANCH  12  14
HETATM   14  C   UNL     1     -43.949  56.639 -54.563  1.00  0.00     0.100 C 
BRANCH  14  15
HETATM   15  C   UNL     1     -43.717  55.453 -55.508  1.00  0.00     0.053 C 
BRANCH  15  16
HETATM   16  C   UNL     1     -42.422  54.742 -55.207  1.00  0.00    -0.054 A 
HETATM   17  C   UNL     1     -42.418  53.370 -54.902  1.00  0.00     0.044 A 
HETATM   18  C   UNL     1     -41.221  52.713 -54.603  1.00  0.00     0.068 A 
HETATM   19  C   UNL     1     -40.027  53.435 -54.603  1.00  0.00     0.037 A 
HETATM   20  C   UNL     1     -40.020  54.797 -54.901  1.00  0.00     0.003 A 
HETATM   21  C   UNL     1     -41.214  55.451 -55.202  1.00  0.00     0.007 A 
BRANCH  18  22
HETATM   22  O   UNL     1     -41.086  51.389 -54.291  1.00  0.00    -0.356 OA
HETATM   23  C   UNL     1     -39.783  50.926 -53.965  1.00  0.00     0.210 C 
ENDBRANCH  18  22
ENDBRANCH  15  16
ENDBRANCH  14  15
ENDBRANCH  12  14
ENDBRANCH   3  12
BRANCH   1  24
HETATM   24  N   UNL     1     -41.379  58.047 -50.082  1.00  0.00    -0.273 NA
HETATM   25  H   UNL     1     -40.722  57.784 -49.350  1.00  0.00     0.129 HD
BRANCH  24  26
HETATM   26  C   UNL     1     -40.925  59.225 -50.831  1.00  0.00     0.053 C 
HETATM   27  C   UNL     1     -39.430  59.463 -50.619  1.00  0.00     0.026 C 
HETATM   28  C   UNL     1     -41.723  60.432 -50.332  1.00  0.00     0.026 C 
ENDBRANCH  24  26
ENDBRANCH   1  24
TORSDOF 7
ENDMDL
MODEL 9
REMARK VINA RESULT:      -7.6      3.360      8.146
REMARK  7 active torsions:
REMARK  status: ('A' for Active; 'I' for Inactive)
REMARK    1  A    between atoms: C_2  and  N_3 
REMARK    2  A    between atoms: N_3  and  C_4 
REMARK    3  A    between atoms: C_6  and  N_7 
REMARK    4  A    between atoms: N_7  and  C_8 
REMARK    5  A    between atoms: C_8  and  C_9 
REMARK    6  A    between atoms: C_9  and  C_10 
REMARK    7  A    between atoms: C_12  and  O_13 
ROOT
HETATM    1  C   UNL     1     -42.420  58.275 -56.269  1.00  0.00     0.119 A 
HETATM    2  N   UNL     1     -42.795  57.359 -55.356  1.00  0.00    -0.207 NA
HETATM    3  C   UNL     1     -43.204  56.155 -55.786  1.00  0.00     0.181 A 
HETATM    4  N   UNL     1     -43.213  55.826 -57.075  1.00  0.00    -0.330 N 
HETATM    5  H   UNL     1     -43.472  54.875 -57.305  1.00  0.00     0.168 HD
HETATM    6  C   UNL     1     -42.834  56.688 -58.023  1.00  0.00     0.048 A 
HETATM    7  C   UNL     1     -42.412  57.978 -57.648  1.00  0.00     0.031 A 
HETATM    8  C   UNL     1     -42.851  56.300 -59.371  1.00  0.00     0.030 A 
HETATM    9  C   UNL     1     -42.448  57.194 -60.363  1.00  0.00     0.002 A 
HETATM   10  C   UNL     1     -42.018  58.470 -60.014  1.00  0.00     0.001 A 
HETATM   11  C   UNL     1     -41.996  58.860 -58.672  1.00  0.00     0.017 A 
ENDROOT
BRANCH   3  12
HETATM   12  N   UNL     1     -43.624  55.170 -54.899  1.00  0.00    -0.262 NA
HETATM   13  H   UNL     1     -43.683  55.497 -53.938  1.00  0.00     0.130 HD
BRANCH  12  14
HETATM   14  C   UNL     1     -42.879  53.904 -54.991  1.00  0.00     0.100 C 
BRANCH  14  15
HETATM   15  C   UNL     1     -41.380  54.169 -54.804  1.00  0.00     0.053 C 
BRANCH  15  16
HETATM   16  C   UNL     1     -40.756  53.195 -53.836  1.00  0.00    -0.054 A 
HETATM   17  C   UNL     1     -40.753  53.466 -52.457  1.00  0.00     0.044 A 
HETATM   18  C   UNL     1     -40.157  52.575 -51.560  1.00  0.00     0.068 A 
HETATM   19  C   UNL     1     -39.557  51.413 -52.048  1.00  0.00     0.037 A 
HETATM   20  C   UNL     1     -39.553  51.135 -53.415  1.00  0.00     0.003 A 
HETATM   21  C   UNL     1     -40.150  52.024 -54.308  1.00  0.00     0.007 A 
BRANCH  18  22
HETATM   22  O   UNL     1     -40.087  52.725 -50.203  1.00  0.00    -0.356 OA
HETATM   23  C   UNL     1     -40.528  53.962 -49.660  1.00  0.00     0.210 C 
ENDBRANCH  18  22
ENDBRANCH  15  16
ENDBRANCH  14  15
ENDBRANCH  12  14
ENDBRANCH   3  12
BRANCH   1  24
HETATM   24  N   UNL     1     -41.968  59.521 -55.829  1.00  0.00    -0.273 NA
HETATM   25  H   UNL     1     -41.432  60.011 -56.542  1.00  0.00     0.129 HD
BRANCH  24  26
HETATM   26  C   UNL     1     -42.901  60.414 -55.131  1.00  0.00     0.053 C 
HETATM   27  C   UNL     1     -43.055  61.736 -55.883  1.00  0.00     0.026 C 
HETATM   28  C   UNL     1     -42.343  60.671 -53.730  1.00  0.00     0.026 C 
ENDBRANCH  24  26
ENDBRANCH   1  24
TORSDOF 7
ENDMDL
MODEL 10
REMARK VINA RESULT:      -7.5     13.654     15.584
REMARK  7 active torsions:
REMARK  status: ('A' for Active; 'I' for Inactive)
REMARK    1  A    between atoms: C_2  and  N_3 
REMARK    2  A    between atoms: N_3  and  C_4 
REMARK    3  A    between atoms: C_6  and  N_7 
REMARK    4  A    between atoms: N_7  and  C_8 
REMARK    5  A    between atoms: C_8  and  C_9 
REMARK    6  A    between atoms: C_9  and  C_10 
REMARK    7  A    between atoms: C_12  and  O_13 
ROOT
HETATM    1  C   UNL     1     -33.402  40.850 -53.998  1.00  0.00     0.119 A 
HETATM    2  N   UNL     1     -34.590  41.302 -54.441  1.00  0.00    -0.207 NA
HETATM    3  C   UNL     1     -35.595  41.435 -53.561  1.00  0.00     0.181 A 
HETATM    4  N   UNL     1     -35.444  41.172 -52.265  1.00  0.00    -0.330 N 
HETATM    5  H   UNL     1     -36.233  41.364 -51.662  1.00  0.00     0.168 HD
HETATM    6  C   UNL     1     -34.283  40.737 -51.767  1.00  0.00     0.048 A 
HETATM    7  C   UNL     1     -33.190  40.554 -52.635  1.00  0.00     0.031 A 
HETATM    8  C   UNL     1     -34.163  40.478 -50.393  1.00  0.00     0.030 A 
HETATM    9  C   UNL     1     -32.950  40.032 -49.868  1.00  0.00     0.002 A 
HETATM   10  C   UNL     1     -31.854  39.853 -50.706  1.00  0.00     0.001 A 
HETATM   11  C   UNL     1     -31.968  40.114 -52.074  1.00  0.00     0.017 A 
ENDROOT
BRANCH   3  12
HETATM   12  N   UNL     1     -36.853  41.879 -53.954  1.00  0.00    -0.262 NA
HETATM   13  H   UNL     1     -37.610  41.315 -53.577  1.00  0.00     0.130 HD
BRANCH  12  14
HETATM   14  C   UNL     1     -37.005  42.084 -55.403  1.00  0.00     0.100 C 
BRANCH  14  15
HETATM   15  C   UNL     1     -37.852  40.954 -56.002  1.00  0.00     0.053 C 
BRANCH  15  16
HETATM   16  C   UNL     1     -37.730  40.898 -57.504  1.00  0.00    -0.054 A 
HETATM   17  C   UNL     1     -38.101  39.737 -58.205  1.00  0.00     0.044 A 
HETATM   18  C   UNL     1     -37.970  39.675 -59.594  1.00  0.00     0.068 A 
HETATM   19  C   UNL     1     -37.460  40.778 -60.283  1.00  0.00     0.037 A 
HETATM   20  C   UNL     1     -37.088  41.933 -59.597  1.00  0.00     0.003 A 
HETATM   21  C   UNL     1     -37.221  41.995 -58.211  1.00  0.00     0.007 A 
BRANCH  18  22
HETATM   22  O   UNL     1     -38.292  38.609 -60.387  1.00  0.00    -0.356 OA
HETATM   23  C   UNL     1     -37.924  38.681 -61.757  1.00  0.00     0.210 C 
ENDBRANCH  18  22
ENDBRANCH  15  16
ENDBRANCH  14  15
ENDBRANCH  12  14
ENDBRANCH   3  12
BRANCH   1  24
HETATM   24  N   UNL     1     -32.344  40.733 -54.902  1.00  0.00    -0.273 NA
HETATM   25  H   UNL     1     -31.438  40.734 -54.438  1.00  0.00     0.129 HD
BRANCH  24  26
HETATM   26  C   UNL     1     -32.418  39.721 -55.963  1.00  0.00     0.053 C 
HETATM   27  C   UNL     1     -32.804  38.358 -55.390  1.00  0.00     0.026 C 
HETATM   28  C   UNL     1     -31.042  39.639 -56.627  1.00  0.00     0.026 C 
ENDBRANCH  24  26
ENDBRANCH   1  24
TORSDOF 7
ENDMDL
