MODEL 1
REMARK VINA RESULT:      -8.5      0.000      0.000
REMARK  7 active torsions:
REMARK  status: ('A' for Active; 'I' for Inactive)
REMARK    1  A    between atoms: C_4  and  C_5 
REMARK    2  A    between atoms: C_8  and  C_9 
REMARK    3  A    between atoms: C_9  and  C_10 
REMARK       I    between atoms: C_10  and  N_11 
REMARK    4  A    between atoms: N_11  and  N_12 
REMARK       I    between atoms: N_12  and  C_13 
REMARK    5  A    between atoms: C_13  and  C_14 
REMARK    6  A    between atoms: C_14  and  C_15 
REMARK    7  A    between atoms: C_16  and  O_17 
ROOT
HETATM    1  C   UNL     1     -43.472  56.141 -52.525  1.00  0.00     0.241 C 
HETATM    2  N   UNL     1     -43.964  54.964 -53.050  1.00  0.00    -0.267 N 
HETATM    3  O   UNL     1     -43.301  57.147 -53.218  1.00  0.00    -0.271 OA
HETATM    4  H   UNL     1     -43.874  54.067 -52.569  1.00  0.00     0.190 HD
ENDROOT
BRANCH   1   5
HETATM    5  C   UNL     1     -43.174  56.100 -51.041  1.00  0.00     0.164 C 
BRANCH   5   6
HETATM    6  C   UNL     1     -41.954  55.303 -50.711  1.00  0.00     0.051 A 
HETATM    7  C   UNL     1     -40.943  55.618 -49.823  1.00  0.00     0.079 A 
HETATM    8  S   UNL     1     -39.781  54.364 -49.775  1.00  0.00    -0.079 SA
HETATM    9  C   UNL     1     -40.703  53.462 -50.920  1.00  0.00     0.108 A 
HETATM   10  N   UNL     1     -41.809  54.062 -51.320  1.00  0.00    -0.244 NA
BRANCH   9  11
HETATM   11  C   UNL     1     -40.292  52.111 -51.337  1.00  0.00     0.000 A 
HETATM   12  C   UNL     1     -40.129  51.841 -52.708  1.00  0.00     0.021 A 
HETATM   13  C   UNL     1     -39.746  50.571 -53.164  1.00  0.00    -0.061 A 
HETATM   14  C   UNL     1     -39.627  50.289 -54.632  1.00  0.00     0.048 C 
HETATM   15  C   UNL     1     -39.530  49.551 -52.231  1.00  0.00     0.007 A 
HETATM   16  C   UNL     1     -39.672  49.804 -50.869  1.00  0.00     0.001 A 
HETATM   17  C   UNL     1     -40.046  51.074 -50.425  1.00  0.00     0.014 A 
ENDBRANCH   9  11
ENDBRANCH   5   6
ENDBRANCH   1   5
BRANCH   2  18
HETATM   18  N   UNL     1     -44.159  54.899 -54.436  1.00  0.00    -0.267 N 
HETATM   19  C   UNL     1     -43.120  54.444 -55.222  1.00  0.00     0.240 C 
HETATM   20  O   UNL     1     -42.081  53.996 -54.737  1.00  0.00    -0.272 OA
HETATM   21  H   UNL     1     -44.964  55.404 -54.808  1.00  0.00     0.190 HD
BRANCH  19  22
HETATM   22  C   UNL     1     -43.386  54.510 -56.712  1.00  0.00     0.146 C 
BRANCH  22  23
HETATM   23  C   UNL     1     -43.024  55.814 -57.399  1.00  0.00    -0.016 A 
HETATM   24  C   UNL     1     -43.198  55.921 -58.795  1.00  0.00     0.074 A 
HETATM   25  C   UNL     1     -42.857  57.107 -59.454  1.00  0.00     0.037 A 
HETATM   26  C   UNL     1     -42.351  58.193 -58.737  1.00  0.00     0.003 A 
HETATM   27  C   UNL     1     -42.180  58.098 -57.361  1.00  0.00     0.001 A 
HETATM   28  C   UNL     1     -42.512  56.917 -56.695  1.00  0.00     0.010 A 
BRANCH  24  29
HETATM   29  O   UNL     1     -43.692  54.804 -59.420  1.00  0.00    -0.355 OA
HETATM   30  C   UNL     1     -44.936  54.936 -60.099  1.00  0.00     0.210 C 
ENDBRANCH  24  29
ENDBRANCH  22  23
ENDBRANCH  19  22
ENDBRANCH   2  18
TORSDOF 7
ENDMDL
MODEL 2
REMARK VINA RESULT:      -8.4      1.662      2.804
REMARK  7 active torsions:
REMARK  status: ('A' for Active; 'I' for Inactive)
REMARK    1  A    between atoms: C_4  and  C_5 
REMARK    2  A    between atoms: C_8  and  C_9 
REMARK    3  A    between atoms: C_9  and  C_10 
REMARK       I    between atoms: C_10  and  N_11 
REMARK    4  A    between atoms: N_11  and  N_12 
REMARK       I    between atoms: N_12  and  C_13 
REMARK    5  A    between atoms: C_13  and  C_14 
REMARK    6  A    between atoms: C_14  and  C_15 
REMARK    7  A    between atoms: C_16  and  O_17 
ROOT
HETATM    1  C   UNL     1     -43.863  57.303 -53.705  1.00  0.00     0.241 C 
HETATM    2  N   UNL     1     -44.254  56.351 -54.624  1.00  0.00    -0.267 N 
HETATM    3  O   UNL     1     -43.442  58.410 -54.049  1.00  0.00    -0.271 OA
HETATM    4  H   UNL     1     -44.359  55.363 -54.381  1.00  0.00     0.190 HD
ENDROOT
BRANCH   1   5
HETATM    5  C   UNL     1     -44.004  56.885 -52.257  1.00  0.00     0.164 C 
BRANCH   5   6
HETATM    6  C   UNL     1     -42.840  56.090 -51.762  1.00  0.00     0.051 A 
HETATM    7  C   UNL     1     -42.130  56.256 -50.588  1.00  0.00     0.079 A 
HETATM    8  S   UNL     1     -40.905  55.069 -50.461  1.00  0.00    -0.079 SA
HETATM    9  C   UNL     1     -41.408  54.385 -51.962  1.00  0.00     0.108 A 
HETATM   10  N   UNL     1     -42.425  55.008 -52.529  1.00  0.00    -0.244 NA
BRANCH   9  11
HETATM   11  C   UNL     1     -40.774  53.167 -52.497  1.00  0.00     0.000 A 
HETATM   12  C   UNL     1     -40.358  52.166 -51.602  1.00  0.00     0.021 A 
HETATM   13  C   UNL     1     -39.743  50.989 -52.054  1.00  0.00    -0.061 A 
HETATM   14  C   UNL     1     -39.259  49.956 -51.081  1.00  0.00     0.048 C 
HETATM   15  C   UNL     1     -39.535  50.816 -53.426  1.00  0.00     0.007 A 
HETATM   16  C   UNL     1     -39.955  51.790 -54.329  1.00  0.00     0.001 A 
HETATM   17  C   UNL     1     -40.573  52.955 -53.869  1.00  0.00     0.014 A 
ENDBRANCH   9  11
ENDBRANCH   5   6
ENDBRANCH   1   5
BRANCH   2  18
HETATM   18  N   UNL     1     -44.048  56.630 -55.981  1.00  0.00    -0.267 N 
HETATM   19  C   UNL     1     -42.977  56.035 -56.617  1.00  0.00     0.240 C 
HETATM   20  O   UNL     1     -42.274  55.191 -56.061  1.00  0.00    -0.272 OA
HETATM   21  H   UNL     1     -44.555  57.428 -56.364  1.00  0.00     0.190 HD
BRANCH  19  22
HETATM   22  C   UNL     1     -42.775  56.479 -58.051  1.00  0.00     0.146 C 
BRANCH  22  23
HETATM   23  C   UNL     1     -43.910  56.179 -59.011  1.00  0.00    -0.016 A 
HETATM   24  C   UNL     1     -44.871  57.181 -59.266  1.00  0.00     0.074 A 
HETATM   25  C   UNL     1     -45.937  56.923 -60.135  1.00  0.00     0.037 A 
HETATM   26  C   UNL     1     -46.054  55.681 -60.760  1.00  0.00     0.003 A 
HETATM   27  C   UNL     1     -45.110  54.689 -60.518  1.00  0.00     0.001 A 
HETATM   28  C   UNL     1     -44.047  54.934 -59.648  1.00  0.00     0.010 A 
BRANCH  24  29
HETATM   29  O   UNL     1     -44.684  58.368 -58.603  1.00  0.00    -0.355 OA
HETATM   30  C   UNL     1     -45.832  58.974 -58.021  1.00  0.00     0.210 C 
ENDBRANCH  24  29
ENDBRANCH  22  23
ENDBRANCH  19  22
ENDBRANCH   2  18
TORSDOF 7
ENDMDL
MODEL 3
REMARK VINA RESULT:      -8.1      3.063      8.315
REMARK  7 active torsions:
REMARK  status: ('A' for Active; 'I' for Inactive)
REMARK    1  A    between atoms: C_4  and  C_5 
REMARK    2  A    between atoms: C_8  and  C_9 
REMARK    3  A    between atoms: C_9  and  C_10 
REMARK       I    between atoms: C_10  and  N_11 
REMARK    4  A    between atoms: N_11  and  N_12 
REMARK       I    between atoms: N_12  and  C_13 
REMARK    5  A    between atoms: C_13  and  C_14 
REMARK    6  A    between atoms: C_14  and  C_15 
REMARK    7  A    between atoms: C_16  and  O_17 
ROOT
HETATM    1  C   UNL     1     -41.701  59.123 -54.563  1.00  0.00     0.241 C 
HETATM    2  N   UNL     1     -42.049  57.789 -54.608  1.00  0.00    -0.267 N 
HETATM    3  O   UNL     1     -40.821  59.545 -53.809  1.00  0.00    -0.271 OA
HETATM    4  H   UNL     1     -42.924  57.462 -55.022  1.00  0.00     0.190 HD
ENDROOT
BRANCH   1   5
HETATM    5  C   UNL     1     -42.472  60.014 -55.514  1.00  0.00     0.164 C 
BRANCH   5   6
HETATM    6  C   UNL     1     -42.484  59.501 -56.917  1.00  0.00     0.051 A 
HETATM    7  C   UNL     1     -41.702  59.907 -57.981  1.00  0.00     0.079 A 
HETATM    8  S   UNL     1     -42.071  58.989 -59.376  1.00  0.00    -0.079 SA
HETATM    9  C   UNL     1     -43.231  58.084 -58.476  1.00  0.00     0.108 A 
HETATM   10  N   UNL     1     -43.343  58.449 -57.212  1.00  0.00    -0.244 NA
BRANCH   9  11
HETATM   11  C   UNL     1     -43.965  56.961 -59.086  1.00  0.00     0.000 A 
HETATM   12  C   UNL     1     -45.217  57.207 -59.678  1.00  0.00     0.021 A 
HETATM   13  C   UNL     1     -45.963  56.176 -60.267  1.00  0.00    -0.061 A 
HETATM   14  C   UNL     1     -47.319  56.448 -60.848  1.00  0.00     0.048 C 
HETATM   15  C   UNL     1     -45.450  54.875 -60.256  1.00  0.00     0.007 A 
HETATM   16  C   UNL     1     -44.205  54.615 -59.688  1.00  0.00     0.001 A 
HETATM   17  C   UNL     1     -43.467  55.650 -59.110  1.00  0.00     0.014 A 
ENDBRANCH   9  11
ENDBRANCH   5   6
ENDBRANCH   1   5
BRANCH   2  18
HETATM   18  N   UNL     1     -41.452  56.927 -53.678  1.00  0.00    -0.267 N 
HETATM   19  C   UNL     1     -42.229  55.936 -53.112  1.00  0.00     0.240 C 
HETATM   20  O   UNL     1     -43.384  55.722 -53.479  1.00  0.00    -0.272 OA
HETATM   21  H   UNL     1     -40.551  57.218 -53.300  1.00  0.00     0.190 HD
BRANCH  19  22
HETATM   22  C   UNL     1     -41.527  55.124 -52.043  1.00  0.00     0.146 C 
BRANCH  22  23
HETATM   23  C   UNL     1     -40.910  53.814 -52.496  1.00  0.00    -0.016 A 
HETATM   24  C   UNL     1     -40.055  53.121 -51.612  1.00  0.00     0.074 A 
HETATM   25  C   UNL     1     -39.460  51.919 -52.012  1.00  0.00     0.037 A 
HETATM   26  C   UNL     1     -39.714  51.394 -53.280  1.00  0.00     0.003 A 
HETATM   27  C   UNL     1     -40.558  52.067 -54.155  1.00  0.00     0.001 A 
HETATM   28  C   UNL     1     -41.151  53.270 -53.768  1.00  0.00     0.010 A 
BRANCH  24  29
HETATM   29  O   UNL     1     -39.854  53.714 -50.391  1.00  0.00    -0.355 OA
HETATM   30  C   UNL     1     -40.422  53.069 -49.256  1.00  0.00     0.210 C 
ENDBRANCH  24  29
ENDBRANCH  22  23
ENDBRANCH  19  22
ENDBRANCH   2  18
TORSDOF 7
ENDMDL
MODEL 4
REMARK VINA RESULT:      -8.0      3.837      5.429
REMARK  7 active torsions:
REMARK  status: ('A' for Active; 'I' for Inactive)
REMARK    1  A    between atoms: C_4  and  C_5 
REMARK    2  A    between atoms: C_8  and  C_9 
REMARK    3  A    between atoms: C_9  and  C_10 
REMARK       I    between atoms: C_10  and  N_11 
REMARK    4  A    between atoms: N_11  and  N_12 
REMARK       I    between atoms: N_12  and  C_13 
REMARK    5  A    between atoms: C_13  and  C_14 
REMARK    6  A    between atoms: C_14  and  C_15 
REMARK    7  A    between atoms: C_16  and  O_17 
ROOT
HETATM    1  C   UNL     1     -43.243  57.014 -58.098  1.00  0.00     0.241 C 
HETATM    2  N   UNL     1     -42.121  57.706 -58.508  1.00  0.00    -0.267 N 
HETATM    3  O   UNL     1     -44.375  57.497 -58.178  1.00  0.00    -0.271 OA
HETATM    4  H   UNL     1     -41.177  57.440 -58.222  1.00  0.00     0.190 HD
ENDROOT
BRANCH   1   5
HETATM    5  C   UNL     1     -42.973  55.625 -57.560  1.00  0.00     0.164 C 
BRANCH   5   6
HETATM    6  C   UNL     1     -42.469  55.630 -56.154  1.00  0.00     0.051 A 
HETATM    7  C   UNL     1     -42.603  56.622 -55.202  1.00  0.00     0.079 A 
HETATM    8  S   UNL     1     -41.879  56.138 -53.730  1.00  0.00    -0.079 SA
HETATM    9  C   UNL     1     -41.452  54.624 -54.436  1.00  0.00     0.108 A 
HETATM   10  N   UNL     1     -41.821  54.489 -55.697  1.00  0.00    -0.244 NA
BRANCH   9  11
HETATM   11  C   UNL     1     -40.793  53.570 -53.645  1.00  0.00     0.000 A 
HETATM   12  C   UNL     1     -40.449  52.360 -54.273  1.00  0.00     0.021 A 
HETATM   13  C   UNL     1     -39.826  51.320 -53.569  1.00  0.00    -0.061 A 
HETATM   14  C   UNL     1     -39.513  50.018 -54.243  1.00  0.00     0.048 C 
HETATM   15  C   UNL     1     -39.550  51.491 -52.208  1.00  0.00     0.007 A 
HETATM   16  C   UNL     1     -39.870  52.688 -51.572  1.00  0.00     0.001 A 
HETATM   17  C   UNL     1     -40.483  53.721 -52.285  1.00  0.00     0.014 A 
ENDBRANCH   9  11
ENDBRANCH   5   6
ENDBRANCH   1   5
BRANCH   2  18
HETATM   18  N   UNL     1     -42.287  59.036 -58.914  1.00  0.00    -0.267 N 
HETATM   19  C   UNL     1     -41.981  60.038 -58.016  1.00  0.00     0.240 C 
HETATM   20  O   UNL     1     -41.469  59.801 -56.922  1.00  0.00    -0.272 OA
HETATM   21  H   UNL     1     -42.838  59.190 -59.759  1.00  0.00     0.190 HD
BRANCH  19  22
HETATM   22  C   UNL     1     -42.292  61.437 -58.507  1.00  0.00     0.146 C 
BRANCH  22  23
HETATM   23  C   UNL     1     -41.232  62.094 -59.371  1.00  0.00    -0.016 A 
HETATM   24  C   UNL     1     -41.331  61.983 -60.774  1.00  0.00     0.074 A 
HETATM   25  C   UNL     1     -40.357  62.566 -61.592  1.00  0.00     0.037 A 
HETATM   26  C   UNL     1     -39.288  63.265 -61.030  1.00  0.00     0.003 A 
HETATM   27  C   UNL     1     -39.185  63.383 -59.648  1.00  0.00     0.001 A 
HETATM   28  C   UNL     1     -40.148  62.800 -58.823  1.00  0.00     0.010 A 
BRANCH  24  29
HETATM   29  O   UNL     1     -42.407  61.271 -61.241  1.00  0.00    -0.355 OA
HETATM   30  C   UNL     1     -42.650  61.306 -62.643  1.00  0.00     0.210 C 
ENDBRANCH  24  29
ENDBRANCH  22  23
ENDBRANCH  19  22
ENDBRANCH   2  18
TORSDOF 7
ENDMDL
MODEL 5
REMARK VINA RESULT:      -7.8      2.205      2.839
REMARK  7 active torsions:
REMARK  status: ('A' for Active; 'I' for Inactive)
REMARK    1  A    between atoms: C_4  and  C_5 
REMARK    2  A    between atoms: C_8  and  C_9 
REMARK    3  A    between atoms: C_9  and  C_10 
REMARK       I    between atoms: C_10  and  N_11 
REMARK    4  A    between atoms: N_11  and  N_12 
REMARK       I    between atoms: N_12  and  C_13 
REMARK    5  A    between atoms: C_13  and  C_14 
REMARK    6  A    between atoms: C_14  and  C_15 
REMARK    7  A    between atoms: C_16  and  O_17 
ROOT
HETATM    1  C   UNL     1     -42.051  58.746 -54.884  1.00  0.00     0.241 C 
HETATM    2  N   UNL     1     -42.838  57.625 -55.055  1.00  0.00    -0.267 N 
HETATM    3  O   UNL     1     -41.772  59.499 -55.819  1.00  0.00    -0.271 OA
HETATM    4  H   UNL     1     -42.870  56.866 -54.371  1.00  0.00     0.190 HD
ENDROOT
BRANCH   1   5
HETATM    5  C   UNL     1     -41.575  58.978 -53.466  1.00  0.00     0.164 C 
BRANCH   5   6
HETATM    6  C   UNL     1     -41.834  57.816 -52.563  1.00  0.00     0.051 A 
HETATM    7  C   UNL     1     -42.773  57.710 -51.555  1.00  0.00     0.079 A 
HETATM    8  S   UNL     1     -42.697  56.163 -50.831  1.00  0.00    -0.079 SA
HETATM    9  C   UNL     1     -41.436  55.713 -51.918  1.00  0.00     0.108 A 
HETATM   10  N   UNL     1     -41.087  56.662 -52.768  1.00  0.00    -0.244 NA
BRANCH   9  11
HETATM   11  C   UNL     1     -40.871  54.352 -51.913  1.00  0.00     0.000 A 
HETATM   12  C   UNL     1     -40.762  53.655 -53.128  1.00  0.00     0.021 A 
HETATM   13  C   UNL     1     -40.239  52.354 -53.183  1.00  0.00    -0.061 A 
HETATM   14  C   UNL     1     -40.178  51.607 -54.482  1.00  0.00     0.048 C 
HETATM   15  C   UNL     1     -39.824  51.739 -51.997  1.00  0.00     0.007 A 
HETATM   16  C   UNL     1     -39.910  52.420 -50.785  1.00  0.00     0.001 A 
HETATM   17  C   UNL     1     -40.427  53.718 -50.743  1.00  0.00     0.014 A 
ENDBRANCH   9  11
ENDBRANCH   5   6
ENDBRANCH   1   5
BRANCH   2  18
HETATM   18  N   UNL     1     -43.222  57.291 -56.360  1.00  0.00    -0.267 N 
HETATM   19  C   UNL     1     -42.787  56.090 -56.883  1.00  0.00     0.240 C 
HETATM   20  O   UNL     1     -42.172  55.266 -56.205  1.00  0.00    -0.272 OA
HETATM   21  H   UNL     1     -43.604  58.046 -56.930  1.00  0.00     0.190 HD
BRANCH  19  22
HETATM   22  C   UNL     1     -43.164  55.865 -58.333  1.00  0.00     0.146 C 
BRANCH  22  23
HETATM   23  C   UNL     1     -43.133  57.089 -59.229  1.00  0.00    -0.016 A 
HETATM   24  C   UNL     1     -44.337  57.781 -59.480  1.00  0.00     0.074 A 
HETATM   25  C   UNL     1     -44.337  58.903 -60.316  1.00  0.00     0.037 A 
HETATM   26  C   UNL     1     -43.151  59.349 -60.901  1.00  0.00     0.003 A 
HETATM   27  C   UNL     1     -41.960  58.675 -60.657  1.00  0.00     0.001 A 
HETATM   28  C   UNL     1     -41.950  57.551 -59.829  1.00  0.00     0.010 A 
BRANCH  24  29
HETATM   29  O   UNL     1     -45.455  57.270 -58.872  1.00  0.00    -0.355 OA
HETATM   30  C   UNL     1     -46.462  56.725 -59.717  1.00  0.00     0.210 C 
ENDBRANCH  24  29
ENDBRANCH  22  23
ENDBRANCH  19  22
ENDBRANCH   2  18
TORSDOF 7
ENDMDL
MODEL 6
REMARK VINA RESULT:      -7.7      3.238      7.920
REMARK  7 active torsions:
REMARK  status: ('A' for Active; 'I' for Inactive)
REMARK    1  A    between atoms: C_4  and  C_5 
REMARK    2  A    between atoms: C_8  and  C_9 
REMARK    3  A    between atoms: C_9  and  C_10 
REMARK       I    between atoms: C_10  and  N_11 
REMARK    4  A    between atoms: N_11  and  N_12 
REMARK       I    between atoms: N_12  and  C_13 
REMARK    5  A    between atoms: C_13  and  C_14 
REMARK    6  A    between atoms: C_14  and  C_15 
REMARK    7  A    between atoms: C_16  and  O_17 
ROOT
HETATM    1  C   UNL     1     -42.848  56.510 -57.543  1.00  0.00     0.241 C 
HETATM    2  N   UNL     1     -42.000  56.337 -56.468  1.00  0.00    -0.267 N 
HETATM    3  O   UNL     1     -43.451  55.567 -58.060  1.00  0.00    -0.271 OA
HETATM    4  H   UNL     1     -41.310  57.040 -56.193  1.00  0.00     0.190 HD
ENDROOT
BRANCH   1   5
HETATM    5  C   UNL     1     -42.984  57.940 -58.021  1.00  0.00     0.164 C 
BRANCH   5   6
HETATM    6  C   UNL     1     -43.840  58.777 -57.128  1.00  0.00     0.051 A 
HETATM    7  C   UNL     1     -44.662  59.832 -57.476  1.00  0.00     0.079 A 
HETATM    8  S   UNL     1     -45.461  60.446 -56.094  1.00  0.00    -0.079 SA
HETATM    9  C   UNL     1     -44.686  59.257 -55.115  1.00  0.00     0.108 A 
HETATM   10  N   UNL     1     -43.875  58.452 -55.777  1.00  0.00    -0.244 NA
BRANCH   9  11
HETATM   11  C   UNL     1     -44.985  59.137 -53.677  1.00  0.00     0.000 A 
HETATM   12  C   UNL     1     -44.512  58.016 -52.973  1.00  0.00     0.021 A 
HETATM   13  C   UNL     1     -44.772  57.846 -51.605  1.00  0.00    -0.061 A 
HETATM   14  C   UNL     1     -44.303  56.618 -50.884  1.00  0.00     0.048 C 
HETATM   15  C   UNL     1     -45.525  58.813 -50.932  1.00  0.00     0.007 A 
HETATM   16  C   UNL     1     -45.989  59.939 -51.609  1.00  0.00     0.001 A 
HETATM   17  C   UNL     1     -45.719  60.102 -52.970  1.00  0.00     0.014 A 
ENDBRANCH   9  11
ENDBRANCH   5   6
ENDBRANCH   1   5
BRANCH   2  18
HETATM   18  N   UNL     1     -41.743  55.027 -56.043  1.00  0.00    -0.267 N 
HETATM   19  C   UNL     1     -40.832  54.836 -55.025  1.00  0.00     0.240 C 
HETATM   20  O   UNL     1     -40.328  55.778 -54.413  1.00  0.00    -0.272 OA
HETATM   21  H   UNL     1     -42.064  54.278 -56.657  1.00  0.00     0.190 HD
BRANCH  19  22
HETATM   22  C   UNL     1     -40.542  53.383 -54.708  1.00  0.00     0.146 C 
BRANCH  22  23
HETATM   23  C   UNL     1     -40.487  53.017 -53.237  1.00  0.00    -0.016 A 
HETATM   24  C   UNL     1     -39.750  51.881 -52.843  1.00  0.00     0.074 A 
HETATM   25  C   UNL     1     -39.698  51.513 -51.494  1.00  0.00     0.037 A 
HETATM   26  C   UNL     1     -40.365  52.270 -50.530  1.00  0.00     0.003 A 
HETATM   27  C   UNL     1     -41.091  53.393 -50.908  1.00  0.00     0.001 A 
HETATM   28  C   UNL     1     -41.154  53.765 -52.252  1.00  0.00     0.010 A 
BRANCH  24  29
HETATM   29  O   UNL     1     -39.132  51.191 -53.856  1.00  0.00    -0.355 OA
HETATM   30  C   UNL     1     -39.606  49.878 -54.130  1.00  0.00     0.210 C 
ENDBRANCH  24  29
ENDBRANCH  22  23
ENDBRANCH  19  22
ENDBRANCH   2  18
TORSDOF 7
ENDMDL
MODEL 7
REMARK VINA RESULT:      -7.7      2.219      3.151
REMARK  7 active torsions:
REMARK  status: ('A' for Active; 'I' for Inactive)
REMARK    1  A    between atoms: C_4  and  C_5 
REMARK    2  A    between atoms: C_8  and  C_9 
REMARK    3  A    between atoms: C_9  and  C_10 
REMARK       I    between atoms: C_10  and  N_11 
REMARK    4  A    between atoms: N_11  and  N_12 
REMARK       I    between atoms: N_12  and  C_13 
REMARK    5  A    between atoms: C_13  and  C_14 
REMARK    6  A    between atoms: C_14  and  C_15 
REMARK    7  A    between atoms: C_16  and  O_17 
ROOT
HETATM    1  C   UNL     1     -42.712  58.213 -53.321  1.00  0.00     0.241 C 
HETATM    2  N   UNL     1     -42.021  58.112 -54.512  1.00  0.00    -0.267 N 
HETATM    3  O   UNL     1     -43.944  58.241 -53.280  1.00  0.00    -0.271 OA
HETATM    4  H   UNL     1     -41.028  58.340 -54.592  1.00  0.00     0.190 HD
ENDROOT
BRANCH   1   5
HETATM    5  C   UNL     1     -41.842  58.273 -52.084  1.00  0.00     0.164 C 
BRANCH   5   6
HETATM    6  C   UNL     1     -41.548  56.926 -51.509  1.00  0.00     0.051 A 
HETATM    7  C   UNL     1     -41.673  56.512 -50.197  1.00  0.00     0.079 A 
HETATM    8  S   UNL     1     -41.244  54.864 -50.048  1.00  0.00    -0.079 SA
HETATM    9  C   UNL     1     -40.941  54.788 -51.744  1.00  0.00     0.108 A 
HETATM   10  N   UNL     1     -41.141  55.926 -52.384  1.00  0.00    -0.244 NA
BRANCH   9  11
HETATM   11  C   UNL     1     -40.558  53.523 -52.397  1.00  0.00     0.000 A 
HETATM   12  C   UNL     1     -40.176  52.432 -51.597  1.00  0.00     0.021 A 
HETATM   13  C   UNL     1     -39.796  51.206 -52.162  1.00  0.00    -0.061 A 
HETATM   14  C   UNL     1     -39.342  50.070 -51.295  1.00  0.00     0.048 C 
HETATM   15  C   UNL     1     -39.790  51.074 -53.555  1.00  0.00     0.007 A 
HETATM   16  C   UNL     1     -40.180  52.139 -54.363  1.00  0.00     0.001 A 
HETATM   17  C   UNL     1     -40.564  53.354 -53.789  1.00  0.00     0.014 A 
ENDBRANCH   9  11
ENDBRANCH   5   6
ENDBRANCH   1   5
BRANCH   2  18
HETATM   18  N   UNL     1     -42.759  58.162 -55.702  1.00  0.00    -0.267 N 
HETATM   19  C   UNL     1     -42.523  59.203 -56.576  1.00  0.00     0.240 C 
HETATM   20  O   UNL     1     -41.616  60.016 -56.394  1.00  0.00    -0.272 OA
HETATM   21  H   UNL     1     -43.586  57.565 -55.751  1.00  0.00     0.190 HD
BRANCH  19  22
HETATM   22  C   UNL     1     -43.441  59.230 -57.780  1.00  0.00     0.146 C 
BRANCH  22  23
HETATM   23  C   UNL     1     -43.519  57.951 -58.591  1.00  0.00    -0.016 A 
HETATM   24  C   UNL     1     -44.776  57.340 -58.784  1.00  0.00     0.074 A 
HETATM   25  C   UNL     1     -44.872  56.150 -59.515  1.00  0.00     0.037 A 
HETATM   26  C   UNL     1     -43.730  55.565 -60.063  1.00  0.00     0.003 A 
HETATM   27  C   UNL     1     -42.488  56.161 -59.881  1.00  0.00     0.001 A 
HETATM   28  C   UNL     1     -42.381  57.344 -59.149  1.00  0.00     0.010 A 
BRANCH  24  29
HETATM   29  O   UNL     1     -45.843  57.979 -58.204  1.00  0.00    -0.355 OA
HETATM   30  C   UNL     1     -47.016  58.134 -58.995  1.00  0.00     0.210 C 
ENDBRANCH  24  29
ENDBRANCH  22  23
ENDBRANCH  19  22
ENDBRANCH   2  18
TORSDOF 7
ENDMDL
MODEL 8
REMARK VINA RESULT:      -7.4     14.712     17.155
REMARK  7 active torsions:
REMARK  status: ('A' for Active; 'I' for Inactive)
REMARK    1  A    between atoms: C_4  and  C_5 
REMARK    2  A    between atoms: C_8  and  C_9 
REMARK    3  A    between atoms: C_9  and  C_10 
REMARK       I    between atoms: C_10  and  N_11 
REMARK    4  A    between atoms: N_11  and  N_12 
REMARK       I    between atoms: N_12  and  C_13 
REMARK    5  A    between atoms: C_13  and  C_14 
REMARK    6  A    between atoms: C_14  and  C_15 
REMARK    7  A    between atoms: C_16  and  O_17 
ROOT
HETATM    1  C   UNL     1     -32.914  40.703 -52.120  1.00  0.00     0.241 C 
HETATM    2  N   UNL     1     -33.115  40.542 -53.476  1.00  0.00    -0.267 N 
HETATM    3  O   UNL     1     -33.649  41.412 -51.429  1.00  0.00    -0.271 OA
HETATM    4  H   UNL     1     -32.392  40.179 -54.100  1.00  0.00     0.190 HD
ENDROOT
BRANCH   1   5
HETATM    5  C   UNL     1     -31.737  39.936 -51.557  1.00  0.00     0.164 C 
BRANCH   5   6
HETATM    6  C   UNL     1     -32.030  39.297 -50.239  1.00  0.00     0.051 A 
HETATM    7  C   UNL     1     -32.837  38.206 -49.980  1.00  0.00     0.079 A 
HETATM    8  S   UNL     1     -32.823  37.838 -48.310  1.00  0.00    -0.079 SA
HETATM    9  C   UNL     1     -31.723  39.137 -48.031  1.00  0.00     0.108 A 
HETATM   10  N   UNL     1     -31.390  39.809 -49.117  1.00  0.00    -0.244 NA
BRANCH   9  11
HETATM   11  C   UNL     1     -31.172  39.396 -46.689  1.00  0.00     0.000 A 
HETATM   12  C   UNL     1     -31.623  38.622 -45.606  1.00  0.00     0.021 A 
HETATM   13  C   UNL     1     -31.139  38.829 -44.306  1.00  0.00    -0.061 A 
HETATM   14  C   UNL     1     -31.669  38.028 -43.154  1.00  0.00     0.048 C 
HETATM   15  C   UNL     1     -30.192  39.835 -44.086  1.00  0.00     0.007 A 
HETATM   16  C   UNL     1     -29.723  40.602 -45.150  1.00  0.00     0.001 A 
HETATM   17  C   UNL     1     -30.206  40.383 -46.442  1.00  0.00     0.014 A 
ENDBRANCH   9  11
ENDBRANCH   5   6
ENDBRANCH   1   5
BRANCH   2  18
HETATM   18  N   UNL     1     -34.120  41.308 -54.082  1.00  0.00    -0.267 N 
HETATM   19  C   UNL     1     -34.105  41.438 -55.456  1.00  0.00     0.240 C 
HETATM   20  O   UNL     1     -33.309  40.818 -56.163  1.00  0.00    -0.272 OA
HETATM   21  H   UNL     1     -34.666  41.912 -53.468  1.00  0.00     0.190 HD
BRANCH  19  22
HETATM   22  C   UNL     1     -35.164  42.368 -56.009  1.00  0.00     0.146 C 
BRANCH  22  23
HETATM   23  C   UNL     1     -36.258  41.720 -56.837  1.00  0.00    -0.016 A 
HETATM   24  C   UNL     1     -37.159  40.837 -56.205  1.00  0.00     0.074 A 
HETATM   25  C   UNL     1     -38.166  40.214 -56.950  1.00  0.00     0.037 A 
HETATM   26  C   UNL     1     -38.292  40.465 -58.317  1.00  0.00     0.003 A 
HETATM   27  C   UNL     1     -37.411  41.337 -58.947  1.00  0.00     0.001 A 
HETATM   28  C   UNL     1     -36.399  41.959 -58.214  1.00  0.00     0.010 A 
BRANCH  24  29
HETATM   29  O   UNL     1     -36.958  40.641 -54.862  1.00  0.00    -0.355 OA
HETATM   30  C   UNL     1     -38.006  41.036 -53.984  1.00  0.00     0.210 C 
ENDBRANCH  24  29
ENDBRANCH  22  23
ENDBRANCH  19  22
ENDBRANCH   2  18
TORSDOF 7
ENDMDL
MODEL 9
REMARK VINA RESULT:      -7.4      3.963      5.037
REMARK  7 active torsions:
REMARK  status: ('A' for Active; 'I' for Inactive)
REMARK    1  A    between atoms: C_4  and  C_5 
REMARK    2  A    between atoms: C_8  and  C_9 
REMARK    3  A    between atoms: C_9  and  C_10 
REMARK       I    between atoms: C_10  and  N_11 
REMARK    4  A    between atoms: N_11  and  N_12 
REMARK       I    between atoms: N_12  and  C_13 
REMARK    5  A    between atoms: C_13  and  C_14 
REMARK    6  A    between atoms: C_14  and  C_15 
REMARK    7  A    between atoms: C_16  and  O_17 
ROOT
HETATM    1  C   UNL     1     -42.785  59.076 -54.315  1.00  0.00     0.241 C 
HETATM    2  N   UNL     1     -41.801  59.869 -54.869  1.00  0.00    -0.267 N 
HETATM    3  O   UNL     1     -43.974  59.198 -54.620  1.00  0.00    -0.271 OA
HETATM    4  H   UNL     1     -40.871  59.960 -54.455  1.00  0.00     0.190 HD
ENDROOT
BRANCH   1   5
HETATM    5  C   UNL     1     -42.289  58.048 -53.321  1.00  0.00     0.164 C 
BRANCH   5   6
HETATM    6  C   UNL     1     -42.006  56.720 -53.944  1.00  0.00     0.051 A 
HETATM    7  C   UNL     1     -42.147  56.350 -55.268  1.00  0.00     0.079 A 
HETATM    8  S   UNL     1     -41.662  54.725 -55.488  1.00  0.00    -0.079 SA
HETATM    9  C   UNL     1     -41.267  54.614 -53.813  1.00  0.00     0.108 A 
HETATM   10  N   UNL     1     -41.490  55.721 -53.128  1.00  0.00    -0.244 NA
BRANCH   9  11
HETATM   11  C   UNL     1     -40.670  53.391 -53.248  1.00  0.00     0.000 A 
HETATM   12  C   UNL     1     -40.413  52.302 -54.099  1.00  0.00     0.021 A 
HETATM   13  C   UNL     1     -39.853  51.111 -53.616  1.00  0.00    -0.061 A 
HETATM   14  C   UNL     1     -39.634  49.942 -54.530  1.00  0.00     0.048 C 
HETATM   15  C   UNL     1     -39.551  51.006 -52.254  1.00  0.00     0.007 A 
HETATM   16  C   UNL     1     -39.784  52.080 -51.398  1.00  0.00     0.001 A 
HETATM   17  C   UNL     1     -40.336  53.265 -51.892  1.00  0.00     0.014 A 
ENDBRANCH   9  11
ENDBRANCH   5   6
ENDBRANCH   1   5
BRANCH   2  18
HETATM   18  N   UNL     1     -42.202  60.912 -55.714  1.00  0.00    -0.267 N 
HETATM   19  C   UNL     1     -41.917  60.810 -57.060  1.00  0.00     0.240 C 
HETATM   20  O   UNL     1     -41.427  59.792 -57.550  1.00  0.00    -0.272 OA
HETATM   21  H   UNL     1     -42.471  61.787 -55.262  1.00  0.00     0.190 HD
BRANCH  19  22
HETATM   22  C   UNL     1     -42.293  62.031 -57.874  1.00  0.00     0.146 C 
BRANCH  22  23
HETATM   23  C   UNL     1     -41.364  62.383 -59.021  1.00  0.00    -0.016 A 
HETATM   24  C   UNL     1     -41.734  62.023 -60.334  1.00  0.00     0.074 A 
HETATM   25  C   UNL     1     -40.886  62.321 -61.407  1.00  0.00     0.037 A 
HETATM   26  C   UNL     1     -39.676  62.982 -61.188  1.00  0.00     0.003 A 
HETATM   27  C   UNL     1     -39.305  63.343 -59.898  1.00  0.00     0.001 A 
HETATM   28  C   UNL     1     -40.141  63.045 -58.821  1.00  0.00     0.010 A 
BRANCH  24  29
HETATM   29  O   UNL     1     -42.935  61.370 -60.456  1.00  0.00    -0.355 OA
HETATM   30  C   UNL     1     -43.556  61.389 -61.736  1.00  0.00     0.210 C 
ENDBRANCH  24  29
ENDBRANCH  22  23
ENDBRANCH  19  22
ENDBRANCH   2  18
TORSDOF 7
ENDMDL
MODEL 10
REMARK VINA RESULT:      -7.3      2.169      3.408
REMARK  7 active torsions:
REMARK  status: ('A' for Active; 'I' for Inactive)
REMARK    1  A    between atoms: C_4  and  C_5 
REMARK    2  A    between atoms: C_8  and  C_9 
REMARK    3  A    between atoms: C_9  and  C_10 
REMARK       I    between atoms: C_10  and  N_11 
REMARK    4  A    between atoms: N_11  and  N_12 
REMARK       I    between atoms: N_12  and  C_13 
REMARK    5  A    between atoms: C_13  and  C_14 
REMARK    6  A    between atoms: C_14  and  C_15 
REMARK    7  A    between atoms: C_16  and  O_17 
ROOT
HETATM    1  C   UNL     1     -44.139  57.456 -54.343  1.00  0.00     0.241 C 
HETATM    2  N   UNL     1     -45.238  57.438 -55.178  1.00  0.00    -0.267 N 
HETATM    3  O   UNL     1     -43.021  57.792 -54.740  1.00  0.00    -0.271 OA
HETATM    4  H   UNL     1     -46.095  56.932 -54.948  1.00  0.00     0.190 HD
ENDROOT
BRANCH   1   5
HETATM    5  C   UNL     1     -44.421  57.046 -52.914  1.00  0.00     0.164 C 
BRANCH   5   6
HETATM    6  C   UNL     1     -43.201  56.580 -52.187  1.00  0.00     0.051 A 
HETATM    7  C   UNL     1     -42.508  57.225 -51.181  1.00  0.00     0.079 A 
HETATM    8  S   UNL     1     -41.196  56.265 -50.650  1.00  0.00    -0.079 SA
HETATM    9  C   UNL     1     -41.641  55.033 -51.773  1.00  0.00     0.108 A 
HETATM   10  N   UNL     1     -42.701  55.323 -52.505  1.00  0.00    -0.244 NA
BRANCH   9  11
HETATM   11  C   UNL     1     -40.914  53.753 -51.831  1.00  0.00     0.000 A 
HETATM   12  C   UNL     1     -40.799  53.090 -53.065  1.00  0.00     0.021 A 
HETATM   13  C   UNL     1     -40.125  51.865 -53.178  1.00  0.00    -0.061 A 
HETATM   14  C   UNL     1     -40.057  51.147 -54.494  1.00  0.00     0.048 C 
HETATM   15  C   UNL     1     -39.564  51.290 -52.033  1.00  0.00     0.007 A 
HETATM   16  C   UNL     1     -39.655  51.940 -50.805  1.00  0.00     0.001 A 
HETATM   17  C   UNL     1     -40.322  53.163 -50.704  1.00  0.00     0.014 A 
ENDBRANCH   9  11
ENDBRANCH   5   6
ENDBRANCH   1   5
BRANCH   2  18
HETATM   18  N   UNL     1     -45.029  57.702 -56.538  1.00  0.00    -0.267 N 
HETATM   19  C   UNL     1     -45.400  58.937 -57.030  1.00  0.00     0.240 C 
HETATM   20  O   UNL     1     -45.801  59.839 -56.295  1.00  0.00    -0.272 OA
HETATM   21  H   UNL     1     -44.831  56.897 -57.134  1.00  0.00     0.190 HD
BRANCH  19  22
HETATM   22  C   UNL     1     -45.233  59.090 -58.528  1.00  0.00     0.146 C 
BRANCH  22  23
HETATM   23  C   UNL     1     -45.470  57.842 -59.358  1.00  0.00    -0.016 A 
HETATM   24  C   UNL     1     -44.368  57.216 -59.978  1.00  0.00     0.074 A 
HETATM   25  C   UNL     1     -44.563  56.073 -60.762  1.00  0.00     0.037 A 
HETATM   26  C   UNL     1     -45.842  55.542 -60.931  1.00  0.00     0.003 A 
HETATM   27  C   UNL     1     -46.933  56.150 -60.321  1.00  0.00     0.001 A 
HETATM   28  C   UNL     1     -46.750  57.293 -59.541  1.00  0.00     0.010 A 
BRANCH  24  29
HETATM   29  O   UNL     1     -43.149  57.810 -59.767  1.00  0.00    -0.355 OA
HETATM   30  C   UNL     1     -41.991  57.047 -60.086  1.00  0.00     0.210 C 
ENDBRANCH  24  29
ENDBRANCH  22  23
ENDBRANCH  19  22
ENDBRANCH   2  18
TORSDOF 7
ENDMDL
