MODEL 1
REMARK VINA RESULT:      -8.4      0.000      0.000
REMARK  11 active torsions:
REMARK  status: ('A' for Active; 'I' for Inactive)
REMARK    1  A    between atoms: C_2  and  N_3 
REMARK    2  A    between atoms: N_3  and  C_5 
REMARK    3  A    between atoms: N_3  and  C_12 
REMARK    4  A    between atoms: C_5  and  C_6 
REMARK    5  A    between atoms: C_12  and  C_13 
REMARK    6  A    between atoms: C_13  and  N_14 
REMARK       I    between atoms: N_14  and  C_15 
REMARK    7  A    between atoms: C_15  and  C_16 
REMARK    8  A    between atoms: C_24  and  N_25 
REMARK    9  A    between atoms: N_25  and  C_26 
REMARK   10  A    between atoms: C_27  and  O_28 
REMARK   11  A    between atoms: C_31  and  O_32 
ROOT
HETATM    1  C   UNL     1     -42.684  55.379 -53.097  1.00  0.00     0.048 A 
HETATM    2  C   UNL     1     -41.751  54.331 -53.077  1.00  0.00     0.009 A 
HETATM    3  C   UNL     1     -41.500  53.719 -54.318  1.00  0.00     0.070 A 
HETATM    4  C   UNL     1     -40.600  52.664 -54.369  1.00  0.00     0.032 A 
HETATM    5  C   UNL     1     -39.944  52.197 -53.227  1.00  0.00     0.002 A 
HETATM    6  C   UNL     1     -40.182  52.799 -52.000  1.00  0.00     0.001 A 
HETATM    7  C   UNL     1     -41.078  53.864 -51.920  1.00  0.00     0.015 A 
HETATM    8  N   UNL     1     -42.097  54.112 -55.456  1.00  0.00    -0.231 NA
HETATM    9  C   UNL     1     -42.994  55.117 -55.444  1.00  0.00     0.129 A 
HETATM   10  C   UNL     1     -43.320  55.771 -54.272  1.00  0.00     0.068 A 
ENDROOT
BRANCH   1  11
HETATM   11  C   UNL     1     -42.994  56.167 -51.894  1.00  0.00     0.252 C 
HETATM   12  N   UNL     1     -44.302  56.558 -51.763  1.00  0.00    -0.355 N 
HETATM   13  H   UNL     1     -44.938  56.271 -52.504  1.00  0.00     0.162 HD
HETATM   14  O   UNL     1     -42.100  56.472 -51.115  1.00  0.00    -0.268 OA
BRANCH  12  15
HETATM   15  C   UNL     1     -44.801  57.576 -50.843  1.00  0.00     0.150 C 
BRANCH  15  16
HETATM   16  C   UNL     1     -45.336  58.902 -51.432  1.00  0.00     0.255 C 
BRANCH  16  17
HETATM   17  N   UNL     1     -44.553  59.449 -52.619  1.00  0.00    -0.062 N 
HETATM   18  H   UNL     1     -43.974  58.634 -52.912  1.00  0.00     0.280 HD
BRANCH  17  19
HETATM   19  C   UNL     1     -45.366  59.789 -53.860  1.00  0.00     0.180 C 
HETATM   20  C   UNL     1     -44.882  58.986 -55.068  1.00  0.00     0.039 C 
HETATM   21  C   UNL     1     -45.365  61.287 -54.137  1.00  0.00     0.039 C 
ENDBRANCH  17  19
BRANCH  17  22
HETATM   22  C   UNL     1     -43.554  60.508 -52.197  1.00  0.00     0.273 C 
BRANCH  22  23
HETATM   23  C   UNL     1     -42.170  59.980 -51.923  1.00  0.00    -0.033 A 
HETATM   24  C   UNL     1     -41.613  60.074 -50.638  1.00  0.00     0.009 A 
HETATM   25  C   UNL     1     -40.330  59.588 -50.386  1.00  0.00     0.001 A 
HETATM   26  C   UNL     1     -39.590  59.004 -51.413  1.00  0.00     0.000 A 
HETATM   27  C   UNL     1     -40.133  58.902 -52.691  1.00  0.00     0.001 A 
HETATM   28  C   UNL     1     -41.416  59.385 -52.948  1.00  0.00     0.009 A 
ENDBRANCH  22  23
ENDBRANCH  17  22
ENDBRANCH  16  17
ENDBRANCH  15  16
ENDBRANCH  12  15
ENDBRANCH   1  11
BRANCH   9  29
HETATM   29  N   UNL     1     -43.621  55.546 -56.628  1.00  0.00    -0.339 N 
HETATM   30  H   UNL     1     -44.239  54.835 -57.009  1.00  0.00     0.167 HD
BRANCH  29  31
HETATM   31  C   UNL     1     -43.048  56.296 -57.679  1.00  0.00     0.067 A 
HETATM   32  C   UNL     1     -43.241  55.886 -59.009  1.00  0.00     0.097 A 
HETATM   33  C   UNL     1     -42.808  56.660 -60.089  1.00  0.00     0.075 A 
HETATM   34  C   UNL     1     -42.127  57.851 -59.848  1.00  0.00     0.070 A 
HETATM   35  C   UNL     1     -41.886  58.247 -58.529  1.00  0.00     0.039 A 
HETATM   36  C   UNL     1     -42.345  57.480 -57.453  1.00  0.00     0.035 A 
BRANCH  32  37
HETATM   37  O   UNL     1     -43.907  54.706 -59.256  1.00  0.00    -0.354 OA
HETATM   38  C   UNL     1     -44.876  54.918 -60.287  1.00  0.00     0.210 C 
ENDBRANCH  32  37
BRANCH  34  39
HETATM   39  O   UNL     1     -41.648  58.709 -60.798  1.00  0.00    -0.356 OA
HETATM   40  C   UNL     1     -42.203  60.019 -60.820  1.00  0.00     0.210 C 
ENDBRANCH  34  39
ENDBRANCH  29  31
ENDBRANCH   9  29
TORSDOF 11
ENDMDL
MODEL 2
REMARK VINA RESULT:      -8.4      2.325      7.603
REMARK  11 active torsions:
REMARK  status: ('A' for Active; 'I' for Inactive)
REMARK    1  A    between atoms: C_2  and  N_3 
REMARK    2  A    between atoms: N_3  and  C_5 
REMARK    3  A    between atoms: N_3  and  C_12 
REMARK    4  A    between atoms: C_5  and  C_6 
REMARK    5  A    between atoms: C_12  and  C_13 
REMARK    6  A    between atoms: C_13  and  N_14 
REMARK       I    between atoms: N_14  and  C_15 
REMARK    7  A    between atoms: C_15  and  C_16 
REMARK    8  A    between atoms: C_24  and  N_25 
REMARK    9  A    between atoms: N_25  and  C_26 
REMARK   10  A    between atoms: C_27  and  O_28 
REMARK   11  A    between atoms: C_31  and  O_32 
ROOT
HETATM    1  C   UNL     1     -42.547  56.439 -55.563  1.00  0.00     0.048 A 
HETATM    2  C   UNL     1     -42.661  56.608 -56.952  1.00  0.00     0.009 A 
HETATM    3  C   UNL     1     -42.482  57.922 -57.418  1.00  0.00     0.070 A 
HETATM    4  C   UNL     1     -42.597  58.166 -58.780  1.00  0.00     0.032 A 
HETATM    5  C   UNL     1     -42.887  57.147 -59.690  1.00  0.00     0.002 A 
HETATM    6  C   UNL     1     -43.060  55.846 -59.238  1.00  0.00     0.001 A 
HETATM    7  C   UNL     1     -42.945  55.572 -57.877  1.00  0.00     0.015 A 
HETATM    8  N   UNL     1     -42.205  58.952 -56.600  1.00  0.00    -0.231 NA
HETATM    9  C   UNL     1     -42.109  58.762 -55.271  1.00  0.00     0.129 A 
HETATM   10  C   UNL     1     -42.284  57.510 -54.714  1.00  0.00     0.068 A 
ENDROOT
BRANCH   1  11
HETATM   11  C   UNL     1     -42.632  55.112 -54.933  1.00  0.00     0.252 C 
HETATM   12  N   UNL     1     -41.449  54.427 -54.834  1.00  0.00    -0.355 N 
HETATM   13  H   UNL     1     -40.622  54.892 -55.203  1.00  0.00     0.162 HD
HETATM   14  O   UNL     1     -43.718  54.670 -54.581  1.00  0.00    -0.268 OA
BRANCH  12  15
HETATM   15  C   UNL     1     -41.307  53.004 -54.534  1.00  0.00     0.150 C 
BRANCH  15  16
HETATM   16  C   UNL     1     -40.019  52.526 -53.825  1.00  0.00     0.255 C 
BRANCH  16  17
HETATM   17  N   UNL     1     -40.191  52.126 -52.365  1.00  0.00    -0.062 N 
HETATM   18  H   UNL     1     -41.206  51.898 -52.303  1.00  0.00     0.280 HD
BRANCH  17  19
HETATM   19  C   UNL     1     -39.496  50.843 -51.933  1.00  0.00     0.180 C 
HETATM   20  C   UNL     1     -39.647  49.755 -52.997  1.00  0.00     0.039 C 
HETATM   21  C   UNL     1     -39.982  50.374 -50.568  1.00  0.00     0.039 C 
ENDBRANCH  17  19
BRANCH  17  22
HETATM   22  C   UNL     1     -39.999  53.305 -51.430  1.00  0.00     0.273 C 
BRANCH  22  23
HETATM   23  C   UNL     1     -41.201  54.204 -51.311  1.00  0.00    -0.033 A 
HETATM   24  C   UNL     1     -42.485  53.659 -51.148  1.00  0.00     0.009 A 
HETATM   25  C   UNL     1     -43.599  54.493 -51.042  1.00  0.00     0.001 A 
HETATM   26  C   UNL     1     -43.443  55.877 -51.097  1.00  0.00     0.000 A 
HETATM   27  C   UNL     1     -42.174  56.429 -51.254  1.00  0.00     0.001 A 
HETATM   28  C   UNL     1     -41.057  55.600 -51.360  1.00  0.00     0.009 A 
ENDBRANCH  22  23
ENDBRANCH  17  22
ENDBRANCH  16  17
ENDBRANCH  15  16
ENDBRANCH  12  15
ENDBRANCH   1  11
BRANCH   9  29
HETATM   29  N   UNL     1     -41.811  59.827 -54.403  1.00  0.00    -0.339 N 
HETATM   30  H   UNL     1     -40.822  60.064 -54.417  1.00  0.00     0.167 HD
BRANCH  29  31
HETATM   31  C   UNL     1     -42.339  60.057 -53.113  1.00  0.00     0.067 A 
HETATM   32  C   UNL     1     -41.518  59.886 -51.986  1.00  0.00     0.097 A 
HETATM   33  C   UNL     1     -41.950  60.225 -50.701  1.00  0.00     0.075 A 
HETATM   34  C   UNL     1     -43.245  60.705 -50.518  1.00  0.00     0.070 A 
HETATM   35  C   UNL     1     -44.089  60.834 -51.625  1.00  0.00     0.039 A 
HETATM   36  C   UNL     1     -43.641  60.518 -52.912  1.00  0.00     0.035 A 
BRANCH  32  37
HETATM   37  O   UNL     1     -40.239  59.404 -52.156  1.00  0.00    -0.354 OA
HETATM   38  C   UNL     1     -39.635  59.206 -50.874  1.00  0.00     0.210 C 
ENDBRANCH  32  37
BRANCH  34  39
HETATM   39  O   UNL     1     -43.803  61.076 -49.327  1.00  0.00    -0.356 OA
HETATM   40  C   UNL     1     -45.224  61.135 -49.274  1.00  0.00     0.210 C 
ENDBRANCH  34  39
ENDBRANCH  29  31
ENDBRANCH   9  29
TORSDOF 11
ENDMDL
MODEL 3
REMARK VINA RESULT:      -8.3      1.257      2.275
REMARK  11 active torsions:
REMARK  status: ('A' for Active; 'I' for Inactive)
REMARK    1  A    between atoms: C_2  and  N_3 
REMARK    2  A    between atoms: N_3  and  C_5 
REMARK    3  A    between atoms: N_3  and  C_12 
REMARK    4  A    between atoms: C_5  and  C_6 
REMARK    5  A    between atoms: C_12  and  C_13 
REMARK    6  A    between atoms: C_13  and  N_14 
REMARK       I    between atoms: N_14  and  C_15 
REMARK    7  A    between atoms: C_15  and  C_16 
REMARK    8  A    between atoms: C_24  and  N_25 
REMARK    9  A    between atoms: N_25  and  C_26 
REMARK   10  A    between atoms: C_27  and  O_28 
REMARK   11  A    between atoms: C_31  and  O_32 
ROOT
HETATM    1  C   UNL     1     -42.059  55.451 -53.134  1.00  0.00     0.048 A 
HETATM    2  C   UNL     1     -41.315  54.260 -53.134  1.00  0.00     0.009 A 
HETATM    3  C   UNL     1     -40.812  53.860 -54.384  1.00  0.00     0.070 A 
HETATM    4  C   UNL     1     -40.079  52.684 -54.461  1.00  0.00     0.032 A 
HETATM    5  C   UNL     1     -39.835  51.893 -53.336  1.00  0.00     0.002 A 
HETATM    6  C   UNL     1     -40.323  52.283 -52.098  1.00  0.00     0.001 A 
HETATM    7  C   UNL     1     -41.058  53.462 -51.991  1.00  0.00     0.015 A 
HETATM    8  N   UNL     1     -41.012  54.570 -55.509  1.00  0.00    -0.231 NA
HETATM    9  C   UNL     1     -41.736  55.704 -55.480  1.00  0.00     0.129 A 
HETATM   10  C   UNL     1     -42.286  56.172 -54.303  1.00  0.00     0.068 A 
ENDROOT
BRANCH   1  11
HETATM   11  C   UNL     1     -42.585  56.038 -51.893  1.00  0.00     0.252 C 
HETATM   12  N   UNL     1     -43.943  56.230 -51.857  1.00  0.00    -0.355 N 
HETATM   13  H   UNL     1     -44.463  55.951 -52.686  1.00  0.00     0.162 HD
HETATM   14  O   UNL     1     -41.818  56.364 -50.996  1.00  0.00    -0.268 OA
BRANCH  12  15
HETATM   15  C   UNL     1     -44.664  57.053 -50.890  1.00  0.00     0.150 C 
BRANCH  15  16
HETATM   16  C   UNL     1     -45.197  58.430 -51.348  1.00  0.00     0.255 C 
BRANCH  16  17
HETATM   17  N   UNL     1     -44.399  59.099 -52.461  1.00  0.00    -0.062 N 
HETATM   18  H   UNL     1     -43.727  58.356 -52.745  1.00  0.00     0.280 HD
BRANCH  17  19
HETATM   19  C   UNL     1     -45.163  59.416 -53.738  1.00  0.00     0.180 C 
HETATM   20  C   UNL     1     -45.247  58.186 -54.643  1.00  0.00     0.039 C 
HETATM   21  C   UNL     1     -44.569  60.616 -54.463  1.00  0.00     0.039 C 
ENDBRANCH  17  19
BRANCH  17  22
HETATM   22  C   UNL     1     -43.534  60.228 -51.935  1.00  0.00     0.273 C 
BRANCH  22  23
HETATM   23  C   UNL     1     -42.094  59.851 -51.707  1.00  0.00    -0.033 A 
HETATM   24  C   UNL     1     -41.323  59.321 -52.754  1.00  0.00     0.009 A 
HETATM   25  C   UNL     1     -39.989  58.968 -52.541  1.00  0.00     0.001 A 
HETATM   26  C   UNL     1     -39.413  59.141 -51.284  1.00  0.00     0.000 A 
HETATM   27  C   UNL     1     -40.167  59.670 -50.240  1.00  0.00     0.001 A 
HETATM   28  C   UNL     1     -41.500  60.026 -50.447  1.00  0.00     0.009 A 
ENDBRANCH  22  23
ENDBRANCH  17  22
ENDBRANCH  16  17
ENDBRANCH  15  16
ENDBRANCH  12  15
ENDBRANCH   1  11
BRANCH   9  29
HETATM   29  N   UNL     1     -41.947  56.462 -56.646  1.00  0.00    -0.339 N 
HETATM   30  H   UNL     1     -41.776  57.452 -56.491  1.00  0.00     0.167 HD
BRANCH  29  31
HETATM   31  C   UNL     1     -42.972  56.297 -57.604  1.00  0.00     0.067 A 
HETATM   32  C   UNL     1     -43.692  57.418 -58.049  1.00  0.00     0.097 A 
HETATM   33  C   UNL     1     -44.625  57.331 -59.087  1.00  0.00     0.075 A 
HETATM   34  C   UNL     1     -44.884  56.093 -59.671  1.00  0.00     0.070 A 
HETATM   35  C   UNL     1     -44.209  54.961 -59.204  1.00  0.00     0.039 A 
HETATM   36  C   UNL     1     -43.258  55.061 -58.183  1.00  0.00     0.035 A 
BRANCH  32  37
HETATM   37  O   UNL     1     -43.448  58.644 -57.471  1.00  0.00    -0.354 OA
HETATM   38  C   UNL     1     -42.535  59.379 -58.293  1.00  0.00     0.210 C 
ENDBRANCH  32  37
BRANCH  34  39
HETATM   39  O   UNL     1     -45.763  55.855 -60.691  1.00  0.00    -0.356 OA
HETATM   40  C   UNL     1     -47.095  56.320 -60.513  1.00  0.00     0.210 C 
ENDBRANCH  34  39
ENDBRANCH  29  31
ENDBRANCH   9  29
TORSDOF 11
ENDMDL
MODEL 4
REMARK VINA RESULT:      -8.0      1.114      2.788
REMARK  11 active torsions:
REMARK  status: ('A' for Active; 'I' for Inactive)
REMARK    1  A    between atoms: C_2  and  N_3 
REMARK    2  A    between atoms: N_3  and  C_5 
REMARK    3  A    between atoms: N_3  and  C_12 
REMARK    4  A    between atoms: C_5  and  C_6 
REMARK    5  A    between atoms: C_12  and  C_13 
REMARK    6  A    between atoms: C_13  and  N_14 
REMARK       I    between atoms: N_14  and  C_15 
REMARK    7  A    between atoms: C_15  and  C_16 
REMARK    8  A    between atoms: C_24  and  N_25 
REMARK    9  A    between atoms: N_25  and  C_26 
REMARK   10  A    between atoms: C_27  and  O_28 
REMARK   11  A    between atoms: C_31  and  O_32 
ROOT
HETATM    1  C   UNL     1     -42.325  55.300 -53.021  1.00  0.00     0.048 A 
HETATM    2  C   UNL     1     -41.489  54.173 -52.976  1.00  0.00     0.009 A 
HETATM    3  C   UNL     1     -41.406  53.433 -54.168  1.00  0.00     0.070 A 
HETATM    4  C   UNL     1     -40.609  52.296 -54.192  1.00  0.00     0.032 A 
HETATM    5  C   UNL     1     -39.896  51.872 -53.068  1.00  0.00     0.002 A 
HETATM    6  C   UNL     1     -39.968  52.601 -51.889  1.00  0.00     0.001 A 
HETATM    7  C   UNL     1     -40.756  53.748 -51.839  1.00  0.00     0.015 A 
HETATM    8  N   UNL     1     -42.068  53.779 -55.286  1.00  0.00    -0.231 NA
HETATM    9  C   UNL     1     -42.869  54.861 -55.298  1.00  0.00     0.129 A 
HETATM   10  C   UNL     1     -43.029  55.644 -54.172  1.00  0.00     0.068 A 
ENDROOT
BRANCH   1  11
HETATM   11  C   UNL     1     -42.454  56.216 -51.878  1.00  0.00     0.252 C 
HETATM   12  N   UNL     1     -41.586  57.278 -51.869  1.00  0.00    -0.355 N 
HETATM   13  H   UNL     1     -40.934  57.337 -52.648  1.00  0.00     0.162 HD
HETATM   14  O   UNL     1     -43.264  55.979 -50.991  1.00  0.00    -0.268 OA
BRANCH  12  15
HETATM   15  C   UNL     1     -41.307  58.144 -50.727  1.00  0.00     0.150 C 
BRANCH  15  16
HETATM   16  C   UNL     1     -41.786  59.613 -50.782  1.00  0.00     0.255 C 
BRANCH  16  17
HETATM   17  N   UNL     1     -43.012  59.865 -51.652  1.00  0.00    -0.062 N 
HETATM   18  H   UNL     1     -43.350  58.902 -51.863  1.00  0.00     0.280 HD
BRANCH  17  19
HETATM   19  C   UNL     1     -44.196  60.530 -50.966  1.00  0.00     0.180 C 
HETATM   20  C   UNL     1     -43.736  61.371 -49.775  1.00  0.00     0.039 C 
HETATM   21  C   UNL     1     -45.258  59.513 -50.568  1.00  0.00     0.039 C 
ENDBRANCH  17  19
BRANCH  17  22
HETATM   22  C   UNL     1     -42.638  60.453 -52.999  1.00  0.00     0.273 C 
BRANCH  22  23
HETATM   23  C   UNL     1     -43.553  60.052 -54.125  1.00  0.00    -0.033 A 
HETATM   24  C   UNL     1     -43.664  60.852 -55.273  1.00  0.00     0.009 A 
HETATM   25  C   UNL     1     -44.515  60.482 -56.315  1.00  0.00     0.001 A 
HETATM   26  C   UNL     1     -45.264  59.311 -56.222  1.00  0.00     0.000 A 
HETATM   27  C   UNL     1     -45.160  58.506 -55.090  1.00  0.00     0.001 A 
HETATM   28  C   UNL     1     -44.310  58.871 -54.046  1.00  0.00     0.009 A 
ENDBRANCH  22  23
ENDBRANCH  17  22
ENDBRANCH  16  17
ENDBRANCH  15  16
ENDBRANCH  12  15
ENDBRANCH   1  11
BRANCH   9  29
HETATM   29  N   UNL     1     -43.561  55.241 -56.461  1.00  0.00    -0.339 N 
HETATM   30  H   UNL     1     -44.112  54.477 -56.842  1.00  0.00     0.167 HD
BRANCH  29  31
HETATM   31  C   UNL     1     -43.089  56.060 -57.511  1.00  0.00     0.067 A 
HETATM   32  C   UNL     1     -43.360  55.706 -58.843  1.00  0.00     0.097 A 
HETATM   33  C   UNL     1     -43.032  56.545 -59.912  1.00  0.00     0.075 A 
HETATM   34  C   UNL     1     -42.376  57.748 -59.660  1.00  0.00     0.070 A 
HETATM   35  C   UNL     1     -42.056  58.091 -58.342  1.00  0.00     0.039 A 
HETATM   36  C   UNL     1     -42.413  57.258 -57.276  1.00  0.00     0.035 A 
BRANCH  32  37
HETATM   37  O   UNL     1     -44.001  54.514 -59.102  1.00  0.00    -0.354 OA
HETATM   38  C   UNL     1     -44.884  54.685 -60.216  1.00  0.00     0.210 C 
ENDBRANCH  32  37
BRANCH  34  39
HETATM   39  O   UNL     1     -41.995  58.667 -60.597  1.00  0.00    -0.356 OA
HETATM   40  C   UNL     1     -42.042  60.036 -60.213  1.00  0.00     0.210 C 
ENDBRANCH  34  39
ENDBRANCH  29  31
ENDBRANCH   9  29
TORSDOF 11
ENDMDL
MODEL 5
REMARK VINA RESULT:      -7.8      1.958      6.354
REMARK  11 active torsions:
REMARK  status: ('A' for Active; 'I' for Inactive)
REMARK    1  A    between atoms: C_2  and  N_3 
REMARK    2  A    between atoms: N_3  and  C_5 
REMARK    3  A    between atoms: N_3  and  C_12 
REMARK    4  A    between atoms: C_5  and  C_6 
REMARK    5  A    between atoms: C_12  and  C_13 
REMARK    6  A    between atoms: C_13  and  N_14 
REMARK       I    between atoms: N_14  and  C_15 
REMARK    7  A    between atoms: C_15  and  C_16 
REMARK    8  A    between atoms: C_24  and  N_25 
REMARK    9  A    between atoms: N_25  and  C_26 
REMARK   10  A    between atoms: C_27  and  O_28 
REMARK   11  A    between atoms: C_31  and  O_32 
ROOT
HETATM    1  C   UNL     1     -42.341  54.391 -54.071  1.00  0.00     0.048 A 
HETATM    2  C   UNL     1     -41.396  53.462 -53.608  1.00  0.00     0.009 A 
HETATM    3  C   UNL     1     -41.117  53.517 -52.231  1.00  0.00     0.070 A 
HETATM    4  C   UNL     1     -40.180  52.637 -51.707  1.00  0.00     0.032 A 
HETATM    5  C   UNL     1     -39.511  51.709 -52.508  1.00  0.00     0.002 A 
HETATM    6  C   UNL     1     -39.785  51.645 -53.867  1.00  0.00     0.001 A 
HETATM    7  C   UNL     1     -40.724  52.513 -54.419  1.00  0.00     0.015 A 
HETATM    8  N   UNL     1     -41.720  54.387 -51.402  1.00  0.00    -0.231 NA
HETATM    9  C   UNL     1     -42.617  55.272 -51.875  1.00  0.00     0.129 A 
HETATM   10  C   UNL     1     -42.947  55.308 -53.216  1.00  0.00     0.068 A 
ENDROOT
BRANCH   1  11
HETATM   11  C   UNL     1     -42.794  54.407 -55.470  1.00  0.00     0.252 C 
HETATM   12  N   UNL     1     -42.265  55.401 -56.253  1.00  0.00    -0.355 N 
HETATM   13  H   UNL     1     -41.611  56.036 -55.801  1.00  0.00     0.162 HD
HETATM   14  O   UNL     1     -43.628  53.596 -55.853  1.00  0.00    -0.268 OA
BRANCH  12  15
HETATM   15  C   UNL     1     -42.764  55.815 -57.562  1.00  0.00     0.150 C 
BRANCH  15  16
HETATM   16  C   UNL     1     -43.862  56.903 -57.621  1.00  0.00     0.255 C 
BRANCH  16  17
HETATM   17  N   UNL     1     -43.371  58.333 -57.433  1.00  0.00    -0.062 N 
HETATM   18  H   UNL     1     -43.976  58.875 -58.086  1.00  0.00     0.280 HD
BRANCH  17  19
HETATM   19  C   UNL     1     -43.638  58.961 -56.073  1.00  0.00     0.180 C 
HETATM   20  C   UNL     1     -42.380  58.938 -55.204  1.00  0.00     0.039 C 
HETATM   21  C   UNL     1     -44.823  58.306 -55.376  1.00  0.00     0.039 C 
ENDBRANCH  17  19
BRANCH  17  22
HETATM   22  C   UNL     1     -41.961  58.520 -57.960  1.00  0.00     0.273 C 
BRANCH  22  23
HETATM   23  C   UNL     1     -41.784  59.730 -58.838  1.00  0.00    -0.033 A 
HETATM   24  C   UNL     1     -42.083  59.666 -60.208  1.00  0.00     0.009 A 
HETATM   25  C   UNL     1     -41.914  60.787 -61.023  1.00  0.00     0.001 A 
HETATM   26  C   UNL     1     -41.447  61.981 -60.479  1.00  0.00     0.000 A 
HETATM   27  C   UNL     1     -41.150  62.058 -59.120  1.00  0.00     0.001 A 
HETATM   28  C   UNL     1     -41.318  60.942 -58.301  1.00  0.00     0.009 A 
ENDBRANCH  22  23
ENDBRANCH  17  22
ENDBRANCH  16  17
ENDBRANCH  15  16
ENDBRANCH  12  15
ENDBRANCH   1  11
BRANCH   9  29
HETATM   29  N   UNL     1     -43.262  56.182 -51.019  1.00  0.00    -0.339 N 
HETATM   30  H   UNL     1     -44.001  55.738 -50.480  1.00  0.00     0.167 HD
BRANCH  29  31
HETATM   31  C   UNL     1     -43.612  57.522 -51.297  1.00  0.00     0.067 A 
HETATM   32  C   UNL     1     -42.611  58.507 -51.331  1.00  0.00     0.097 A 
HETATM   33  C   UNL     1     -42.881  59.820 -51.728  1.00  0.00     0.075 A 
HETATM   34  C   UNL     1     -44.186  60.179 -52.059  1.00  0.00     0.070 A 
HETATM   35  C   UNL     1     -45.201  59.220 -51.983  1.00  0.00     0.039 A 
HETATM   36  C   UNL     1     -44.917  57.902 -51.610  1.00  0.00     0.035 A 
BRANCH  32  37
HETATM   37  O   UNL     1     -41.320  58.162 -50.998  1.00  0.00    -0.354 OA
HETATM   38  C   UNL     1     -40.409  58.873 -51.842  1.00  0.00     0.210 C 
ENDBRANCH  32  37
BRANCH  34  39
HETATM   39  O   UNL     1     -44.599  61.417 -52.465  1.00  0.00    -0.356 OA
HETATM   40  C   UNL     1     -45.711  61.465 -53.352  1.00  0.00     0.210 C 
ENDBRANCH  34  39
ENDBRANCH  29  31
ENDBRANCH   9  29
TORSDOF 11
ENDMDL
MODEL 6
REMARK VINA RESULT:      -7.8      2.182      6.014
REMARK  11 active torsions:
REMARK  status: ('A' for Active; 'I' for Inactive)
REMARK    1  A    between atoms: C_2  and  N_3 
REMARK    2  A    between atoms: N_3  and  C_5 
REMARK    3  A    between atoms: N_3  and  C_12 
REMARK    4  A    between atoms: C_5  and  C_6 
REMARK    5  A    between atoms: C_12  and  C_13 
REMARK    6  A    between atoms: C_13  and  N_14 
REMARK       I    between atoms: N_14  and  C_15 
REMARK    7  A    between atoms: C_15  and  C_16 
REMARK    8  A    between atoms: C_24  and  N_25 
REMARK    9  A    between atoms: N_25  and  C_26 
REMARK   10  A    between atoms: C_27  and  O_28 
REMARK   11  A    between atoms: C_31  and  O_32 
ROOT
HETATM    1  C   UNL     1     -42.529  58.025 -55.515  1.00  0.00     0.048 A 
HETATM    2  C   UNL     1     -42.499  57.934 -56.916  1.00  0.00     0.009 A 
HETATM    3  C   UNL     1     -42.804  56.669 -57.448  1.00  0.00     0.070 A 
HETATM    4  C   UNL     1     -42.778  56.502 -58.825  1.00  0.00     0.032 A 
HETATM    5  C   UNL     1     -42.456  57.552 -59.689  1.00  0.00     0.002 A 
HETATM    6  C   UNL     1     -42.159  58.805 -59.173  1.00  0.00     0.001 A 
HETATM    7  C   UNL     1     -42.182  59.002 -57.794  1.00  0.00     0.015 A 
HETATM    8  N   UNL     1     -43.119  55.614 -56.677  1.00  0.00    -0.231 NA
HETATM    9  C   UNL     1     -43.132  55.728 -55.335  1.00  0.00     0.129 A 
HETATM   10  C   UNL     1     -42.831  56.925 -54.717  1.00  0.00     0.068 A 
ENDROOT
BRANCH   1  11
HETATM   11  C   UNL     1     -42.308  59.299 -54.815  1.00  0.00     0.252 C 
HETATM   12  N   UNL     1     -43.419  60.087 -54.655  1.00  0.00    -0.355 N 
HETATM   13  H   UNL     1     -44.292  59.724 -55.031  1.00  0.00     0.162 HD
HETATM   14  O   UNL     1     -41.179  59.616 -54.462  1.00  0.00    -0.268 OA
BRANCH  12  15
HETATM   15  C   UNL     1     -43.419  61.497 -54.274  1.00  0.00     0.150 C 
BRANCH  15  16
HETATM   16  C   UNL     1     -44.385  61.958 -53.158  1.00  0.00     0.255 C 
BRANCH  16  17
HETATM   17  N   UNL     1     -43.837  61.858 -51.740  1.00  0.00    -0.062 N 
HETATM   18  H   UNL     1     -42.808  61.943 -51.881  1.00  0.00     0.280 HD
BRANCH  17  19
HETATM   19  C   UNL     1     -44.179  63.008 -50.805  1.00  0.00     0.180 C 
HETATM   20  C   UNL     1     -42.954  63.887 -50.549  1.00  0.00     0.039 C 
HETATM   21  C   UNL     1     -44.801  62.509 -49.507  1.00  0.00     0.039 C 
ENDBRANCH  17  19
BRANCH  17  22
HETATM   22  C   UNL     1     -44.037  60.474 -51.154  1.00  0.00     0.273 C 
BRANCH  22  23
HETATM   23  C   UNL     1     -42.767  59.679 -50.993  1.00  0.00    -0.033 A 
HETATM   24  C   UNL     1     -42.716  58.331 -51.381  1.00  0.00     0.009 A 
HETATM   25  C   UNL     1     -41.541  57.595 -51.228  1.00  0.00     0.001 A 
HETATM   26  C   UNL     1     -40.406  58.196 -50.688  1.00  0.00     0.000 A 
HETATM   27  C   UNL     1     -40.443  59.534 -50.303  1.00  0.00     0.001 A 
HETATM   28  C   UNL     1     -41.615  60.275 -50.455  1.00  0.00     0.009 A 
ENDBRANCH  22  23
ENDBRANCH  17  22
ENDBRANCH  16  17
ENDBRANCH  15  16
ENDBRANCH  12  15
ENDBRANCH   1  11
BRANCH   9  29
HETATM   29  N   UNL     1     -43.468  54.636 -54.516  1.00  0.00    -0.339 N 
HETATM   30  H   UNL     1     -44.474  54.542 -54.400  1.00  0.00     0.167 HD
BRANCH  29  31
HETATM   31  C   UNL     1     -42.810  54.211 -53.340  1.00  0.00     0.067 A 
HETATM   32  C   UNL     1     -41.565  53.568 -53.436  1.00  0.00     0.097 A 
HETATM   33  C   UNL     1     -40.812  53.246 -52.303  1.00  0.00     0.075 A 
HETATM   34  C   UNL     1     -41.325  53.526 -51.038  1.00  0.00     0.070 A 
HETATM   35  C   UNL     1     -42.586  54.121 -50.928  1.00  0.00     0.039 A 
HETATM   36  C   UNL     1     -43.321  54.465 -52.067  1.00  0.00     0.035 A 
BRANCH  32  37
HETATM   37  O   UNL     1     -41.053  53.280 -54.682  1.00  0.00    -0.354 OA
HETATM   38  C   UNL     1     -39.970  54.172 -54.965  1.00  0.00     0.210 C 
ENDBRANCH  32  37
BRANCH  34  39
HETATM   39  O   UNL     1     -40.707  53.271 -49.846  1.00  0.00    -0.356 OA
HETATM   40  C   UNL     1     -40.755  54.300 -48.864  1.00  0.00     0.210 C 
ENDBRANCH  34  39
ENDBRANCH  29  31
ENDBRANCH   9  29
TORSDOF 11
ENDMDL
MODEL 7
REMARK VINA RESULT:      -7.8      2.002      6.448
REMARK  11 active torsions:
REMARK  status: ('A' for Active; 'I' for Inactive)
REMARK    1  A    between atoms: C_2  and  N_3 
REMARK    2  A    between atoms: N_3  and  C_5 
REMARK    3  A    between atoms: N_3  and  C_12 
REMARK    4  A    between atoms: C_5  and  C_6 
REMARK    5  A    between atoms: C_12  and  C_13 
REMARK    6  A    between atoms: C_13  and  N_14 
REMARK       I    between atoms: N_14  and  C_15 
REMARK    7  A    between atoms: C_15  and  C_16 
REMARK    8  A    between atoms: C_24  and  N_25 
REMARK    9  A    between atoms: N_25  and  C_26 
REMARK   10  A    between atoms: C_27  and  O_28 
REMARK   11  A    between atoms: C_31  and  O_32 
ROOT
HETATM    1  C   UNL     1     -42.065  57.444 -55.594  1.00  0.00     0.048 A 
HETATM    2  C   UNL     1     -42.323  57.427 -56.974  1.00  0.00     0.009 A 
HETATM    3  C   UNL     1     -42.753  56.193 -57.494  1.00  0.00     0.070 A 
HETATM    4  C   UNL     1     -43.011  56.099 -58.854  1.00  0.00     0.032 A 
HETATM    5  C   UNL     1     -42.852  57.190 -59.713  1.00  0.00     0.002 A 
HETATM    6  C   UNL     1     -42.433  58.412 -59.206  1.00  0.00     0.001 A 
HETATM    7  C   UNL     1     -42.171  58.536 -57.843  1.00  0.00     0.015 A 
HETATM    8  N   UNL     1     -42.924  55.102 -56.729  1.00  0.00    -0.231 NA
HETATM    9  C   UNL     1     -42.662  55.145 -55.408  1.00  0.00     0.129 A 
HETATM   10  C   UNL     1     -42.219  56.306 -54.806  1.00  0.00     0.068 A 
ENDROOT
BRANCH   1  11
HETATM   11  C   UNL     1     -41.682  58.677 -54.891  1.00  0.00     0.252 C 
HETATM   12  N   UNL     1     -41.419  58.539 -53.552  1.00  0.00    -0.355 N 
HETATM   13  H   UNL     1     -41.511  57.602 -53.165  1.00  0.00     0.162 HD
HETATM   14  O   UNL     1     -41.662  59.744 -55.492  1.00  0.00    -0.268 OA
BRANCH  12  15
HETATM   15  C   UNL     1     -41.316  59.627 -52.584  1.00  0.00     0.150 C 
BRANCH  15  16
HETATM   16  C   UNL     1     -42.597  60.413 -52.220  1.00  0.00     0.255 C 
BRANCH  16  17
HETATM   17  N   UNL     1     -43.904  59.658 -52.427  1.00  0.00    -0.062 N 
HETATM   18  H   UNL     1     -43.621  58.865 -53.040  1.00  0.00     0.280 HD
BRANCH  17  19
HETATM   19  C   UNL     1     -44.491  58.983 -51.196  1.00  0.00     0.180 C 
HETATM   20  C   UNL     1     -44.402  57.461 -51.313  1.00  0.00     0.039 C 
HETATM   21  C   UNL     1     -45.916  59.449 -50.927  1.00  0.00     0.039 C 
ENDBRANCH  17  19
BRANCH  17  22
HETATM   22  C   UNL     1     -44.893  60.457 -53.253  1.00  0.00     0.273 C 
BRANCH  22  23
HETATM   23  C   UNL     1     -45.180  59.874 -54.611  1.00  0.00    -0.033 A 
HETATM   24  C   UNL     1     -45.413  58.498 -54.761  1.00  0.00     0.009 A 
HETATM   25  C   UNL     1     -45.675  57.958 -56.021  1.00  0.00     0.001 A 
HETATM   26  C   UNL     1     -45.706  58.785 -57.143  1.00  0.00     0.000 A 
HETATM   27  C   UNL     1     -45.479  60.152 -57.006  1.00  0.00     0.001 A 
HETATM   28  C   UNL     1     -45.219  60.697 -55.749  1.00  0.00     0.009 A 
ENDBRANCH  22  23
ENDBRANCH  17  22
ENDBRANCH  16  17
ENDBRANCH  15  16
ENDBRANCH  12  15
ENDBRANCH   1  11
BRANCH   9  29
HETATM   29  N   UNL     1     -42.844  54.014 -54.593  1.00  0.00    -0.339 N 
HETATM   30  H   UNL     1     -43.810  53.697 -54.594  1.00  0.00     0.167 HD
BRANCH  29  31
HETATM   31  C   UNL     1     -42.258  53.762 -53.333  1.00  0.00     0.067 A 
HETATM   32  C   UNL     1     -41.008  53.124 -53.264  1.00  0.00     0.097 A 
HETATM   33  C   UNL     1     -40.326  52.968 -52.054  1.00  0.00     0.075 A 
HETATM   34  C   UNL     1     -40.915  53.415 -50.874  1.00  0.00     0.070 A 
HETATM   35  C   UNL     1     -42.180  54.007 -50.922  1.00  0.00     0.039 A 
HETATM   36  C   UNL     1     -42.845  54.184 -52.140  1.00  0.00     0.035 A 
BRANCH  32  37
HETATM   37  O   UNL     1     -40.422  52.672 -54.426  1.00  0.00    -0.354 OA
HETATM   38  C   UNL     1     -40.102  51.284 -54.284  1.00  0.00     0.210 C 
ENDBRANCH  32  37
BRANCH  34  39
HETATM   39  O   UNL     1     -40.370  53.332 -49.623  1.00  0.00    -0.356 OA
HETATM   40  C   UNL     1     -40.751  54.335 -48.688  1.00  0.00     0.210 C 
ENDBRANCH  34  39
ENDBRANCH  29  31
ENDBRANCH   9  29
TORSDOF 11
ENDMDL
MODEL 8
REMARK VINA RESULT:      -7.8      2.155      6.972
REMARK  11 active torsions:
REMARK  status: ('A' for Active; 'I' for Inactive)
REMARK    1  A    between atoms: C_2  and  N_3 
REMARK    2  A    between atoms: N_3  and  C_5 
REMARK    3  A    between atoms: N_3  and  C_12 
REMARK    4  A    between atoms: C_5  and  C_6 
REMARK    5  A    between atoms: C_12  and  C_13 
REMARK    6  A    between atoms: C_13  and  N_14 
REMARK       I    between atoms: N_14  and  C_15 
REMARK    7  A    between atoms: C_15  and  C_16 
REMARK    8  A    between atoms: C_24  and  N_25 
REMARK    9  A    between atoms: N_25  and  C_26 
REMARK   10  A    between atoms: C_27  and  O_28 
REMARK   11  A    between atoms: C_31  and  O_32 
ROOT
HETATM    1  C   UNL     1     -41.929  54.432 -53.912  1.00  0.00     0.048 A 
HETATM    2  C   UNL     1     -41.094  53.371 -53.525  1.00  0.00     0.009 A 
HETATM    3  C   UNL     1     -40.666  53.396 -52.186  1.00  0.00     0.070 A 
HETATM    4  C   UNL     1     -39.825  52.387 -51.738  1.00  0.00     0.032 A 
HETATM    5  C   UNL     1     -39.394  51.358 -52.579  1.00  0.00     0.002 A 
HETATM    6  C   UNL     1     -39.816  51.324 -53.900  1.00  0.00     0.001 A 
HETATM    7  C   UNL     1     -40.665  52.322 -54.375  1.00  0.00     0.015 A 
HETATM    8  N   UNL     1     -41.037  54.356 -51.322  1.00  0.00    -0.231 NA
HETATM    9  C   UNL     1     -41.834  55.365 -51.723  1.00  0.00     0.129 A 
HETATM   10  C   UNL     1     -42.293  55.439 -53.023  1.00  0.00     0.068 A 
ENDROOT
BRANCH   1  11
HETATM   11  C   UNL     1     -42.519  54.503 -55.257  1.00  0.00     0.252 C 
HETATM   12  N   UNL     1     -41.932  55.398 -56.115  1.00  0.00    -0.355 N 
HETATM   13  H   UNL     1     -41.145  55.930 -55.748  1.00  0.00     0.162 HD
HETATM   14  O   UNL     1     -43.502  53.826 -55.532  1.00  0.00    -0.268 OA
BRANCH  12  15
HETATM   15  C   UNL     1     -42.497  55.872 -57.375  1.00  0.00     0.150 C 
BRANCH  15  16
HETATM   16  C   UNL     1     -42.693  57.394 -57.569  1.00  0.00     0.255 C 
BRANCH  16  17
HETATM   17  N   UNL     1     -44.109  57.903 -57.328  1.00  0.00    -0.062 N 
HETATM   18  H   UNL     1     -44.675  57.028 -57.334  1.00  0.00     0.280 HD
BRANCH  17  19
HETATM   19  C   UNL     1     -44.381  58.511 -55.960  1.00  0.00     0.180 C 
HETATM   20  C   UNL     1     -45.086  57.507 -55.046  1.00  0.00     0.039 C 
HETATM   21  C   UNL     1     -45.153  59.819 -56.071  1.00  0.00     0.039 C 
ENDBRANCH  17  19
BRANCH  17  22
HETATM   22  C   UNL     1     -44.626  58.711 -58.502  1.00  0.00     0.273 C 
BRANCH  22  23
HETATM   23  C   UNL     1     -45.582  57.965 -59.395  1.00  0.00    -0.033 A 
HETATM   24  C   UNL     1     -46.628  58.642 -60.043  1.00  0.00     0.009 A 
HETATM   25  C   UNL     1     -47.516  57.949 -60.866  1.00  0.00     0.001 A 
HETATM   26  C   UNL     1     -47.370  56.576 -61.051  1.00  0.00     0.000 A 
HETATM   27  C   UNL     1     -46.335  55.894 -60.416  1.00  0.00     0.001 A 
HETATM   28  C   UNL     1     -45.444  56.582 -59.593  1.00  0.00     0.009 A 
ENDBRANCH  22  23
ENDBRANCH  17  22
ENDBRANCH  16  17
ENDBRANCH  15  16
ENDBRANCH  12  15
ENDBRANCH   1  11
BRANCH   9  29
HETATM   29  N   UNL     1     -42.238  56.373 -50.829  1.00  0.00    -0.339 N 
HETATM   30  H   UNL     1     -42.579  55.988 -49.952  1.00  0.00     0.167 HD
BRANCH  29  31
HETATM   31  C   UNL     1     -42.938  57.561 -51.134  1.00  0.00     0.067 A 
HETATM   32  C   UNL     1     -42.222  58.716 -51.491  1.00  0.00     0.097 A 
HETATM   33  C   UNL     1     -42.866  59.877 -51.928  1.00  0.00     0.075 A 
HETATM   34  C   UNL     1     -44.258  59.912 -51.972  1.00  0.00     0.070 A 
HETATM   35  C   UNL     1     -44.984  58.786 -51.573  1.00  0.00     0.039 A 
HETATM   36  C   UNL     1     -44.332  57.618 -51.163  1.00  0.00     0.035 A 
BRANCH  32  37
HETATM   37  O   UNL     1     -40.846  58.692 -51.444  1.00  0.00    -0.354 OA
HETATM   38  C   UNL     1     -40.396  59.527 -50.371  1.00  0.00     0.210 C 
ENDBRANCH  32  37
BRANCH  34  39
HETATM   39  O   UNL     1     -45.022  60.971 -52.377  1.00  0.00    -0.356 OA
HETATM   40  C   UNL     1     -46.380  60.697 -52.700  1.00  0.00     0.210 C 
ENDBRANCH  34  39
ENDBRANCH  29  31
ENDBRANCH   9  29
TORSDOF 11
ENDMDL
MODEL 9
REMARK VINA RESULT:      -7.7      2.107      3.032
REMARK  11 active torsions:
REMARK  status: ('A' for Active; 'I' for Inactive)
REMARK    1  A    between atoms: C_2  and  N_3 
REMARK    2  A    between atoms: N_3  and  C_5 
REMARK    3  A    between atoms: N_3  and  C_12 
REMARK    4  A    between atoms: C_5  and  C_6 
REMARK    5  A    between atoms: C_12  and  C_13 
REMARK    6  A    between atoms: C_13  and  N_14 
REMARK       I    between atoms: N_14  and  C_15 
REMARK    7  A    between atoms: C_15  and  C_16 
REMARK    8  A    between atoms: C_24  and  N_25 
REMARK    9  A    between atoms: N_25  and  C_26 
REMARK   10  A    between atoms: C_27  and  O_28 
REMARK   11  A    between atoms: C_31  and  O_32 
ROOT
HETATM    1  C   UNL     1     -42.679  55.455 -53.216  1.00  0.00     0.048 A 
HETATM    2  C   UNL     1     -41.768  54.392 -53.106  1.00  0.00     0.009 A 
HETATM    3  C   UNL     1     -41.514  53.686 -54.295  1.00  0.00     0.070 A 
HETATM    4  C   UNL     1     -40.635  52.613 -54.256  1.00  0.00     0.032 A 
HETATM    5  C   UNL     1     -40.005  52.217 -53.074  1.00  0.00     0.002 A 
HETATM    6  C   UNL     1     -40.247  52.912 -51.898  1.00  0.00     0.001 A 
HETATM    7  C   UNL     1     -41.121  53.997 -51.908  1.00  0.00     0.015 A 
HETATM    8  N   UNL     1     -42.087  54.008 -55.467  1.00  0.00    -0.231 NA
HETATM    9  C   UNL     1     -42.963  55.029 -55.542  1.00  0.00     0.129 A 
HETATM   10  C   UNL     1     -43.290  55.772 -54.426  1.00  0.00     0.068 A 
ENDROOT
BRANCH   1  11
HETATM   11  C   UNL     1     -42.988  56.333 -52.078  1.00  0.00     0.252 C 
HETATM   12  N   UNL     1     -44.317  56.444 -51.760  1.00  0.00    -0.355 N 
HETATM   13  H   UNL     1     -44.968  55.913 -52.335  1.00  0.00     0.162 HD
HETATM   14  O   UNL     1     -42.089  56.945 -51.514  1.00  0.00    -0.268 OA
BRANCH  12  15
HETATM   15  C   UNL     1     -44.906  57.460 -50.891  1.00  0.00     0.150 C 
BRANCH  15  16
HETATM   16  C   UNL     1     -45.162  58.869 -51.473  1.00  0.00     0.255 C 
BRANCH  16  17
HETATM   17  N   UNL     1     -44.527  60.018 -50.698  1.00  0.00    -0.062 N 
HETATM   18  H   UNL     1     -44.216  59.560 -49.816  1.00  0.00     0.280 HD
BRANCH  17  19
HETATM   19  C   UNL     1     -43.249  60.599 -51.285  1.00  0.00     0.180 C 
HETATM   20  C   UNL     1     -43.012  60.077 -52.703  1.00  0.00     0.039 C 
HETATM   21  C   UNL     1     -42.051  60.346 -50.379  1.00  0.00     0.039 C 
ENDBRANCH  17  19
BRANCH  17  22
HETATM   22  C   UNL     1     -45.557  61.043 -50.264  1.00  0.00     0.273 C 
BRANCH  22  23
HETATM   23  C   UNL     1     -45.420  61.491 -48.833  1.00  0.00    -0.033 A 
HETATM   24  C   UNL     1     -45.106  62.825 -48.530  1.00  0.00     0.009 A 
HETATM   25  C   UNL     1     -44.975  63.238 -47.204  1.00  0.00     0.001 A 
HETATM   26  C   UNL     1     -45.157  62.325 -46.167  1.00  0.00     0.000 A 
HETATM   27  C   UNL     1     -45.472  60.999 -46.454  1.00  0.00     0.001 A 
HETATM   28  C   UNL     1     -45.605  60.582 -47.778  1.00  0.00     0.009 A 
ENDBRANCH  22  23
ENDBRANCH  17  22
ENDBRANCH  16  17
ENDBRANCH  15  16
ENDBRANCH  12  15
ENDBRANCH   1  11
BRANCH   9  29
HETATM   29  N   UNL     1     -43.564  55.383 -56.763  1.00  0.00    -0.339 N 
HETATM   30  H   UNL     1     -44.030  54.592 -57.201  1.00  0.00     0.167 HD
BRANCH  29  31
HETATM   31  C   UNL     1     -43.046  56.244 -57.756  1.00  0.00     0.067 A 
HETATM   32  C   UNL     1     -43.241  55.934 -59.113  1.00  0.00     0.097 A 
HETATM   33  C   UNL     1     -42.866  56.814 -60.132  1.00  0.00     0.075 A 
HETATM   34  C   UNL     1     -42.241  58.014 -59.803  1.00  0.00     0.070 A 
HETATM   35  C   UNL     1     -41.997  58.313 -58.459  1.00  0.00     0.039 A 
HETATM   36  C   UNL     1     -42.400  57.439 -57.443  1.00  0.00     0.035 A 
BRANCH  32  37
HETATM   37  O   UNL     1     -43.852  54.745 -59.447  1.00  0.00    -0.354 OA
HETATM   38  C   UNL     1     -45.022  55.018 -60.225  1.00  0.00     0.210 C 
ENDBRANCH  32  37
BRANCH  34  39
HETATM   39  O   UNL     1     -41.821  58.970 -60.686  1.00  0.00    -0.356 OA
HETATM   40  C   UNL     1     -42.773  59.956 -61.067  1.00  0.00     0.210 C 
ENDBRANCH  34  39
ENDBRANCH  29  31
ENDBRANCH   9  29
TORSDOF 11
ENDMDL
MODEL 10
REMARK VINA RESULT:      -7.7      2.771      8.086
REMARK  11 active torsions:
REMARK  status: ('A' for Active; 'I' for Inactive)
REMARK    1  A    between atoms: C_2  and  N_3 
REMARK    2  A    between atoms: N_3  and  C_5 
REMARK    3  A    between atoms: N_3  and  C_12 
REMARK    4  A    between atoms: C_5  and  C_6 
REMARK    5  A    between atoms: C_12  and  C_13 
REMARK    6  A    between atoms: C_13  and  N_14 
REMARK       I    between atoms: N_14  and  C_15 
REMARK    7  A    between atoms: C_15  and  C_16 
REMARK    8  A    between atoms: C_24  and  N_25 
REMARK    9  A    between atoms: N_25  and  C_26 
REMARK   10  A    between atoms: C_27  and  O_28 
REMARK   11  A    between atoms: C_31  and  O_32 
ROOT
HETATM    1  C   UNL     1     -43.013  56.122 -57.233  1.00  0.00     0.048 A 
HETATM    2  C   UNL     1     -42.681  57.354 -56.645  1.00  0.00     0.009 A 
HETATM    3  C   UNL     1     -42.201  57.285 -55.326  1.00  0.00     0.070 A 
HETATM    4  C   UNL     1     -41.869  58.466 -54.677  1.00  0.00     0.032 A 
HETATM    5  C   UNL     1     -42.002  59.711 -55.296  1.00  0.00     0.002 A 
HETATM    6  C   UNL     1     -42.471  59.786 -56.600  1.00  0.00     0.001 A 
HETATM    7  C   UNL     1     -42.807  58.616 -57.277  1.00  0.00     0.015 A 
HETATM    8  N   UNL     1     -42.051  56.123 -54.667  1.00  0.00    -0.231 NA
HETATM    9  C   UNL     1     -42.383  54.957 -55.253  1.00  0.00     0.129 A 
HETATM   10  C   UNL     1     -42.879  54.921 -56.541  1.00  0.00     0.068 A 
ENDROOT
BRANCH   1  11
HETATM   11  C   UNL     1     -43.455  56.024 -58.632  1.00  0.00     0.252 C 
HETATM   12  N   UNL     1     -44.813  56.028 -58.825  1.00  0.00    -0.355 N 
HETATM   13  H   UNL     1     -45.390  56.098 -57.990  1.00  0.00     0.162 HD
HETATM   14  O   UNL     1     -42.630  55.897 -59.528  1.00  0.00    -0.268 OA
BRANCH  12  15
HETATM   15  C   UNL     1     -45.503  55.647 -60.054  1.00  0.00     0.150 C 
BRANCH  15  16
HETATM   16  C   UNL     1     -46.868  56.303 -60.367  1.00  0.00     0.255 C 
BRANCH  16  17
HETATM   17  N   UNL     1     -46.797  57.720 -60.924  1.00  0.00    -0.062 N 
HETATM   18  H   UNL     1     -45.905  57.714 -61.463  1.00  0.00     0.280 HD
BRANCH  17  19
HETATM   19  C   UNL     1     -47.850  58.088 -61.958  1.00  0.00     0.180 C 
HETATM   20  C   UNL     1     -48.659  59.304 -61.504  1.00  0.00     0.039 C 
HETATM   21  C   UNL     1     -48.747  56.903 -62.292  1.00  0.00     0.039 C 
ENDBRANCH  17  19
BRANCH  17  22
HETATM   22  C   UNL     1     -46.585  58.747 -59.830  1.00  0.00     0.273 C 
BRANCH  22  23
HETATM   23  C   UNL     1     -45.313  59.543 -59.963  1.00  0.00    -0.033 A 
HETATM   24  C   UNL     1     -44.229  59.034 -60.696  1.00  0.00     0.009 A 
HETATM   25  C   UNL     1     -43.049  59.770 -60.816  1.00  0.00     0.001 A 
HETATM   26  C   UNL     1     -42.940  61.019 -60.208  1.00  0.00     0.000 A 
HETATM   27  C   UNL     1     -44.011  61.536 -59.482  1.00  0.00     0.001 A 
HETATM   28  C   UNL     1     -45.193  60.805 -59.360  1.00  0.00     0.009 A 
ENDBRANCH  22  23
ENDBRANCH  17  22
ENDBRANCH  16  17
ENDBRANCH  15  16
ENDBRANCH  12  15
ENDBRANCH   1  11
BRANCH   9  29
HETATM   29  N   UNL     1     -42.223  53.733 -54.580  1.00  0.00    -0.339 N 
HETATM   30  H   UNL     1     -42.978  53.084 -54.787  1.00  0.00     0.167 HD
BRANCH  29  31
HETATM   31  C   UNL     1     -41.772  53.535 -53.256  1.00  0.00     0.067 A 
HETATM   32  C   UNL     1     -40.550  52.880 -53.031  1.00  0.00     0.097 A 
HETATM   33  C   UNL     1     -39.995  52.773 -51.752  1.00  0.00     0.075 A 
HETATM   34  C   UNL     1     -40.689  53.289 -50.660  1.00  0.00     0.070 A 
HETATM   35  C   UNL     1     -41.930  53.900 -50.864  1.00  0.00     0.039 A 
HETATM   36  C   UNL     1     -42.466  54.027 -52.150  1.00  0.00     0.035 A 
BRANCH  32  37
HETATM   37  O   UNL     1     -39.860  52.360 -54.104  1.00  0.00    -0.354 OA
HETATM   38  C   UNL     1     -39.873  50.931 -54.026  1.00  0.00     0.210 C 
ENDBRANCH  32  37
BRANCH  34  39
HETATM   39  O   UNL     1     -40.274  53.260 -49.358  1.00  0.00    -0.356 OA
HETATM   40  C   UNL     1     -40.703  54.329 -48.523  1.00  0.00     0.210 C 
ENDBRANCH  34  39
ENDBRANCH  29  31
ENDBRANCH   9  29
TORSDOF 11
ENDMDL
