MODEL 1
REMARK VINA RESULT:      -7.6      0.000      0.000
REMARK  5 active torsions:
REMARK  status: ('A' for Active; 'I' for Inactive)
REMARK    1  A    between atoms: C_8  and  C_9 
REMARK    2  A    between atoms: C_9  and  N_10 
REMARK    3  A    between atoms: N_10  and  C_13 
REMARK    4  A    between atoms: C_13  and  C_14 
REMARK    5  A    between atoms: C_13  and  C_19 
ROOT
HETATM    1  N   UNL     1     -43.872  55.689 -52.173  1.00  0.00    -0.056 N 
HETATM    2  H   UNL     1     -44.860  55.412 -52.194  1.00  0.00     0.278 HD
HETATM    3  H   UNL     1     -43.540  55.561 -51.209  1.00  0.00     0.278 HD
ENDROOT
BRANCH   1   4
HETATM    4  C   UNL     1     -43.112  54.775 -53.064  1.00  0.00     0.275 C 
BRANCH   4   5
HETATM    5  C   UNL     1     -42.038  54.057 -52.311  1.00  0.00     0.004 A 
HETATM    6  C   UNL     1     -41.196  53.164 -52.955  1.00  0.00     0.113 A 
HETATM    7  C   UNL     1     -40.201  52.483 -52.294  1.00  0.00     0.105 A 
HETATM    8  O   UNL     1     -41.223  52.875 -54.289  1.00  0.00    -0.322 OA
HETATM    9  C   UNL     1     -39.980  52.658 -50.947  1.00  0.00     0.040 A 
HETATM   10  O   UNL     1     -39.497  51.664 -53.117  1.00  0.00    -0.323 OA
HETATM   11  C   UNL     1     -40.806  53.553 -50.264  1.00  0.00     0.003 A 
HETATM   12  C   UNL     1     -41.828  54.248 -50.937  1.00  0.00     0.012 A 
HETATM   13  C   UNL     1     -40.188  51.856 -54.364  1.00  0.00     0.352 A 
ENDBRANCH   4   5
ENDBRANCH   1   4
BRANCH   1  14
HETATM   14  C   UNL     1     -43.792  57.142 -52.531  1.00  0.00     0.292 C 
BRANCH  14  15
HETATM   15  C   UNL     1     -44.825  57.988 -51.842  1.00  0.00     0.190 A 
HETATM   16  N   UNL     1     -45.513  57.576 -50.771  1.00  0.00    -0.109 NA
HETATM   17  O   UNL     1     -46.297  58.690 -50.451  1.00  0.00    -0.205 OA
HETATM   18  C   UNL     1     -45.962  59.664 -51.338  1.00  0.00     0.288 A 
HETATM   19  N   UNL     1     -45.034  59.305 -52.197  1.00  0.00    -0.215 NA
ENDBRANCH  14  15
BRANCH  14  20
HETATM   20  C   UNL     1     -42.444  57.721 -52.132  1.00  0.00    -0.020 A 
HETATM   21  C   UNL     1     -42.084  57.767 -50.772  1.00  0.00     0.011 A 
HETATM   22  C   UNL     1     -40.860  58.316 -50.375  1.00  0.00     0.024 A 
HETATM   23  C   UNL     1     -39.983  58.827 -51.327  1.00  0.00     0.034 A 
HETATM   24 CL   UNL     1     -38.482  59.502 -50.836  1.00  0.00    -0.084 Cl
HETATM   25  C   UNL     1     -40.319  58.790 -52.678  1.00  0.00     0.024 A 
HETATM   26  C   UNL     1     -41.541  58.243 -53.080  1.00  0.00     0.011 A 
ENDBRANCH  14  20
ENDBRANCH   1  14
TORSDOF 5
ENDMDL
MODEL 2
REMARK VINA RESULT:      -7.5      3.537      6.494
REMARK  5 active torsions:
REMARK  status: ('A' for Active; 'I' for Inactive)
REMARK    1  A    between atoms: C_8  and  C_9 
REMARK    2  A    between atoms: C_9  and  N_10 
REMARK    3  A    between atoms: N_10  and  C_13 
REMARK    4  A    between atoms: C_13  and  C_14 
REMARK    5  A    between atoms: C_13  and  C_19 
ROOT
HETATM    1  N   UNL     1     -42.627  54.801 -51.335  1.00  0.00    -0.056 N 
HETATM    2  H   UNL     1     -43.048  54.223 -50.599  1.00  0.00     0.278 HD
HETATM    3  H   UNL     1     -43.000  54.469 -52.234  1.00  0.00     0.278 HD
ENDROOT
BRANCH   1   4
HETATM    4  C   UNL     1     -43.061  56.207 -51.130  1.00  0.00     0.275 C 
BRANCH   4   5
HETATM    5  C   UNL     1     -42.458  57.112 -52.156  1.00  0.00     0.004 A 
HETATM    6  C   UNL     1     -41.383  57.928 -51.838  1.00  0.00     0.113 A 
HETATM    7  C   UNL     1     -40.807  58.776 -52.754  1.00  0.00     0.105 A 
HETATM    8  O   UNL     1     -40.758  57.974 -50.626  1.00  0.00    -0.322 OA
HETATM    9  C   UNL     1     -41.264  58.857 -54.050  1.00  0.00     0.040 A 
HETATM   10  O   UNL     1     -39.769  59.478 -52.230  1.00  0.00    -0.323 OA
HETATM   11  C   UNL     1     -42.344  58.047 -54.409  1.00  0.00     0.003 A 
HETATM   12  C   UNL     1     -42.938  57.181 -53.472  1.00  0.00     0.012 A 
HETATM   13  C   UNL     1     -39.783  59.026 -50.865  1.00  0.00     0.352 A 
ENDBRANCH   4   5
ENDBRANCH   1   4
BRANCH   1  14
HETATM   14  C   UNL     1     -41.146  54.578 -51.306  1.00  0.00     0.292 C 
BRANCH  14  15
HETATM   15  C   UNL     1     -40.610  54.281 -49.934  1.00  0.00     0.190 A 
HETATM   16  N   UNL     1     -39.325  54.442 -49.598  1.00  0.00    -0.109 NA
HETATM   17  O   UNL     1     -39.308  54.104 -48.241  1.00  0.00    -0.205 OA
HETATM   18  C   UNL     1     -40.592  53.818 -47.898  1.00  0.00     0.288 A 
HETATM   19  N   UNL     1     -41.447  53.945 -48.889  1.00  0.00    -0.215 NA
ENDBRANCH  14  15
BRANCH  14  20
HETATM   20  C   UNL     1     -40.764  53.387 -52.171  1.00  0.00    -0.020 A 
HETATM   21  C   UNL     1     -39.963  52.364 -51.628  1.00  0.00     0.011 A 
HETATM   22  C   UNL     1     -39.576  51.269 -52.408  1.00  0.00     0.024 A 
HETATM   23  C   UNL     1     -39.982  51.182 -53.736  1.00  0.00     0.034 A 
HETATM   24 CL   UNL     1     -39.505  49.837 -54.692  1.00  0.00    -0.084 Cl
HETATM   25  C   UNL     1     -40.776  52.181 -54.293  1.00  0.00     0.024 A 
HETATM   26  C   UNL     1     -41.164  53.278 -53.518  1.00  0.00     0.011 A 
ENDBRANCH  14  20
ENDBRANCH   1  14
TORSDOF 5
ENDMDL
MODEL 3
REMARK VINA RESULT:      -7.5      3.408      6.289
REMARK  5 active torsions:
REMARK  status: ('A' for Active; 'I' for Inactive)
REMARK    1  A    between atoms: C_8  and  C_9 
REMARK    2  A    between atoms: C_9  and  N_10 
REMARK    3  A    between atoms: N_10  and  C_13 
REMARK    4  A    between atoms: C_13  and  C_14 
REMARK    5  A    between atoms: C_13  and  C_19 
ROOT
HETATM    1  N   UNL     1     -42.553  54.794 -51.419  1.00  0.00    -0.056 N 
HETATM    2  H   UNL     1     -43.010  54.147 -50.765  1.00  0.00     0.278 HD
HETATM    3  H   UNL     1     -42.878  54.551 -52.364  1.00  0.00     0.278 HD
ENDROOT
BRANCH   1   4
HETATM    4  C   UNL     1     -43.003  56.174 -51.101  1.00  0.00     0.275 C 
BRANCH   4   5
HETATM    5  C   UNL     1     -42.354  57.174 -52.003  1.00  0.00     0.004 A 
HETATM    6  C   UNL     1     -42.510  57.093 -53.379  1.00  0.00     0.113 A 
HETATM    7  C   UNL     1     -41.924  57.992 -54.239  1.00  0.00     0.105 A 
HETATM    8  O   UNL     1     -43.262  56.163 -54.035  1.00  0.00    -0.322 OA
HETATM    9  C   UNL     1     -41.151  59.033 -53.777  1.00  0.00     0.040 A 
HETATM   10  O   UNL     1     -42.211  57.728 -55.540  1.00  0.00    -0.323 OA
HETATM   11  C   UNL     1     -40.974  59.150 -52.397  1.00  0.00     0.003 A 
HETATM   12  C   UNL     1     -41.569  58.228 -51.514  1.00  0.00     0.012 A 
HETATM   13  C   UNL     1     -42.997  56.529 -55.417  1.00  0.00     0.352 A 
ENDBRANCH   4   5
ENDBRANCH   1   4
BRANCH   1  14
HETATM   14  C   UNL     1     -41.074  54.567 -51.333  1.00  0.00     0.292 C 
BRANCH  14  15
HETATM   15  C   UNL     1     -40.591  54.275 -49.941  1.00  0.00     0.190 A 
HETATM   16  N   UNL     1     -39.321  54.445 -49.556  1.00  0.00    -0.109 NA
HETATM   17  O   UNL     1     -39.355  54.108 -48.199  1.00  0.00    -0.205 OA
HETATM   18  C   UNL     1     -40.649  53.814 -47.906  1.00  0.00     0.288 A 
HETATM   19  N   UNL     1     -41.466  53.935 -48.929  1.00  0.00    -0.215 NA
ENDBRANCH  14  15
BRANCH  14  20
HETATM   20  C   UNL     1     -40.664  53.372 -52.179  1.00  0.00    -0.020 A 
HETATM   21  C   UNL     1     -41.068  53.303 -53.526  1.00  0.00     0.011 A 
HETATM   22  C   UNL     1     -40.725  52.204 -54.319  1.00  0.00     0.024 A 
HETATM   23  C   UNL     1     -39.978  51.160 -53.780  1.00  0.00     0.034 A 
HETATM   24 CL   UNL     1     -39.560  49.811 -54.757  1.00  0.00    -0.084 Cl
HETATM   25  C   UNL     1     -39.567  51.208 -52.450  1.00  0.00     0.024 A 
HETATM   26  C   UNL     1     -39.908  52.305 -51.652  1.00  0.00     0.011 A 
ENDBRANCH  14  20
ENDBRANCH   1  14
TORSDOF 5
ENDMDL
MODEL 4
REMARK VINA RESULT:      -7.4      1.174      2.190
REMARK  5 active torsions:
REMARK  status: ('A' for Active; 'I' for Inactive)
REMARK    1  A    between atoms: C_8  and  C_9 
REMARK    2  A    between atoms: C_9  and  N_10 
REMARK    3  A    between atoms: N_10  and  C_13 
REMARK    4  A    between atoms: C_13  and  C_14 
REMARK    5  A    between atoms: C_13  and  C_19 
ROOT
HETATM    1  N   UNL     1     -43.964  55.951 -52.656  1.00  0.00    -0.056 N 
HETATM    2  H   UNL     1     -44.880  55.729 -52.251  1.00  0.00     0.278 HD
HETATM    3  H   UNL     1     -43.249  55.618 -51.997  1.00  0.00     0.278 HD
ENDROOT
BRANCH   1   4
HETATM    4  C   UNL     1     -43.822  55.200 -53.931  1.00  0.00     0.275 C 
BRANCH   4   5
HETATM    5  C   UNL     1     -42.463  54.590 -54.049  1.00  0.00     0.004 A 
HETATM    6  C   UNL     1     -41.853  53.999 -52.952  1.00  0.00     0.113 A 
HETATM    7  C   UNL     1     -40.603  53.432 -53.023  1.00  0.00     0.105 A 
HETATM    8  O   UNL     1     -42.406  53.881 -51.711  1.00  0.00    -0.322 OA
HETATM    9  C   UNL     1     -39.885  53.413 -54.197  1.00  0.00     0.040 A 
HETATM   10  O   UNL     1     -40.201  52.911 -51.835  1.00  0.00    -0.323 OA
HETATM   11  C   UNL     1     -40.468  53.995 -55.325  1.00  0.00     0.003 A 
HETATM   12  C   UNL     1     -41.746  54.580 -55.255  1.00  0.00     0.012 A 
HETATM   13  C   UNL     1     -41.310  53.258 -50.986  1.00  0.00     0.352 A 
ENDBRANCH   4   5
ENDBRANCH   1   4
BRANCH   1  14
HETATM   14  C   UNL     1     -43.863  57.441 -52.778  1.00  0.00     0.292 C 
BRANCH  14  15
HETATM   15  C   UNL     1     -44.893  58.181 -51.973  1.00  0.00     0.190 A 
HETATM   16  N   UNL     1     -45.510  57.653 -50.909  1.00  0.00    -0.109 NA
HETATM   17  O   UNL     1     -46.321  58.700 -50.461  1.00  0.00    -0.205 OA
HETATM   18  C   UNL     1     -46.071  59.758 -51.277  1.00  0.00     0.288 A 
HETATM   19  N   UNL     1     -45.173  59.512 -52.205  1.00  0.00    -0.215 NA
ENDBRANCH  14  15
BRANCH  14  20
HETATM   20  C   UNL     1     -42.512  57.932 -52.281  1.00  0.00    -0.020 A 
HETATM   21  C   UNL     1     -41.572  58.428 -53.204  1.00  0.00     0.011 A 
HETATM   22  C   UNL     1     -40.313  58.862 -52.777  1.00  0.00     0.024 A 
HETATM   23  C   UNL     1     -39.976  58.806 -51.428  1.00  0.00     0.034 A 
HETATM   24 CL   UNL     1     -38.428  59.339 -50.907  1.00  0.00    -0.084 Cl
HETATM   25  C   UNL     1     -40.892  58.319 -50.498  1.00  0.00     0.024 A 
HETATM   26  C   UNL     1     -42.151  57.883 -50.919  1.00  0.00     0.011 A 
ENDBRANCH  14  20
ENDBRANCH   1  14
TORSDOF 5
ENDMDL
MODEL 5
REMARK VINA RESULT:      -7.2      3.370      6.800
REMARK  5 active torsions:
REMARK  status: ('A' for Active; 'I' for Inactive)
REMARK    1  A    between atoms: C_8  and  C_9 
REMARK    2  A    between atoms: C_9  and  N_10 
REMARK    3  A    between atoms: N_10  and  C_13 
REMARK    4  A    between atoms: C_13  and  C_14 
REMARK    5  A    between atoms: C_13  and  C_19 
ROOT
HETATM    1  N   UNL     1     -41.119  53.913 -50.694  1.00  0.00    -0.056 N 
HETATM    2  H   UNL     1     -40.942  53.202 -49.976  1.00  0.00     0.278 HD
HETATM    3  H   UNL     1     -42.113  53.847 -50.951  1.00  0.00     0.278 HD
ENDROOT
BRANCH   1   4
HETATM    4  C   UNL     1     -40.870  55.251 -50.098  1.00  0.00     0.275 C 
BRANCH   4   5
HETATM    5  C   UNL     1     -41.879  56.248 -50.569  1.00  0.00     0.004 A 
HETATM    6  C   UNL     1     -41.507  57.552 -50.857  1.00  0.00     0.113 A 
HETATM    7  C   UNL     1     -42.409  58.496 -51.288  1.00  0.00     0.105 A 
HETATM    8  O   UNL     1     -40.237  58.045 -50.783  1.00  0.00    -0.322 OA
HETATM    9  C   UNL     1     -43.740  58.194 -51.465  1.00  0.00     0.040 A 
HETATM   10  O   UNL     1     -41.829  59.703 -51.513  1.00  0.00    -0.323 OA
HETATM   11  C   UNL     1     -44.153  56.889 -51.188  1.00  0.00     0.003 A 
HETATM   12  C   UNL     1     -43.233  55.922 -50.743  1.00  0.00     0.012 A 
HETATM   13  C   UNL     1     -40.469  59.439 -51.124  1.00  0.00     0.352 A 
ENDBRANCH   4   5
ENDBRANCH   1   4
BRANCH   1  14
HETATM   14  C   UNL     1     -40.280  53.580 -51.890  1.00  0.00     0.292 C 
BRANCH  14  15
HETATM   15  C   UNL     1     -39.981  52.114 -52.025  1.00  0.00     0.190 A 
HETATM   16  N   UNL     1     -39.655  51.536 -53.186  1.00  0.00    -0.109 NA
HETATM   17  O   UNL     1     -39.417  50.207 -52.823  1.00  0.00    -0.205 OA
HETATM   18  C   UNL     1     -39.583  50.140 -51.475  1.00  0.00     0.288 A 
HETATM   19  N   UNL     1     -39.894  51.290 -50.921  1.00  0.00    -0.215 NA
ENDBRANCH  14  15
BRANCH  14  20
HETATM   20  C   UNL     1     -40.990  53.982 -53.174  1.00  0.00    -0.020 A 
HETATM   21  C   UNL     1     -40.264  54.625 -54.195  1.00  0.00     0.011 A 
HETATM   22  C   UNL     1     -40.897  55.028 -55.376  1.00  0.00     0.024 A 
HETATM   23  C   UNL     1     -42.258  54.795 -55.552  1.00  0.00     0.034 A 
HETATM   24 CL   UNL     1     -43.033  55.291 -57.003  1.00  0.00    -0.084 Cl
HETATM   25  C   UNL     1     -42.994  54.158 -54.555  1.00  0.00     0.024 A 
HETATM   26  C   UNL     1     -42.366  53.755 -53.373  1.00  0.00     0.011 A 
ENDBRANCH  14  20
ENDBRANCH   1  14
TORSDOF 5
ENDMDL
MODEL 6
REMARK VINA RESULT:      -7.2      4.619      6.616
REMARK  5 active torsions:
REMARK  status: ('A' for Active; 'I' for Inactive)
REMARK    1  A    between atoms: C_8  and  C_9 
REMARK    2  A    between atoms: C_9  and  N_10 
REMARK    3  A    between atoms: N_10  and  C_13 
REMARK    4  A    between atoms: C_13  and  C_14 
REMARK    5  A    between atoms: C_13  and  C_19 
ROOT
HETATM    1  N   UNL     1     -41.722  56.117 -55.790  1.00  0.00    -0.056 N 
HETATM    2  H   UNL     1     -42.234  55.241 -55.948  1.00  0.00     0.278 HD
HETATM    3  H   UNL     1     -40.918  56.120 -56.430  1.00  0.00     0.278 HD
ENDROOT
BRANCH   1   4
HETATM    4  C   UNL     1     -42.616  57.250 -56.142  1.00  0.00     0.275 C 
BRANCH   4   5
HETATM    5  C   UNL     1     -42.535  57.568 -57.601  1.00  0.00     0.004 A 
HETATM    6  C   UNL     1     -43.029  56.684 -58.548  1.00  0.00     0.113 A 
HETATM    7  C   UNL     1     -42.967  56.941 -59.897  1.00  0.00     0.105 A 
HETATM    8  O   UNL     1     -43.648  55.499 -58.274  1.00  0.00    -0.322 OA
HETATM    9  C   UNL     1     -42.412  58.103 -60.385  1.00  0.00     0.040 A 
HETATM   10  O   UNL     1     -43.513  55.945 -60.641  1.00  0.00    -0.323 OA
HETATM   11  C   UNL     1     -41.906  59.020 -59.461  1.00  0.00     0.003 A 
HETATM   12  C   UNL     1     -41.965  58.757 -58.079  1.00  0.00     0.012 A 
HETATM   13  C   UNL     1     -43.878  54.999 -59.620  1.00  0.00     0.352 A 
ENDBRANCH   4   5
ENDBRANCH   1   4
BRANCH   1  14
HETATM   14  C   UNL     1     -41.225  56.111 -54.376  1.00  0.00     0.292 C 
BRANCH  14  15
HETATM   15  C   UNL     1     -42.255  56.549 -53.375  1.00  0.00     0.190 A 
HETATM   16  N   UNL     1     -43.391  55.879 -53.150  1.00  0.00    -0.109 NA
HETATM   17  O   UNL     1     -43.994  56.612 -52.123  1.00  0.00    -0.205 OA
HETATM   18  C   UNL     1     -43.134  57.619 -51.812  1.00  0.00     0.288 A 
HETATM   19  N   UNL     1     -42.028  57.611 -52.523  1.00  0.00    -0.215 NA
ENDBRANCH  14  15
BRANCH  14  20
HETATM   20  C   UNL     1     -40.807  54.709 -53.959  1.00  0.00    -0.020 A 
HETATM   21  C   UNL     1     -40.567  53.734 -54.947  1.00  0.00     0.011 A 
HETATM   22  C   UNL     1     -40.205  52.431 -54.591  1.00  0.00     0.024 A 
HETATM   23  C   UNL     1     -40.079  52.084 -53.249  1.00  0.00     0.034 A 
HETATM   24 CL   UNL     1     -39.636  50.482 -52.816  1.00  0.00    -0.084 Cl
HETATM   25  C   UNL     1     -40.310  53.033 -52.257  1.00  0.00     0.024 A 
HETATM   26  C   UNL     1     -40.673  54.337 -52.607  1.00  0.00     0.011 A 
ENDBRANCH  14  20
ENDBRANCH   1  14
TORSDOF 5
ENDMDL
MODEL 7
REMARK VINA RESULT:      -7.2      2.354      2.669
REMARK  5 active torsions:
REMARK  status: ('A' for Active; 'I' for Inactive)
REMARK    1  A    between atoms: C_8  and  C_9 
REMARK    2  A    between atoms: C_9  and  N_10 
REMARK    3  A    between atoms: N_10  and  C_13 
REMARK    4  A    between atoms: C_13  and  C_14 
REMARK    5  A    between atoms: C_13  and  C_19 
ROOT
HETATM    1  N   UNL     1     -41.849  54.625 -53.990  1.00  0.00    -0.056 N 
HETATM    2  H   UNL     1     -42.643  54.167 -54.452  1.00  0.00     0.278 HD
HETATM    3  H   UNL     1     -42.025  54.590 -52.977  1.00  0.00     0.278 HD
ENDROOT
BRANCH   1   4
HETATM    4  C   UNL     1     -40.621  53.843 -54.287  1.00  0.00     0.275 C 
BRANCH   4   5
HETATM    5  C   UNL     1     -40.328  52.864 -53.196  1.00  0.00     0.004 A 
HETATM    6  C   UNL     1     -40.029  51.543 -53.491  1.00  0.00     0.113 A 
HETATM    7  C   UNL     1     -39.759  50.614 -52.514  1.00  0.00     0.105 A 
HETATM    8  O   UNL     1     -39.936  51.016 -54.746  1.00  0.00    -0.322 OA
HETATM    9  C   UNL     1     -39.764  50.949 -51.179  1.00  0.00     0.040 A 
HETATM   10  O   UNL     1     -39.489  49.385 -53.026  1.00  0.00    -0.323 OA
HETATM   11  C   UNL     1     -40.058  52.272 -50.842  1.00  0.00     0.003 A 
HETATM   12  C   UNL     1     -40.339  53.224 -51.840  1.00  0.00     0.012 A 
HETATM   13  C   UNL     1     -39.672  49.620 -54.434  1.00  0.00     0.352 A 
ENDBRANCH   4   5
ENDBRANCH   1   4
BRANCH   1  14
HETATM   14  C   UNL     1     -41.819  56.056 -54.434  1.00  0.00     0.292 C 
BRANCH  14  15
HETATM   15  C   UNL     1     -43.170  56.598 -54.804  1.00  0.00     0.190 A 
HETATM   16  N   UNL     1     -44.266  56.405 -54.062  1.00  0.00    -0.109 NA
HETATM   17  O   UNL     1     -45.248  57.121 -54.753  1.00  0.00    -0.205 OA
HETATM   18  C   UNL     1     -44.626  57.704 -55.812  1.00  0.00     0.288 A 
HETATM   19  N   UNL     1     -43.338  57.450 -55.877  1.00  0.00    -0.215 NA
ENDBRANCH  14  15
BRANCH  14  20
HETATM   20  C   UNL     1     -41.298  56.953 -53.322  1.00  0.00    -0.020 A 
HETATM   21  C   UNL     1     -41.467  56.563 -51.980  1.00  0.00     0.011 A 
HETATM   22  C   UNL     1     -41.019  57.381 -50.937  1.00  0.00     0.024 A 
HETATM   23  C   UNL     1     -40.401  58.595 -51.219  1.00  0.00     0.034 A 
HETATM   24 CL   UNL     1     -39.853  59.598 -49.936  1.00  0.00    -0.084 Cl
HETATM   25  C   UNL     1     -40.223  59.000 -52.540  1.00  0.00     0.024 A 
HETATM   26  C   UNL     1     -40.669  58.186 -53.586  1.00  0.00     0.011 A 
ENDBRANCH  14  20
ENDBRANCH   1  14
TORSDOF 5
ENDMDL
MODEL 8
REMARK VINA RESULT:      -7.2      3.235      6.231
REMARK  5 active torsions:
REMARK  status: ('A' for Active; 'I' for Inactive)
REMARK    1  A    between atoms: C_8  and  C_9 
REMARK    2  A    between atoms: C_9  and  N_10 
REMARK    3  A    between atoms: N_10  and  C_13 
REMARK    4  A    between atoms: C_13  and  C_14 
REMARK    5  A    between atoms: C_13  and  C_19 
ROOT
HETATM    1  N   UNL     1     -41.587  56.316 -53.353  1.00  0.00    -0.056 N 
HETATM    2  H   UNL     1     -42.565  56.628 -53.342  1.00  0.00     0.278 HD
HETATM    3  H   UNL     1     -41.450  55.774 -54.216  1.00  0.00     0.278 HD
ENDROOT
BRANCH   1   4
HETATM    4  C   UNL     1     -40.714  57.516 -53.401  1.00  0.00     0.275 C 
BRANCH   4   5
HETATM    5  C   UNL     1     -41.061  58.481 -52.314  1.00  0.00     0.004 A 
HETATM    6  C   UNL     1     -42.304  59.094 -52.281  1.00  0.00     0.113 A 
HETATM    7  C   UNL     1     -42.657  59.990 -51.299  1.00  0.00     0.105 A 
HETATM    8  O   UNL     1     -43.316  58.876 -53.169  1.00  0.00    -0.322 OA
HETATM    9  C   UNL     1     -41.791  60.323 -50.282  1.00  0.00     0.040 A 
HETATM   10  O   UNL     1     -43.919  60.465 -51.458  1.00  0.00    -0.323 OA
HETATM   11  C   UNL     1     -40.530  59.722 -50.279  1.00  0.00     0.003 A 
HETATM   12  C   UNL     1     -40.165  58.809 -51.286  1.00  0.00     0.012 A 
HETATM   13  C   UNL     1     -44.311  59.818 -52.682  1.00  0.00     0.352 A 
ENDBRANCH   4   5
ENDBRANCH   1   4
BRANCH   1  14
HETATM   14  C   UNL     1     -41.377  55.420 -52.170  1.00  0.00     0.292 C 
BRANCH  14  15
HETATM   15  C   UNL     1     -42.633  55.148 -51.392  1.00  0.00     0.190 A 
HETATM   16  N   UNL     1     -43.338  56.107 -50.780  1.00  0.00    -0.109 NA
HETATM   17  O   UNL     1     -44.425  55.408 -50.246  1.00  0.00    -0.205 OA
HETATM   18  C   UNL     1     -44.279  54.113 -50.632  1.00  0.00     0.288 A 
HETATM   19  N   UNL     1     -43.214  53.896 -51.372  1.00  0.00    -0.215 NA
ENDBRANCH  14  15
BRANCH  14  20
HETATM   20  C   UNL     1     -40.856  54.060 -52.612  1.00  0.00    -0.020 A 
HETATM   21  C   UNL     1     -41.085  53.626 -53.932  1.00  0.00     0.011 A 
HETATM   22  C   UNL     1     -40.638  52.370 -54.357  1.00  0.00     0.024 A 
HETATM   23  C   UNL     1     -39.961  51.535 -53.473  1.00  0.00     0.034 A 
HETATM   24 CL   UNL     1     -39.415  49.993 -53.999  1.00  0.00    -0.084 Cl
HETATM   25  C   UNL     1     -39.724  51.946 -52.164  1.00  0.00     0.024 A 
HETATM   26  C   UNL     1     -40.169  53.199 -51.734  1.00  0.00     0.011 A 
ENDBRANCH  14  20
ENDBRANCH   1  14
TORSDOF 5
ENDMDL
MODEL 9
REMARK VINA RESULT:      -7.2      3.010      4.239
REMARK  5 active torsions:
REMARK  status: ('A' for Active; 'I' for Inactive)
REMARK    1  A    between atoms: C_8  and  C_9 
REMARK    2  A    between atoms: C_9  and  N_10 
REMARK    3  A    between atoms: N_10  and  C_13 
REMARK    4  A    between atoms: C_13  and  C_14 
REMARK    5  A    between atoms: C_13  and  C_19 
ROOT
HETATM    1  N   UNL     1     -41.789  53.615 -53.600  1.00  0.00    -0.056 N 
HETATM    2  H   UNL     1     -41.576  53.777 -54.590  1.00  0.00     0.278 HD
HETATM    3  H   UNL     1     -42.190  52.671 -53.525  1.00  0.00     0.278 HD
ENDROOT
BRANCH   1   4
HETATM    4  C   UNL     1     -40.516  53.653 -52.835  1.00  0.00     0.275 C 
BRANCH   4   5
HETATM    5  C   UNL     1     -40.235  52.335 -52.188  1.00  0.00     0.004 A 
HETATM    6  C   UNL     1     -39.921  51.222 -52.953  1.00  0.00     0.113 A 
HETATM    7  C   UNL     1     -39.662  49.994 -52.393  1.00  0.00     0.105 A 
HETATM    8  O   UNL     1     -39.803  51.206 -54.312  1.00  0.00    -0.322 OA
HETATM    9  C   UNL     1     -39.693  49.802 -51.030  1.00  0.00     0.040 A 
HETATM   10  O   UNL     1     -39.375  49.048 -53.325  1.00  0.00    -0.323 OA
HETATM   11  C   UNL     1     -40.001  50.901 -50.226  1.00  0.00     0.003 A 
HETATM   12  C   UNL     1     -40.272  52.158 -50.797  1.00  0.00     0.012 A 
HETATM   13  C   UNL     1     -39.535  49.796 -54.543  1.00  0.00     0.352 A 
ENDBRANCH   4   5
ENDBRANCH   1   4
BRANCH   1  14
HETATM   14  C   UNL     1     -42.818  54.620 -53.179  1.00  0.00     0.292 C 
BRANCH  14  15
HETATM   15  C   UNL     1     -42.358  55.521 -52.068  1.00  0.00     0.190 A 
HETATM   16  N   UNL     1     -42.639  55.297 -50.779  1.00  0.00    -0.109 NA
HETATM   17  O   UNL     1     -41.974  56.339 -50.125  1.00  0.00    -0.205 OA
HETATM   18  C   UNL     1     -41.329  57.050 -51.087  1.00  0.00     0.288 A 
HETATM   19  N   UNL     1     -41.496  56.573 -52.301  1.00  0.00    -0.215 NA
ENDBRANCH  14  15
BRANCH  14  20
HETATM   20  C   UNL     1     -43.180  55.536 -54.338  1.00  0.00    -0.020 A 
HETATM   21  C   UNL     1     -42.500  55.404 -55.564  1.00  0.00     0.011 A 
HETATM   22  C   UNL     1     -42.796  56.249 -56.639  1.00  0.00     0.024 A 
HETATM   23  C   UNL     1     -43.769  57.235 -56.503  1.00  0.00     0.034 A 
HETATM   24 CL   UNL     1     -44.129  58.272 -57.825  1.00  0.00    -0.084 Cl
HETATM   25  C   UNL     1     -44.454  57.382 -55.300  1.00  0.00     0.024 A 
HETATM   26  C   UNL     1     -44.162  56.540 -54.222  1.00  0.00     0.011 A 
ENDBRANCH  14  20
ENDBRANCH   1  14
TORSDOF 5
ENDMDL
MODEL 10
REMARK VINA RESULT:      -7.1      3.846      5.771
REMARK  5 active torsions:
REMARK  status: ('A' for Active; 'I' for Inactive)
REMARK    1  A    between atoms: C_8  and  C_9 
REMARK    2  A    between atoms: C_9  and  N_10 
REMARK    3  A    between atoms: N_10  and  C_13 
REMARK    4  A    between atoms: C_13  and  C_14 
REMARK    5  A    between atoms: C_13  and  C_19 
ROOT
HETATM    1  N   UNL     1     -43.301  57.431 -54.577  1.00  0.00    -0.056 N 
HETATM    2  H   UNL     1     -43.678  58.264 -55.043  1.00  0.00     0.278 HD
HETATM    3  H   UNL     1     -42.315  57.625 -54.356  1.00  0.00     0.278 HD
ENDROOT
BRANCH   1   4
HETATM    4  C   UNL     1     -44.043  57.232 -53.305  1.00  0.00     0.275 C 
BRANCH   4   5
HETATM    5  C   UNL     1     -43.120  56.838 -52.197  1.00  0.00     0.004 A 
HETATM    6  C   UNL     1     -42.074  57.666 -51.818  1.00  0.00     0.113 A 
HETATM    7  C   UNL     1     -41.203  57.334 -50.808  1.00  0.00     0.105 A 
HETATM    8  O   UNL     1     -41.799  58.888 -52.358  1.00  0.00    -0.322 OA
HETATM    9  C   UNL     1     -41.326  56.156 -50.106  1.00  0.00     0.040 A 
HETATM   10  O   UNL     1     -40.259  58.288 -50.602  1.00  0.00    -0.323 OA
HETATM   11  C   UNL     1     -42.371  55.297 -50.457  1.00  0.00     0.003 A 
HETATM   12  C   UNL     1     -43.262  55.633 -51.494  1.00  0.00     0.012 A 
HETATM   13  C   UNL     1     -40.590  59.238 -51.630  1.00  0.00     0.352 A 
ENDBRANCH   4   5
ENDBRANCH   1   4
BRANCH   1  14
HETATM   14  C   UNL     1     -43.372  56.289 -55.544  1.00  0.00     0.292 C 
BRANCH  14  15
HETATM   15  C   UNL     1     -43.027  56.674 -56.954  1.00  0.00     0.190 A 
HETATM   16  N   UNL     1     -42.430  57.828 -57.274  1.00  0.00    -0.109 NA
HETATM   17  O   UNL     1     -42.263  57.726 -58.658  1.00  0.00    -0.205 OA
HETATM   18  C   UNL     1     -42.737  56.502 -59.015  1.00  0.00     0.288 A 
HETATM   19  N   UNL     1     -43.187  55.792 -58.004  1.00  0.00    -0.215 NA
ENDBRANCH  14  15
BRANCH  14  20
HETATM   20  C   UNL     1     -42.389  55.195 -55.157  1.00  0.00    -0.020 A 
HETATM   21  C   UNL     1     -42.872  53.909 -54.844  1.00  0.00     0.011 A 
HETATM   22  C   UNL     1     -41.993  52.891 -54.460  1.00  0.00     0.024 A 
HETATM   23  C   UNL     1     -40.626  53.141 -54.384  1.00  0.00     0.034 A 
HETATM   24 CL   UNL     1     -39.550  51.888 -53.912  1.00  0.00    -0.084 Cl
HETATM   25  C   UNL     1     -40.128  54.405 -54.690  1.00  0.00     0.024 A 
HETATM   26  C   UNL     1     -41.002  55.427 -55.073  1.00  0.00     0.011 A 
ENDBRANCH  14  20
ENDBRANCH   1  14
TORSDOF 5
ENDMDL
