MODEL 1
REMARK VINA RESULT:      -8.5      0.000      0.000
REMARK  4 active torsions:
REMARK  status: ('A' for Active; 'I' for Inactive)
REMARK    1  A    between atoms: C_6  and  N_7 
REMARK       I    between atoms: N_7  and  C_8 
REMARK    2  A    between atoms: C_8  and  C_9 
REMARK    3  A    between atoms: C_10  and  C_11 
REMARK    4  A    between atoms: C_13  and  O_14 
ROOT
HETATM    1  C   UNL     1     -43.014  56.856 -52.577  1.00  0.00     0.062 A 
HETATM    2  C   UNL     1     -42.671  58.056 -53.451  1.00  0.00     0.202 A 
HETATM    3  N   UNL     1     -43.079  59.314 -52.810  1.00  0.00    -0.084 N 
HETATM    4  C   UNL     1     -43.693  59.388 -51.587  1.00  0.00     0.725 A 
HETATM    5  N   UNL     1     -43.973  58.256 -50.918  1.00  0.00    -0.192 N 
HETATM    6  N   UNL     1     -42.739  60.543 -53.257  1.00  0.00    -0.149 NA
HETATM    7  C   UNL     1     -43.291  61.311 -52.311  1.00  0.00     0.275 A 
HETATM    8  N   UNL     1     -43.871  60.643 -51.264  1.00  0.00    -0.054 NA
HETATM    9  C   UNL     1     -43.641  56.990 -51.383  1.00  0.00     0.037 A 
HETATM   10  C   UNL     1     -44.009  55.842 -50.476  1.00  0.00     0.070 C 
HETATM   11  H   UNL     1     -44.434  58.324 -50.014  1.00  0.00     0.184 HD
ENDROOT
BRANCH   1  12
HETATM   12  C   UNL     1     -42.737  55.504 -53.123  1.00  0.00     0.256 C 
HETATM   13  N   UNL     1     -41.477  55.043 -52.808  1.00  0.00    -0.323 N 
HETATM   14  H   UNL     1     -40.891  55.646 -52.249  1.00  0.00     0.169 HD
HETATM   15  O   UNL     1     -43.615  54.930 -53.755  1.00  0.00    -0.267 OA
BRANCH  13  16
HETATM   16  C   UNL     1     -40.914  53.786 -53.143  1.00  0.00     0.041 A 
HETATM   17  C   UNL     1     -40.335  53.004 -52.120  1.00  0.00    -0.035 A 
HETATM   18  C   UNL     1     -39.804  51.737 -52.434  1.00  0.00     0.015 A 
HETATM   19  C   UNL     1     -40.260  53.469 -50.690  1.00  0.00     0.050 C 
HETATM   20  C   UNL     1     -39.819  51.245 -53.742  1.00  0.00    -0.061 A 
HETATM   21  C   UNL     1     -39.288  49.878 -54.059  1.00  0.00     0.048 C 
HETATM   22  C   UNL     1     -40.391  52.026 -54.745  1.00  0.00     0.009 A 
HETATM   23  C   UNL     1     -40.925  53.283 -54.449  1.00  0.00     0.030 A 
ENDBRANCH  13  16
ENDBRANCH   1  12
BRANCH   2  24
HETATM   24  C   UNL     1     -43.203  57.992 -54.880  1.00  0.00    -0.025 A 
HETATM   25  C   UNL     1     -42.363  57.755 -55.985  1.00  0.00     0.046 A 
HETATM   26  C   UNL     1     -42.880  57.733 -57.283  1.00  0.00     0.068 A 
HETATM   27  C   UNL     1     -44.252  57.887 -57.482  1.00  0.00     0.037 A 
HETATM   28  C   UNL     1     -45.103  58.093 -56.399  1.00  0.00     0.003 A 
HETATM   29  C   UNL     1     -44.582  58.150 -55.107  1.00  0.00     0.010 A 
BRANCH  26  30
HETATM   30  O   UNL     1     -42.149  57.551 -58.426  1.00  0.00    -0.356 OA
HETATM   31  C   UNL     1     -42.671  56.606 -59.355  1.00  0.00     0.210 C 
ENDBRANCH  26  30
ENDBRANCH   2  24
TORSDOF 4
ENDMDL
MODEL 2
REMARK VINA RESULT:      -8.3     16.236     18.341
REMARK  4 active torsions:
REMARK  status: ('A' for Active; 'I' for Inactive)
REMARK    1  A    between atoms: C_6  and  N_7 
REMARK       I    between atoms: N_7  and  C_8 
REMARK    2  A    between atoms: C_8  and  C_9 
REMARK    3  A    between atoms: C_10  and  C_11 
REMARK    4  A    between atoms: C_13  and  O_14 
ROOT
HETATM    1  C   UNL     1     -36.449  41.367 -55.005  1.00  0.00     0.062 A 
HETATM    2  C   UNL     1     -35.730  41.301 -56.347  1.00  0.00     0.202 A 
HETATM    3  N   UNL     1     -36.667  40.992 -57.436  1.00  0.00    -0.084 N 
HETATM    4  C   UNL     1     -38.010  40.788 -57.258  1.00  0.00     0.725 A 
HETATM    5  N   UNL     1     -38.530  40.844 -56.019  1.00  0.00    -0.192 N 
HETATM    6  N   UNL     1     -36.356  41.053 -58.749  1.00  0.00    -0.149 NA
HETATM    7  C   UNL     1     -37.539  40.753 -59.297  1.00  0.00     0.275 A 
HETATM    8  N   UNL     1     -38.580  40.598 -58.420  1.00  0.00    -0.054 NA
HETATM    9  C   UNL     1     -37.779  41.136 -54.887  1.00  0.00     0.037 A 
HETATM   10  C   UNL     1     -38.544  41.184 -53.587  1.00  0.00     0.070 C 
HETATM   11  H   UNL     1     -39.526  40.685 -55.899  1.00  0.00     0.184 HD
ENDROOT
BRANCH   1  12
HETATM   12  C   UNL     1     -35.623  41.590 -53.791  1.00  0.00     0.256 C 
HETATM   13  N   UNL     1     -35.082  40.427 -53.286  1.00  0.00    -0.323 N 
HETATM   14  H   UNL     1     -35.285  39.571 -53.781  1.00  0.00     0.169 HD
HETATM   15  O   UNL     1     -35.481  42.732 -53.374  1.00  0.00    -0.267 OA
BRANCH  13  16
HETATM   16  C   UNL     1     -34.224  40.296 -52.166  1.00  0.00     0.041 A 
HETATM   17  C   UNL     1     -34.793  40.069 -50.894  1.00  0.00    -0.035 A 
HETATM   18  C   UNL     1     -33.949  39.902 -49.777  1.00  0.00     0.015 A 
HETATM   19  C   UNL     1     -36.281  39.994 -50.674  1.00  0.00     0.050 C 
HETATM   20  C   UNL     1     -32.558  39.977 -49.899  1.00  0.00    -0.061 A 
HETATM   21  C   UNL     1     -31.667  39.758 -48.712  1.00  0.00     0.048 C 
HETATM   22  C   UNL     1     -32.007  40.204 -51.158  1.00  0.00     0.009 A 
HETATM   23  C   UNL     1     -32.831  40.368 -52.276  1.00  0.00     0.030 A 
ENDBRANCH  13  16
ENDBRANCH   1  12
BRANCH   2  24
HETATM   24  C   UNL     1     -34.531  40.357 -56.396  1.00  0.00    -0.025 A 
HETATM   25  C   UNL     1     -33.204  40.826 -56.391  1.00  0.00     0.046 A 
HETATM   26  C   UNL     1     -32.131  39.935 -56.466  1.00  0.00     0.068 A 
HETATM   27  C   UNL     1     -32.375  38.562 -56.486  1.00  0.00     0.037 A 
HETATM   28  C   UNL     1     -33.681  38.077 -56.462  1.00  0.00     0.003 A 
HETATM   29  C   UNL     1     -34.752  38.967 -56.422  1.00  0.00     0.010 A 
BRANCH  26  30
HETATM   30  O   UNL     1     -30.809  40.286 -56.508  1.00  0.00    -0.356 OA
HETATM   31  C   UNL     1     -29.880  39.207 -56.581  1.00  0.00     0.210 C 
ENDBRANCH  26  30
ENDBRANCH   2  24
TORSDOF 4
ENDMDL
MODEL 3
REMARK VINA RESULT:      -8.3      2.419      4.250
REMARK  4 active torsions:
REMARK  status: ('A' for Active; 'I' for Inactive)
REMARK    1  A    between atoms: C_6  and  N_7 
REMARK       I    between atoms: N_7  and  C_8 
REMARK    2  A    between atoms: C_8  and  C_9 
REMARK    3  A    between atoms: C_10  and  C_11 
REMARK    4  A    between atoms: C_13  and  O_14 
ROOT
HETATM    1  C   UNL     1     -43.474  56.695 -55.562  1.00  0.00     0.062 A 
HETATM    2  C   UNL     1     -43.874  57.958 -54.808  1.00  0.00     0.202 A 
HETATM    3  N   UNL     1     -44.073  59.085 -55.730  1.00  0.00    -0.084 N 
HETATM    4  C   UNL     1     -43.915  59.003 -57.088  1.00  0.00     0.725 A 
HETATM    5  N   UNL     1     -43.530  57.839 -57.640  1.00  0.00    -0.192 N 
HETATM    6  N   UNL     1     -44.609  60.274 -55.375  1.00  0.00    -0.149 NA
HETATM    7  C   UNL     1     -44.628  60.899 -56.558  1.00  0.00     0.275 A 
HETATM    8  N   UNL     1     -44.225  60.151 -57.633  1.00  0.00    -0.054 NA
HETATM    9  C   UNL     1     -43.313  56.679 -56.907  1.00  0.00     0.037 A 
HETATM   10  C   UNL     1     -42.916  55.463 -57.707  1.00  0.00     0.070 C 
HETATM   11  H   UNL     1     -43.410  57.792 -58.649  1.00  0.00     0.184 HD
ENDROOT
BRANCH   1  12
HETATM   12  C   UNL     1     -43.156  55.486 -54.761  1.00  0.00     0.256 C 
HETATM   13  N   UNL     1     -41.806  55.212 -54.713  1.00  0.00    -0.323 N 
HETATM   14  H   UNL     1     -41.189  55.844 -55.201  1.00  0.00     0.169 HD
HETATM   15  O   UNL     1     -44.070  54.878 -54.220  1.00  0.00    -0.267 OA
BRANCH  13  16
HETATM   16  C   UNL     1     -41.169  54.158 -54.010  1.00  0.00     0.041 A 
HETATM   17  C   UNL     1     -41.004  54.272 -52.613  1.00  0.00    -0.035 A 
HETATM   18  C   UNL     1     -40.404  53.218 -51.897  1.00  0.00     0.015 A 
HETATM   19  C   UNL     1     -41.449  55.488 -51.842  1.00  0.00     0.050 C 
HETATM   20  C   UNL     1     -39.949  52.066 -52.545  1.00  0.00    -0.061 A 
HETATM   21  C   UNL     1     -39.348  50.930 -51.770  1.00  0.00     0.048 C 
HETATM   22  C   UNL     1     -40.113  51.964 -53.925  1.00  0.00     0.009 A 
HETATM   23  C   UNL     1     -40.710  53.000 -54.648  1.00  0.00     0.030 A 
ENDBRANCH  13  16
ENDBRANCH   1  12
BRANCH   2  24
HETATM   24  C   UNL     1     -42.936  58.361 -53.673  1.00  0.00    -0.025 A 
HETATM   25  C   UNL     1     -41.566  58.612 -53.883  1.00  0.00     0.046 A 
HETATM   26  C   UNL     1     -40.730  58.950 -52.817  1.00  0.00     0.068 A 
HETATM   27  C   UNL     1     -41.269  59.100 -51.539  1.00  0.00     0.037 A 
HETATM   28  C   UNL     1     -42.627  58.885 -51.316  1.00  0.00     0.003 A 
HETATM   29  C   UNL     1     -43.454  58.513 -52.374  1.00  0.00     0.010 A 
BRANCH  26  30
HETATM   30  O   UNL     1     -39.383  59.175 -52.904  1.00  0.00    -0.356 OA
HETATM   31  C   UNL     1     -38.673  59.191 -51.669  1.00  0.00     0.210 C 
ENDBRANCH  26  30
ENDBRANCH   2  24
TORSDOF 4
ENDMDL
MODEL 4
REMARK VINA RESULT:      -8.2      2.841      4.427
REMARK  4 active torsions:
REMARK  status: ('A' for Active; 'I' for Inactive)
REMARK    1  A    between atoms: C_6  and  N_7 
REMARK       I    between atoms: N_7  and  C_8 
REMARK    2  A    between atoms: C_8  and  C_9 
REMARK    3  A    between atoms: C_10  and  C_11 
REMARK    4  A    between atoms: C_13  and  O_14 
ROOT
HETATM    1  C   UNL     1     -42.357  58.106 -56.420  1.00  0.00     0.062 A 
HETATM    2  C   UNL     1     -42.259  58.082 -57.941  1.00  0.00     0.202 A 
HETATM    3  N   UNL     1     -42.317  59.441 -58.497  1.00  0.00    -0.084 N 
HETATM    4  C   UNL     1     -42.447  60.576 -57.741  1.00  0.00     0.725 A 
HETATM    5  N   UNL     1     -42.554  60.472 -56.405  1.00  0.00    -0.192 N 
HETATM    6  N   UNL     1     -42.067  59.747 -59.790  1.00  0.00    -0.149 NA
HETATM    7  C   UNL     1     -42.186  61.079 -59.756  1.00  0.00     0.275 A 
HETATM    8  N   UNL     1     -42.403  61.626 -58.519  1.00  0.00    -0.054 NA
HETATM    9  C   UNL     1     -42.505  59.260 -55.725  1.00  0.00     0.037 A 
HETATM   10  C   UNL     1     -42.611  59.347 -54.223  1.00  0.00     0.070 C 
HETATM   11  H   UNL     1     -42.656  61.320 -55.854  1.00  0.00     0.184 HD
ENDROOT
BRANCH   1  12
HETATM   12  C   UNL     1     -42.395  56.802 -55.711  1.00  0.00     0.256 C 
HETATM   13  N   UNL     1     -41.145  56.350 -55.347  1.00  0.00    -0.323 N 
HETATM   14  H   UNL     1     -40.356  56.936 -55.582  1.00  0.00     0.169 HD
HETATM   15  O   UNL     1     -43.480  56.276 -55.500  1.00  0.00    -0.267 OA
BRANCH  13  16
HETATM   16  C   UNL     1     -40.836  55.167 -54.631  1.00  0.00     0.041 A 
HETATM   17  C   UNL     1     -40.980  55.162 -53.227  1.00  0.00    -0.035 A 
HETATM   18  C   UNL     1     -40.709  53.982 -52.506  1.00  0.00     0.015 A 
HETATM   19  C   UNL     1     -41.418  56.378 -52.454  1.00  0.00     0.050 C 
HETATM   20  C   UNL     1     -40.280  52.818 -53.151  1.00  0.00    -0.061 A 
HETATM   21  C   UNL     1     -40.033  51.555 -52.381  1.00  0.00     0.048 C 
HETATM   22  C   UNL     1     -40.138  52.834 -54.538  1.00  0.00     0.009 A 
HETATM   23  C   UNL     1     -40.406  53.996 -55.267  1.00  0.00     0.030 A 
ENDBRANCH  13  16
ENDBRANCH   1  12
BRANCH   2  24
HETATM   24  C   UNL     1     -43.269  57.179 -58.643  1.00  0.00    -0.025 A 
HETATM   25  C   UNL     1     -44.629  57.522 -58.761  1.00  0.00     0.046 A 
HETATM   26  C   UNL     1     -45.532  56.657 -59.384  1.00  0.00     0.068 A 
HETATM   27  C   UNL     1     -45.071  55.468 -59.948  1.00  0.00     0.037 A 
HETATM   28  C   UNL     1     -43.723  55.124 -59.867  1.00  0.00     0.003 A 
HETATM   29  C   UNL     1     -42.829  55.971 -59.215  1.00  0.00     0.010 A 
BRANCH  26  30
HETATM   30  O   UNL     1     -46.877  56.874 -59.518  1.00  0.00    -0.356 OA
HETATM   31  C   UNL     1     -47.268  57.717 -60.598  1.00  0.00     0.210 C 
ENDBRANCH  26  30
ENDBRANCH   2  24
TORSDOF 4
ENDMDL
MODEL 5
REMARK VINA RESULT:      -8.1      1.294      1.687
REMARK  4 active torsions:
REMARK  status: ('A' for Active; 'I' for Inactive)
REMARK    1  A    between atoms: C_6  and  N_7 
REMARK       I    between atoms: N_7  and  C_8 
REMARK    2  A    between atoms: C_8  and  C_9 
REMARK    3  A    between atoms: C_10  and  C_11 
REMARK    4  A    between atoms: C_13  and  O_14 
ROOT
HETATM    1  C   UNL     1     -43.111  57.491 -53.194  1.00  0.00     0.062 A 
HETATM    2  C   UNL     1     -42.748  58.539 -54.239  1.00  0.00     0.202 A 
HETATM    3  N   UNL     1     -43.136  59.885 -53.796  1.00  0.00    -0.084 N 
HETATM    4  C   UNL     1     -43.748  60.154 -52.601  1.00  0.00     0.725 A 
HETATM    5  N   UNL     1     -44.046  59.141 -51.768  1.00  0.00    -0.192 N 
HETATM    6  N   UNL     1     -42.775  61.027 -54.424  1.00  0.00    -0.149 NA
HETATM    7  C   UNL     1     -43.314  61.938 -53.606  1.00  0.00     0.275 A 
HETATM    8  N   UNL     1     -43.905  61.446 -52.472  1.00  0.00    -0.054 NA
HETATM    9  C   UNL     1     -43.735  57.814 -52.035  1.00  0.00     0.037 A 
HETATM   10  C   UNL     1     -44.122  56.822 -50.965  1.00  0.00     0.070 C 
HETATM   11  H   UNL     1     -44.506  59.353 -50.886  1.00  0.00     0.184 HD
ENDROOT
BRANCH   1  12
HETATM   12  C   UNL     1     -42.856  56.067 -53.528  1.00  0.00     0.256 C 
HETATM   13  N   UNL     1     -41.560  55.676 -53.270  1.00  0.00    -0.323 N 
HETATM   14  H   UNL     1     -40.937  56.370 -52.883  1.00  0.00     0.169 HD
HETATM   15  O   UNL     1     -43.778  55.388 -53.961  1.00  0.00    -0.267 OA
BRANCH  13  16
HETATM   16  C   UNL     1     -41.003  54.384 -53.443  1.00  0.00     0.041 A 
HETATM   17  C   UNL     1     -40.719  53.606 -52.299  1.00  0.00    -0.035 A 
HETATM   18  C   UNL     1     -40.197  52.306 -52.458  1.00  0.00     0.015 A 
HETATM   19  C   UNL     1     -40.952  54.109 -50.899  1.00  0.00     0.050 C 
HETATM   20  C   UNL     1     -39.935  51.777 -53.725  1.00  0.00    -0.061 A 
HETATM   21  C   UNL     1     -39.418  50.378 -53.886  1.00  0.00     0.048 C 
HETATM   22  C   UNL     1     -40.216  52.555 -54.847  1.00  0.00     0.009 A 
HETATM   23  C   UNL     1     -40.738  53.844 -54.706  1.00  0.00     0.030 A 
ENDBRANCH  13  16
ENDBRANCH   1  12
BRANCH   2  24
HETATM   24  C   UNL     1     -43.281  58.268 -55.643  1.00  0.00    -0.025 A 
HETATM   25  C   UNL     1     -44.654  58.330 -55.950  1.00  0.00     0.046 A 
HETATM   26  C   UNL     1     -45.111  58.047 -57.240  1.00  0.00     0.068 A 
HETATM   27  C   UNL     1     -44.192  57.758 -58.249  1.00  0.00     0.037 A 
HETATM   28  C   UNL     1     -42.827  57.721 -57.971  1.00  0.00     0.003 A 
HETATM   29  C   UNL     1     -42.375  57.969 -56.677  1.00  0.00     0.010 A 
BRANCH  26  30
HETATM   30  O   UNL     1     -46.421  58.041 -57.634  1.00  0.00    -0.356 OA
HETATM   31  C   UNL     1     -46.676  57.525 -58.938  1.00  0.00     0.210 C 
ENDBRANCH  26  30
ENDBRANCH   2  24
TORSDOF 4
ENDMDL
MODEL 6
REMARK VINA RESULT:      -8.1      2.548      6.149
REMARK  4 active torsions:
REMARK  status: ('A' for Active; 'I' for Inactive)
REMARK    1  A    between atoms: C_6  and  N_7 
REMARK       I    between atoms: N_7  and  C_8 
REMARK    2  A    between atoms: C_8  and  C_9 
REMARK    3  A    between atoms: C_10  and  C_11 
REMARK    4  A    between atoms: C_13  and  O_14 
ROOT
HETATM    1  C   UNL     1     -41.120  55.024 -52.710  1.00  0.00     0.062 A 
HETATM    2  C   UNL     1     -41.150  55.874 -51.446  1.00  0.00     0.202 A 
HETATM    3  N   UNL     1     -41.033  55.038 -50.242  1.00  0.00    -0.084 N 
HETATM    4  C   UNL     1     -40.917  53.674 -50.264  1.00  0.00     0.725 A 
HETATM    5  N   UNL     1     -40.931  53.027 -51.442  1.00  0.00    -0.192 N 
HETATM    6  N   UNL     1     -40.844  55.522 -48.995  1.00  0.00    -0.149 NA
HETATM    7  C   UNL     1     -40.743  54.382 -48.301  1.00  0.00     0.275 A 
HETATM    8  N   UNL     1     -40.768  53.229 -49.043  1.00  0.00    -0.054 NA
HETATM    9  C   UNL     1     -41.023  53.673 -52.669  1.00  0.00     0.037 A 
HETATM   10  C   UNL     1     -40.991  52.779 -53.884  1.00  0.00     0.070 C 
HETATM   11  H   UNL     1     -40.850  52.013 -51.446  1.00  0.00     0.184 HD
ENDROOT
BRANCH   1  12
HETATM   12  C   UNL     1     -41.310  55.716 -54.010  1.00  0.00     0.256 C 
HETATM   13  N   UNL     1     -42.509  55.405 -54.615  1.00  0.00    -0.323 N 
HETATM   14  H   UNL     1     -43.122  54.769 -54.126  1.00  0.00     0.169 HD
HETATM   15  O   UNL     1     -40.441  56.482 -54.405  1.00  0.00    -0.267 OA
BRANCH  13  16
HETATM   16  C   UNL     1     -43.011  55.918 -55.838  1.00  0.00     0.041 A 
HETATM   17  C   UNL     1     -43.747  57.122 -55.822  1.00  0.00    -0.035 A 
HETATM   18  C   UNL     1     -44.222  57.661 -57.034  1.00  0.00     0.015 A 
HETATM   19  C   UNL     1     -44.050  57.868 -54.549  1.00  0.00     0.050 C 
HETATM   20  C   UNL     1     -43.997  57.016 -58.254  1.00  0.00    -0.061 A 
HETATM   21  C   UNL     1     -44.472  57.617 -59.544  1.00  0.00     0.048 C 
HETATM   22  C   UNL     1     -43.273  55.826 -58.259  1.00  0.00     0.009 A 
HETATM   23  C   UNL     1     -42.791  55.281 -57.065  1.00  0.00     0.030 A 
ENDBRANCH  13  16
ENDBRANCH   1  12
BRANCH   2  24
HETATM   24  C   UNL     1     -42.346  56.814 -51.324  1.00  0.00    -0.025 A 
HETATM   25  C   UNL     1     -42.211  58.214 -51.385  1.00  0.00     0.046 A 
HETATM   26  C   UNL     1     -43.323  59.047 -51.240  1.00  0.00     0.068 A 
HETATM   27  C   UNL     1     -44.591  58.484 -51.093  1.00  0.00     0.037 A 
HETATM   28  C   UNL     1     -44.749  57.101 -51.059  1.00  0.00     0.003 A 
HETATM   29  C   UNL     1     -43.635  56.271 -51.169  1.00  0.00     0.010 A 
BRANCH  26  30
HETATM   30  O   UNL     1     -43.297  60.415 -51.245  1.00  0.00    -0.356 OA
HETATM   31  C   UNL     1     -43.053  61.030 -52.507  1.00  0.00     0.210 C 
ENDBRANCH  26  30
ENDBRANCH   2  24
TORSDOF 4
ENDMDL
MODEL 7
REMARK VINA RESULT:      -7.9      1.921      2.465
REMARK  4 active torsions:
REMARK  status: ('A' for Active; 'I' for Inactive)
REMARK    1  A    between atoms: C_6  and  N_7 
REMARK       I    between atoms: N_7  and  C_8 
REMARK    2  A    between atoms: C_8  and  C_9 
REMARK    3  A    between atoms: C_10  and  C_11 
REMARK    4  A    between atoms: C_13  and  O_14 
ROOT
HETATM    1  C   UNL     1     -41.572  59.547 -52.878  1.00  0.00     0.062 A 
HETATM    2  C   UNL     1     -42.141  60.297 -54.076  1.00  0.00     0.202 A 
HETATM    3  N   UNL     1     -42.955  61.443 -53.646  1.00  0.00    -0.084 N 
HETATM    4  C   UNL     1     -43.172  61.782 -52.337  1.00  0.00     0.725 A 
HETATM    5  N   UNL     1     -42.640  61.027 -51.360  1.00  0.00    -0.192 N 
HETATM    6  N   UNL     1     -43.430  62.395 -54.479  1.00  0.00    -0.149 NA
HETATM    7  C   UNL     1     -44.027  63.213 -53.604  1.00  0.00     0.275 A 
HETATM    8  N   UNL     1     -43.880  62.881 -52.283  1.00  0.00    -0.054 NA
HETATM    9  C   UNL     1     -41.838  59.918 -51.602  1.00  0.00     0.037 A 
HETATM   10  C   UNL     1     -41.307  59.215 -50.377  1.00  0.00     0.070 C 
HETATM   11  H   UNL     1     -42.813  61.285 -50.393  1.00  0.00     0.184 HD
ENDROOT
BRANCH   1  12
HETATM   12  C   UNL     1     -40.792  58.312 -53.144  1.00  0.00     0.256 C 
HETATM   13  N   UNL     1     -41.574  57.177 -53.180  1.00  0.00    -0.323 N 
HETATM   14  H   UNL     1     -42.567  57.297 -53.036  1.00  0.00     0.169 HD
HETATM   15  O   UNL     1     -39.585  58.403 -53.323  1.00  0.00    -0.267 OA
BRANCH  13  16
HETATM   16  C   UNL     1     -41.150  55.851 -53.444  1.00  0.00     0.041 A 
HETATM   17  C   UNL     1     -41.074  54.933 -52.374  1.00  0.00    -0.035 A 
HETATM   18  C   UNL     1     -40.687  53.603 -52.628  1.00  0.00     0.015 A 
HETATM   19  C   UNL     1     -41.393  55.318 -50.953  1.00  0.00     0.050 C 
HETATM   20  C   UNL     1     -40.357  53.175 -53.918  1.00  0.00    -0.061 A 
HETATM   21  C   UNL     1     -39.986  51.747 -54.186  1.00  0.00     0.048 C 
HETATM   22  C   UNL     1     -40.433  54.089 -54.967  1.00  0.00     0.009 A 
HETATM   23  C   UNL     1     -40.819  55.412 -54.731  1.00  0.00     0.030 A 
ENDBRANCH  13  16
ENDBRANCH   1  12
BRANCH   2  24
HETATM   24  C   UNL     1     -42.918  59.438 -55.070  1.00  0.00    -0.025 A 
HETATM   25  C   UNL     1     -42.371  59.036 -56.304  1.00  0.00     0.046 A 
HETATM   26  C   UNL     1     -43.121  58.275 -57.204  1.00  0.00     0.068 A 
HETATM   27  C   UNL     1     -44.405  57.857 -56.851  1.00  0.00     0.037 A 
HETATM   28  C   UNL     1     -44.952  58.220 -55.623  1.00  0.00     0.003 A 
HETATM   29  C   UNL     1     -44.217  59.009 -54.740  1.00  0.00     0.010 A 
BRANCH  26  30
HETATM   30  O   UNL     1     -42.702  57.866 -58.441  1.00  0.00    -0.356 OA
HETATM   31  C   UNL     1     -42.158  58.880 -59.281  1.00  0.00     0.210 C 
ENDBRANCH  26  30
ENDBRANCH   2  24
TORSDOF 4
ENDMDL
MODEL 8
REMARK VINA RESULT:      -7.3      2.419      4.769
REMARK  4 active torsions:
REMARK  status: ('A' for Active; 'I' for Inactive)
REMARK    1  A    between atoms: C_6  and  N_7 
REMARK       I    between atoms: N_7  and  C_8 
REMARK    2  A    between atoms: C_8  and  C_9 
REMARK    3  A    between atoms: C_10  and  C_11 
REMARK    4  A    between atoms: C_13  and  O_14 
ROOT
HETATM    1  C   UNL     1     -43.182  57.053 -55.185  1.00  0.00     0.062 A 
HETATM    2  C   UNL     1     -43.355  58.450 -54.602  1.00  0.00     0.202 A 
HETATM    3  N   UNL     1     -43.306  59.474 -55.655  1.00  0.00    -0.084 N 
HETATM    4  C   UNL     1     -43.123  59.200 -56.984  1.00  0.00     0.725 A 
HETATM    5  N   UNL     1     -42.952  57.926 -57.380  1.00  0.00    -0.192 N 
HETATM    6  N   UNL     1     -43.615  60.776 -55.466  1.00  0.00    -0.149 NA
HETATM    7  C   UNL     1     -43.477  61.245 -56.712  1.00  0.00     0.275 A 
HETATM    8  N   UNL     1     -43.191  60.310 -57.672  1.00  0.00    -0.054 NA
HETATM    9  C   UNL     1     -42.984  56.843 -56.509  1.00  0.00     0.037 A 
HETATM   10  C   UNL     1     -42.802  55.487 -57.144  1.00  0.00     0.070 C 
HETATM   11  H   UNL     1     -42.811  57.735 -58.368  1.00  0.00     0.184 HD
ENDROOT
BRANCH   1  12
HETATM   12  C   UNL     1     -43.126  55.912 -54.236  1.00  0.00     0.256 C 
HETATM   13  N   UNL     1     -41.839  55.508 -53.954  1.00  0.00    -0.323 N 
HETATM   14  H   UNL     1     -41.088  56.017 -54.397  1.00  0.00     0.169 HD
HETATM   15  O   UNL     1     -44.173  55.463 -53.790  1.00  0.00    -0.267 OA
BRANCH  13  16
HETATM   16  C   UNL     1     -41.438  54.478 -53.067  1.00  0.00     0.041 A 
HETATM   17  C   UNL     1     -40.611  53.442 -53.553  1.00  0.00    -0.035 A 
HETATM   18  C   UNL     1     -40.178  52.430 -52.674  1.00  0.00     0.015 A 
HETATM   19  C   UNL     1     -40.165  53.369 -54.990  1.00  0.00     0.050 C 
HETATM   20  C   UNL     1     -40.565  52.419 -51.330  1.00  0.00    -0.061 A 
HETATM   21  C   UNL     1     -40.066  51.361 -50.392  1.00  0.00     0.048 C 
HETATM   22  C   UNL     1     -41.384  53.444 -50.861  1.00  0.00     0.009 A 
HETATM   23  C   UNL     1     -41.819  54.457 -51.720  1.00  0.00     0.030 A 
ENDBRANCH  13  16
ENDBRANCH   1  12
BRANCH   2  24
HETATM   24  C   UNL     1     -42.394  58.806 -53.471  1.00  0.00    -0.025 A 
HETATM   25  C   UNL     1     -42.834  59.381 -52.264  1.00  0.00     0.046 A 
HETATM   26  C   UNL     1     -41.923  59.722 -51.261  1.00  0.00     0.068 A 
HETATM   27  C   UNL     1     -40.569  59.434 -51.433  1.00  0.00     0.037 A 
HETATM   28  C   UNL     1     -40.118  58.838 -52.608  1.00  0.00     0.003 A 
HETATM   29  C   UNL     1     -41.023  58.530 -53.623  1.00  0.00     0.010 A 
BRANCH  26  30
HETATM   30  O   UNL     1     -42.238  60.319 -50.070  1.00  0.00    -0.356 OA
HETATM   31  C   UNL     1     -43.540  60.892 -49.986  1.00  0.00     0.210 C 
ENDBRANCH  26  30
ENDBRANCH   2  24
TORSDOF 4
ENDMDL
MODEL 9
REMARK VINA RESULT:      -7.3      2.130      5.878
REMARK  4 active torsions:
REMARK  status: ('A' for Active; 'I' for Inactive)
REMARK    1  A    between atoms: C_6  and  N_7 
REMARK       I    between atoms: N_7  and  C_8 
REMARK    2  A    between atoms: C_8  and  C_9 
REMARK    3  A    between atoms: C_10  and  C_11 
REMARK    4  A    between atoms: C_13  and  O_14 
ROOT
HETATM    1  C   UNL     1     -42.926  58.350 -54.258  1.00  0.00     0.062 A 
HETATM    2  C   UNL     1     -42.809  57.634 -52.918  1.00  0.00     0.202 A 
HETATM    3  N   UNL     1     -41.874  58.333 -52.024  1.00  0.00    -0.084 N 
HETATM    4  C   UNL     1     -41.197  59.475 -52.362  1.00  0.00     0.725 A 
HETATM    5  N   UNL     1     -41.359  60.001 -53.588  1.00  0.00    -0.192 N 
HETATM    6  N   UNL     1     -41.711  58.042 -50.714  1.00  0.00    -0.149 NA
HETATM    7  C   UNL     1     -40.826  58.981 -50.361  1.00  0.00     0.275 A 
HETATM    8  N   UNL     1     -40.497  59.886 -51.336  1.00  0.00    -0.054 NA
HETATM    9  C   UNL     1     -42.215  59.467 -54.544  1.00  0.00     0.037 A 
HETATM   10  C   UNL     1     -42.285  60.217 -55.852  1.00  0.00     0.070 C 
HETATM   11  H   UNL     1     -40.847  60.846 -53.829  1.00  0.00     0.184 HD
ENDROOT
BRANCH   1  12
HETATM   12  C   UNL     1     -43.772  57.721 -55.303  1.00  0.00     0.256 C 
HETATM   13  N   UNL     1     -43.083  57.457 -56.468  1.00  0.00    -0.323 N 
HETATM   14  H   UNL     1     -42.104  57.700 -56.489  1.00  0.00     0.169 HD
HETATM   15  O   UNL     1     -44.945  57.481 -55.049  1.00  0.00    -0.267 OA
BRANCH  13  16
HETATM   16  C   UNL     1     -43.584  56.834 -57.639  1.00  0.00     0.041 A 
HETATM   17  C   UNL     1     -44.316  57.609 -58.564  1.00  0.00    -0.035 A 
HETATM   18  C   UNL     1     -44.790  57.010 -59.748  1.00  0.00     0.015 A 
HETATM   19  C   UNL     1     -44.616  59.068 -58.340  1.00  0.00     0.050 C 
HETATM   20  C   UNL     1     -44.568  55.657 -60.018  1.00  0.00    -0.061 A 
HETATM   21  C   UNL     1     -45.041  55.037 -61.299  1.00  0.00     0.048 C 
HETATM   22  C   UNL     1     -43.847  54.899 -59.096  1.00  0.00     0.009 A 
HETATM   23  C   UNL     1     -43.367  55.480 -57.919  1.00  0.00     0.030 A 
ENDBRANCH  13  16
ENDBRANCH   1  12
BRANCH   2  24
HETATM   24  C   UNL     1     -42.455  56.152 -53.001  1.00  0.00    -0.025 A 
HETATM   25  C   UNL     1     -41.361  55.682 -53.753  1.00  0.00     0.046 A 
HETATM   26  C   UNL     1     -41.083  54.315 -53.831  1.00  0.00     0.068 A 
HETATM   27  C   UNL     1     -41.862  53.410 -53.109  1.00  0.00     0.037 A 
HETATM   28  C   UNL     1     -42.930  53.859 -52.336  1.00  0.00     0.003 A 
HETATM   29  C   UNL     1     -43.228  55.219 -52.286  1.00  0.00     0.010 A 
BRANCH  26  30
HETATM   30  O   UNL     1     -40.073  53.750 -54.562  1.00  0.00    -0.356 OA
HETATM   31  C   UNL     1     -39.891  52.347 -54.393  1.00  0.00     0.210 C 
ENDBRANCH  26  30
ENDBRANCH   2  24
TORSDOF 4
ENDMDL
MODEL 10
REMARK VINA RESULT:      -7.3     15.883     19.085
REMARK  4 active torsions:
REMARK  status: ('A' for Active; 'I' for Inactive)
REMARK    1  A    between atoms: C_6  and  N_7 
REMARK       I    between atoms: N_7  and  C_8 
REMARK    2  A    between atoms: C_8  and  C_9 
REMARK    3  A    between atoms: C_10  and  C_11 
REMARK    4  A    between atoms: C_13  and  O_14 
ROOT
HETATM    1  C   UNL     1     -36.209  40.323 -55.221  1.00  0.00     0.062 A 
HETATM    2  C   UNL     1     -35.297  39.768 -54.134  1.00  0.00     0.202 A 
HETATM    3  N   UNL     1     -35.042  40.772 -53.092  1.00  0.00    -0.084 N 
HETATM    4  C   UNL     1     -35.558  42.041 -53.106  1.00  0.00     0.725 A 
HETATM    5  N   UNL     1     -36.331  42.430 -54.135  1.00  0.00    -0.192 N 
HETATM    6  N   UNL     1     -34.428  40.511 -51.917  1.00  0.00    -0.149 NA
HETATM    7  C   UNL     1     -34.506  41.709 -51.326  1.00  0.00     0.275 A 
HETATM    8  N   UNL     1     -35.203  42.668 -52.014  1.00  0.00    -0.054 NA
HETATM    9  C   UNL     1     -36.674  41.596 -55.192  1.00  0.00     0.037 A 
HETATM   10  C   UNL     1     -37.576  42.202 -56.239  1.00  0.00     0.070 C 
HETATM   11  H   UNL     1     -36.703  43.376 -54.137  1.00  0.00     0.184 HD
ENDROOT
BRANCH   1  12
HETATM   12  C   UNL     1     -36.496  39.454 -56.391  1.00  0.00     0.256 C 
HETATM   13  N   UNL     1     -35.867  39.877 -57.543  1.00  0.00    -0.323 N 
HETATM   14  H   UNL     1     -35.286  40.699 -57.476  1.00  0.00     0.169 HD
HETATM   15  O   UNL     1     -37.212  38.474 -56.238  1.00  0.00    -0.267 OA
BRANCH  13  16
HETATM   16  C   UNL     1     -35.903  39.256 -58.816  1.00  0.00     0.041 A 
HETATM   17  C   UNL     1     -36.704  39.825 -59.830  1.00  0.00    -0.035 A 
HETATM   18  C   UNL     1     -36.722  39.238 -61.111  1.00  0.00     0.015 A 
HETATM   19  C   UNL     1     -37.551  41.049 -59.601  1.00  0.00     0.050 C 
HETATM   20  C   UNL     1     -35.977  38.089 -61.395  1.00  0.00    -0.061 A 
HETATM   21  C   UNL     1     -35.970  37.494 -62.772  1.00  0.00     0.048 C 
HETATM   22  C   UNL     1     -35.192  37.534 -60.387  1.00  0.00     0.009 A 
HETATM   23  C   UNL     1     -35.160  38.107 -59.112  1.00  0.00     0.030 A 
ENDBRANCH  13  16
ENDBRANCH   1  12
BRANCH   2  24
HETATM   24  C   UNL     1     -33.982  39.174 -54.631  1.00  0.00    -0.025 A 
HETATM   25  C   UNL     1     -32.969  39.966 -55.205  1.00  0.00     0.046 A 
HETATM   26  C   UNL     1     -31.789  39.385 -55.676  1.00  0.00     0.068 A 
HETATM   27  C   UNL     1     -31.586  38.014 -55.522  1.00  0.00     0.037 A 
HETATM   28  C   UNL     1     -32.564  37.218 -54.930  1.00  0.00     0.003 A 
HETATM   29  C   UNL     1     -33.755  37.792 -54.492  1.00  0.00     0.010 A 
BRANCH  26  30
HETATM   30  O   UNL     1     -30.762  40.055 -56.284  1.00  0.00    -0.356 OA
HETATM   31  C   UNL     1     -29.706  39.246 -56.795  1.00  0.00     0.210 C 
ENDBRANCH  26  30
ENDBRANCH   2  24
TORSDOF 4
ENDMDL
