MODEL 1
REMARK VINA RESULT:      -8.5      0.000      0.000
REMARK  2 active torsions:
REMARK  status: ('A' for Active; 'I' for Inactive)
REMARK    1  A    between atoms: C_10  and  C_11 
REMARK    2  A    between atoms: C_12  and  O_13 
ROOT
HETATM    1  C   UNL     1     -42.110  58.025 -60.359  1.00  0.00     0.076 C 
HETATM    2  C   UNL     1     -43.002  58.080 -59.185  1.00  0.00     0.050 A 
HETATM    3  O   UNL     1     -42.510  57.584 -58.016  1.00  0.00    -0.312 OA
HETATM    4  C   UNL     1     -43.480  57.733 -57.057  1.00  0.00     0.121 A 
HETATM    5  C   UNL     1     -43.298  57.334 -55.699  1.00  0.00     0.163 A 
HETATM    6  N   UNL     1     -44.192  57.439 -54.738  1.00  0.00    -0.221 NA
HETATM    7  C   UNL     1     -43.567  56.990 -53.587  1.00  0.00     0.149 A 
HETATM    8  C   UNL     1     -42.266  56.607 -53.879  1.00  0.00     0.046 A 
HETATM    9  C   UNL     1     -41.162  56.183 -52.979  1.00  0.00     0.070 C 
HETATM   10  C   UNL     1     -41.519  55.031 -52.017  1.00  0.00     0.045 C 
HETATM   11  C   UNL     1     -43.021  54.844 -51.710  1.00  0.00     0.132 C 
HETATM   12  N   UNL     1     -43.717  56.066 -51.343  1.00  0.00    -0.355 N 
HETATM   13  C   UNL     1     -44.198  56.978 -52.264  1.00  0.00     0.272 C 
HETATM   14  O   UNL     1     -45.120  57.724 -51.939  1.00  0.00    -0.266 OA
HETATM   15  N   UNL     1     -42.124  56.810 -55.228  1.00  0.00    -0.340 N 
HETATM   16  H   UNL     1     -41.294  56.668 -55.787  1.00  0.00     0.167 HD
HETATM   17  C   UNL     1     -44.589  58.325 -57.636  1.00  0.00     0.043 A 
HETATM   18  C   UNL     1     -44.282  58.550 -58.999  1.00  0.00     0.035 A 
HETATM   19  H   UNL     1     -44.270  56.065 -50.496  1.00  0.00     0.162 HD
ENDROOT
BRANCH  10  20
HETATM   20  C   UNL     1     -40.868  53.724 -52.477  1.00  0.00    -0.019 A 
HETATM   21  C   UNL     1     -40.013  52.998 -51.618  1.00  0.00     0.074 A 
HETATM   22  C   UNL     1     -39.436  51.802 -52.062  1.00  0.00     0.037 A 
HETATM   23  C   UNL     1     -39.684  51.329 -53.351  1.00  0.00     0.003 A 
HETATM   24  C   UNL     1     -40.499  52.053 -54.214  1.00  0.00     0.001 A 
HETATM   25  C   UNL     1     -41.082  53.245 -53.784  1.00  0.00     0.010 A 
BRANCH  21  26
HETATM   26  O   UNL     1     -39.802  53.539 -50.377  1.00  0.00    -0.355 OA
HETATM   27  C   UNL     1     -40.520  52.985 -49.283  1.00  0.00     0.210 C 
ENDBRANCH  21  26
ENDBRANCH  10  20
TORSDOF 2
ENDMDL
MODEL 2
REMARK VINA RESULT:      -8.2      2.211      4.854
REMARK  2 active torsions:
REMARK  status: ('A' for Active; 'I' for Inactive)
REMARK    1  A    between atoms: C_10  and  C_11 
REMARK    2  A    between atoms: C_12  and  O_13 
ROOT
HETATM    1  C   UNL     1     -45.837  60.160 -49.563  1.00  0.00     0.076 C 
HETATM    2  C   UNL     1     -45.388  60.066 -50.967  1.00  0.00     0.050 A 
HETATM    3  O   UNL     1     -44.937  58.852 -51.387  1.00  0.00    -0.312 OA
HETATM    4  C   UNL     1     -44.578  58.974 -52.707  1.00  0.00     0.121 A 
HETATM    5  C   UNL     1     -44.076  57.884 -53.479  1.00  0.00     0.163 A 
HETATM    6  N   UNL     1     -43.704  57.939 -54.740  1.00  0.00    -0.221 NA
HETATM    7  C   UNL     1     -43.348  56.648 -55.089  1.00  0.00     0.149 A 
HETATM    8  C   UNL     1     -43.512  55.806 -53.998  1.00  0.00     0.046 A 
HETATM    9  C   UNL     1     -43.389  54.329 -53.896  1.00  0.00     0.070 C 
HETATM   10  C   UNL     1     -42.058  53.752 -54.419  1.00  0.00     0.045 C 
HETATM   11  C   UNL     1     -41.294  54.626 -55.438  1.00  0.00     0.132 C 
HETATM   12  N   UNL     1     -42.110  55.130 -56.529  1.00  0.00    -0.355 N 
HETATM   13  C   UNL     1     -42.910  56.253 -56.431  1.00  0.00     0.272 C 
HETATM   14  O   UNL     1     -43.212  56.862 -57.456  1.00  0.00    -0.266 OA
HETATM   15  N   UNL     1     -43.951  56.614 -52.981  1.00  0.00    -0.340 N 
HETATM   16  H   UNL     1     -44.206  56.339 -52.043  1.00  0.00     0.167 HD
HETATM   17  C   UNL     1     -44.805  60.278 -53.109  1.00  0.00     0.043 A 
HETATM   18  C   UNL     1     -45.326  60.978 -51.996  1.00  0.00     0.035 A 
HETATM   19  H   UNL     1     -41.781  54.988 -57.476  1.00  0.00     0.162 HD
ENDROOT
BRANCH  10  20
HETATM   20  C   UNL     1     -41.161  53.326 -53.253  1.00  0.00    -0.019 A 
HETATM   21  C   UNL     1     -40.419  52.126 -53.310  1.00  0.00     0.074 A 
HETATM   22  C   UNL     1     -39.601  51.764 -52.232  1.00  0.00     0.037 A 
HETATM   23  C   UNL     1     -39.526  52.568 -51.096  1.00  0.00     0.003 A 
HETATM   24  C   UNL     1     -40.276  53.736 -51.018  1.00  0.00     0.001 A 
HETATM   25  C   UNL     1     -41.093  54.110 -52.085  1.00  0.00     0.010 A 
BRANCH  21  26
HETATM   26  O   UNL     1     -40.563  51.379 -54.450  1.00  0.00    -0.355 OA
HETATM   27  C   UNL     1     -40.065  50.048 -54.438  1.00  0.00     0.210 C 
ENDBRANCH  21  26
ENDBRANCH  10  20
TORSDOF 2
ENDMDL
MODEL 3
REMARK VINA RESULT:      -7.9      1.929      2.494
REMARK  2 active torsions:
REMARK  status: ('A' for Active; 'I' for Inactive)
REMARK    1  A    between atoms: C_10  and  C_11 
REMARK    2  A    between atoms: C_12  and  O_13 
ROOT
HETATM    1  C   UNL     1     -41.365  60.422 -58.078  1.00  0.00     0.076 C 
HETATM    2  C   UNL     1     -42.387  60.109 -57.059  1.00  0.00     0.050 A 
HETATM    3  O   UNL     1     -42.047  59.194 -56.111  1.00  0.00    -0.312 OA
HETATM    4  C   UNL     1     -43.119  59.052 -55.265  1.00  0.00     0.121 A 
HETATM    5  C   UNL     1     -43.107  58.178 -54.136  1.00  0.00     0.163 A 
HETATM    6  N   UNL     1     -44.103  57.989 -53.296  1.00  0.00    -0.221 NA
HETATM    7  C   UNL     1     -43.629  57.115 -52.334  1.00  0.00     0.149 A 
HETATM    8  C   UNL     1     -42.313  56.776 -52.616  1.00  0.00     0.046 A 
HETATM    9  C   UNL     1     -41.334  55.982 -51.829  1.00  0.00     0.070 C 
HETATM   10  C   UNL     1     -41.832  54.588 -51.395  1.00  0.00     0.045 C 
HETATM   11  C   UNL     1     -43.364  54.405 -51.328  1.00  0.00     0.132 C 
HETATM   12  N   UNL     1     -44.064  55.456 -50.610  1.00  0.00    -0.355 N 
HETATM   13  C   UNL     1     -44.410  56.669 -51.176  1.00  0.00     0.272 C 
HETATM   14  O   UNL     1     -45.344  57.308 -50.694  1.00  0.00    -0.266 OA
HETATM   15  N   UNL     1     -42.010  57.442 -53.776  1.00  0.00    -0.340 N 
HETATM   16  H   UNL     1     -41.125  57.456 -54.263  1.00  0.00     0.167 HD
HETATM   17  C   UNL     1     -44.136  59.886 -55.693  1.00  0.00     0.043 A 
HETATM   18  C   UNL     1     -43.667  60.566 -56.842  1.00  0.00     0.035 A 
HETATM   19  H   UNL     1     -44.713  55.187 -49.881  1.00  0.00     0.162 HD
ENDROOT
BRANCH  10  20
HETATM   20  C   UNL     1     -41.167  53.494 -52.235  1.00  0.00    -0.019 A 
HETATM   21  C   UNL     1     -41.530  53.295 -53.586  1.00  0.00     0.074 A 
HETATM   22  C   UNL     1     -40.900  52.292 -54.333  1.00  0.00     0.037 A 
HETATM   23  C   UNL     1     -39.931  51.475 -53.751  1.00  0.00     0.003 A 
HETATM   24  C   UNL     1     -39.589  51.644 -52.415  1.00  0.00     0.001 A 
HETATM   25  C   UNL     1     -40.206  52.641 -51.659  1.00  0.00     0.010 A 
BRANCH  21  26
HETATM   26  O   UNL     1     -42.505  54.123 -54.078  1.00  0.00    -0.355 OA
HETATM   27  C   UNL     1     -42.583  54.290 -55.487  1.00  0.00     0.210 C 
ENDBRANCH  21  26
ENDBRANCH  10  20
TORSDOF 2
ENDMDL
MODEL 4
REMARK VINA RESULT:      -7.8      2.347      2.419
REMARK  2 active torsions:
REMARK  status: ('A' for Active; 'I' for Inactive)
REMARK    1  A    between atoms: C_10  and  C_11 
REMARK    2  A    between atoms: C_12  and  O_13 
ROOT
HETATM    1  C   UNL     1     -40.932  61.781 -58.747  1.00  0.00     0.076 C 
HETATM    2  C   UNL     1     -41.895  61.588 -57.645  1.00  0.00     0.050 A 
HETATM    3  O   UNL     1     -41.584  60.642 -56.717  1.00  0.00    -0.312 OA
HETATM    4  C   UNL     1     -42.592  60.623 -55.785  1.00  0.00     0.121 A 
HETATM    5  C   UNL     1     -42.586  59.757 -54.651  1.00  0.00     0.163 A 
HETATM    6  N   UNL     1     -43.525  59.683 -53.732  1.00  0.00    -0.221 NA
HETATM    7  C   UNL     1     -43.075  58.763 -52.801  1.00  0.00     0.149 A 
HETATM    8  C   UNL     1     -41.833  58.277 -53.185  1.00  0.00     0.046 A 
HETATM    9  C   UNL     1     -40.888  57.380 -52.471  1.00  0.00     0.070 C 
HETATM   10  C   UNL     1     -41.502  56.051 -51.983  1.00  0.00     0.045 C 
HETATM   11  C   UNL     1     -43.034  56.042 -51.790  1.00  0.00     0.132 C 
HETATM   12  N   UNL     1     -43.551  57.167 -51.029  1.00  0.00    -0.355 N 
HETATM   13  C   UNL     1     -43.804  58.410 -51.579  1.00  0.00     0.272 C 
HETATM   14  O   UNL     1     -44.617  59.151 -51.030  1.00  0.00    -0.266 OA
HETATM   15  N   UNL     1     -41.553  58.902 -54.373  1.00  0.00    -0.340 N 
HETATM   16  H   UNL     1     -40.715  58.815 -54.931  1.00  0.00     0.167 HD
HETATM   17  C   UNL     1     -43.541  61.566 -56.140  1.00  0.00     0.043 A 
HETATM   18  C   UNL     1     -43.094  62.186 -57.330  1.00  0.00     0.035 A 
HETATM   19  H   UNL     1     -44.164  56.975 -50.247  1.00  0.00     0.162 HD
ENDROOT
BRANCH  10  20
HETATM   20  C   UNL     1     -41.035  54.888 -52.861  1.00  0.00    -0.019 A 
HETATM   21  C   UNL     1     -40.729  53.629 -52.296  1.00  0.00     0.074 A 
HETATM   22  C   UNL     1     -40.311  52.580 -53.124  1.00  0.00     0.037 A 
HETATM   23  C   UNL     1     -40.176  52.771 -54.499  1.00  0.00     0.003 A 
HETATM   24  C   UNL     1     -40.445  54.014 -55.060  1.00  0.00     0.001 A 
HETATM   25  C   UNL     1     -40.865  55.067 -54.248  1.00  0.00     0.010 A 
BRANCH  21  26
HETATM   26  O   UNL     1     -40.865  53.529 -50.937  1.00  0.00    -0.355 OA
HETATM   27  C   UNL     1     -40.390  52.345 -50.310  1.00  0.00     0.210 C 
ENDBRANCH  21  26
ENDBRANCH  10  20
TORSDOF 2
ENDMDL
MODEL 5
REMARK VINA RESULT:      -7.8      1.909      7.125
REMARK  2 active torsions:
REMARK  status: ('A' for Active; 'I' for Inactive)
REMARK    1  A    between atoms: C_10  and  C_11 
REMARK    2  A    between atoms: C_12  and  O_13 
ROOT
HETATM    1  C   UNL     1     -39.869  49.831 -54.703  1.00  0.00     0.076 C 
HETATM    2  C   UNL     1     -39.942  50.986 -53.786  1.00  0.00     0.050 A 
HETATM    3  O   UNL     1     -40.797  51.989 -54.129  1.00  0.00    -0.312 OA
HETATM    4  C   UNL     1     -40.723  52.953 -53.156  1.00  0.00     0.121 A 
HETATM    5  C   UNL     1     -41.503  54.148 -53.184  1.00  0.00     0.163 A 
HETATM    6  N   UNL     1     -41.469  55.113 -52.289  1.00  0.00    -0.221 NA
HETATM    7  C   UNL     1     -42.426  56.031 -52.684  1.00  0.00     0.149 A 
HETATM    8  C   UNL     1     -43.042  55.596 -53.849  1.00  0.00     0.046 A 
HETATM    9  C   UNL     1     -44.203  56.153 -54.590  1.00  0.00     0.070 C 
HETATM   10  C   UNL     1     -44.083  57.647 -54.951  1.00  0.00     0.045 C 
HETATM   11  C   UNL     1     -43.118  58.481 -54.080  1.00  0.00     0.132 C 
HETATM   12  N   UNL     1     -43.294  58.303 -52.649  1.00  0.00    -0.355 N 
HETATM   13  C   UNL     1     -42.749  57.251 -51.936  1.00  0.00     0.272 C 
HETATM   14  O   UNL     1     -42.559  57.383 -50.729  1.00  0.00    -0.266 OA
HETATM   15  N   UNL     1     -42.425  54.412 -54.161  1.00  0.00    -0.340 N 
HETATM   16  H   UNL     1     -42.637  53.793 -54.932  1.00  0.00     0.167 HD
HETATM   17  C   UNL     1     -39.810  52.547 -52.198  1.00  0.00     0.043 A 
HETATM   18  C   UNL     1     -39.311  51.286 -52.601  1.00  0.00     0.035 A 
HETATM   19  H   UNL     1     -43.396  59.129 -52.073  1.00  0.00     0.162 HD
ENDROOT
BRANCH  10  20
HETATM   20  C   UNL     1     -43.788  57.817 -56.444  1.00  0.00    -0.019 A 
HETATM   21  C   UNL     1     -44.829  58.077 -57.364  1.00  0.00     0.074 A 
HETATM   22  C   UNL     1     -44.530  58.235 -58.723  1.00  0.00     0.037 A 
HETATM   23  C   UNL     1     -43.217  58.121 -59.180  1.00  0.00     0.003 A 
HETATM   24  C   UNL     1     -42.191  57.836 -58.286  1.00  0.00     0.001 A 
HETATM   25  C   UNL     1     -42.474  57.678 -56.930  1.00  0.00     0.010 A 
BRANCH  21  26
HETATM   26  O   UNL     1     -46.093  58.152 -56.841  1.00  0.00    -0.355 OA
HETATM   27  C   UNL     1     -47.188  58.109 -57.746  1.00  0.00     0.210 C 
ENDBRANCH  21  26
ENDBRANCH  10  20
TORSDOF 2
ENDMDL
MODEL 6
REMARK VINA RESULT:      -7.7      3.721      6.365
REMARK  2 active torsions:
REMARK  status: ('A' for Active; 'I' for Inactive)
REMARK    1  A    between atoms: C_10  and  C_11 
REMARK    2  A    between atoms: C_12  and  O_13 
ROOT
HETATM    1  C   UNL     1     -45.515  62.084 -46.853  1.00  0.00     0.076 C 
HETATM    2  C   UNL     1     -44.758  62.196 -48.116  1.00  0.00     0.050 A 
HETATM    3  O   UNL     1     -44.469  61.033 -48.763  1.00  0.00    -0.312 OA
HETATM    4  C   UNL     1     -43.775  61.352 -49.904  1.00  0.00     0.121 A 
HETATM    5  C   UNL     1     -43.323  60.371 -50.838  1.00  0.00     0.163 A 
HETATM    6  N   UNL     1     -42.645  60.611 -51.940  1.00  0.00    -0.221 NA
HETATM    7  C   UNL     1     -42.478  59.384 -52.558  1.00  0.00     0.149 A 
HETATM    8  C   UNL     1     -43.075  58.390 -51.796  1.00  0.00     0.046 A 
HETATM    9  C   UNL     1     -43.279  56.947 -52.085  1.00  0.00     0.070 C 
HETATM   10  C   UNL     1     -42.002  56.180 -52.485  1.00  0.00     0.045 C 
HETATM   11  C   UNL     1     -40.849  57.034 -53.057  1.00  0.00     0.132 C 
HETATM   12  N   UNL     1     -41.249  57.962 -54.101  1.00  0.00    -0.355 N 
HETATM   13  C   UNL     1     -41.808  59.201 -53.849  1.00  0.00     0.272 C 
HETATM   14  O   UNL     1     -41.716  60.081 -54.703  1.00  0.00    -0.266 OA
HETATM   15  N   UNL     1     -43.583  59.034 -50.697  1.00  0.00    -0.340 N 
HETATM   16  H   UNL     1     -44.114  58.630 -49.938  1.00  0.00     0.167 HD
HETATM   17  C   UNL     1     -43.629  62.726 -49.965  1.00  0.00     0.043 A 
HETATM   18  C   UNL     1     -44.260  63.268 -48.821  1.00  0.00     0.035 A 
HETATM   19  H   UNL     1     -40.729  57.957 -54.970  1.00  0.00     0.162 HD
ENDROOT
BRANCH  10  20
HETATM   20  C   UNL     1     -41.529  55.287 -51.335  1.00  0.00    -0.019 A 
HETATM   21  C   UNL     1     -41.154  53.944 -51.566  1.00  0.00     0.074 A 
HETATM   22  C   UNL     1     -40.718  53.152 -50.497  1.00  0.00     0.037 A 
HETATM   23  C   UNL     1     -40.668  53.670 -49.202  1.00  0.00     0.003 A 
HETATM   24  C   UNL     1     -41.064  54.981 -48.961  1.00  0.00     0.001 A 
HETATM   25  C   UNL     1     -41.498  55.782 -50.017  1.00  0.00     0.010 A 
BRANCH  21  26
HETATM   26  O   UNL     1     -41.252  53.504 -52.859  1.00  0.00    -0.355 OA
HETATM   27  C   UNL     1     -40.314  52.532 -53.301  1.00  0.00     0.210 C 
ENDBRANCH  21  26
ENDBRANCH  10  20
TORSDOF 2
ENDMDL
MODEL 7
REMARK VINA RESULT:      -7.0      2.210      7.312
REMARK  2 active torsions:
REMARK  status: ('A' for Active; 'I' for Inactive)
REMARK    1  A    between atoms: C_10  and  C_11 
REMARK    2  A    between atoms: C_12  and  O_13 
ROOT
HETATM    1  C   UNL     1     -39.249  51.678 -51.338  1.00  0.00     0.076 C 
HETATM    2  C   UNL     1     -39.858  51.981 -52.649  1.00  0.00     0.050 A 
HETATM    3  O   UNL     1     -40.390  53.225 -52.805  1.00  0.00    -0.312 OA
HETATM    4  C   UNL     1     -40.894  53.306 -54.079  1.00  0.00     0.121 A 
HETATM    5  C   UNL     1     -41.514  54.483 -54.596  1.00  0.00     0.163 A 
HETATM    6  N   UNL     1     -42.026  54.620 -55.801  1.00  0.00    -0.221 NA
HETATM    7  C   UNL     1     -42.459  55.932 -55.884  1.00  0.00     0.149 A 
HETATM    8  C   UNL     1     -42.196  56.588 -54.690  1.00  0.00     0.046 A 
HETATM    9  C   UNL     1     -42.350  58.020 -54.325  1.00  0.00     0.070 C 
HETATM   10  C   UNL     1     -43.750  58.609 -54.595  1.00  0.00     0.045 C 
HETATM   11  C   UNL     1     -44.599  57.880 -55.659  1.00  0.00     0.132 C 
HETATM   12  N   UNL     1     -43.899  57.605 -56.902  1.00  0.00    -0.355 N 
HETATM   13  C   UNL     1     -43.059  56.522 -57.084  1.00  0.00     0.272 C 
HETATM   14  O   UNL     1     -42.858  56.107 -58.224  1.00  0.00    -0.266 OA
HETATM   15  N   UNL     1     -41.619  55.645 -53.879  1.00  0.00    -0.340 N 
HETATM   16  H   UNL     1     -41.267  55.773 -52.940  1.00  0.00     0.167 HD
HETATM   17  C   UNL     1     -40.675  52.099 -54.721  1.00  0.00     0.043 A 
HETATM   18  C   UNL     1     -40.010  51.251 -53.805  1.00  0.00     0.035 A 
HETATM   19  H   UNL     1     -44.338  57.886 -57.771  1.00  0.00     0.162 HD
ENDROOT
BRANCH  10  20
HETATM   20  C   UNL     1     -44.519  58.792 -53.284  1.00  0.00    -0.019 A 
HETATM   21  C   UNL     1     -45.272  59.963 -53.042  1.00  0.00     0.074 A 
HETATM   22  C   UNL     1     -45.972  60.100 -51.837  1.00  0.00     0.037 A 
HETATM   23  C   UNL     1     -45.919  59.100 -50.866  1.00  0.00     0.003 A 
HETATM   24  C   UNL     1     -45.156  57.958 -51.083  1.00  0.00     0.001 A 
HETATM   25  C   UNL     1     -44.456  57.807 -52.280  1.00  0.00     0.010 A 
BRANCH  21  26
HETATM   26  O   UNL     1     -45.256  60.907 -54.034  1.00  0.00    -0.355 OA
HETATM   27  C   UNL     1     -46.358  61.801 -54.115  1.00  0.00     0.210 C 
ENDBRANCH  21  26
ENDBRANCH  10  20
TORSDOF 2
ENDMDL
MODEL 8
REMARK VINA RESULT:      -7.0      3.453      9.114
REMARK  2 active torsions:
REMARK  status: ('A' for Active; 'I' for Inactive)
REMARK    1  A    between atoms: C_10  and  C_11 
REMARK    2  A    between atoms: C_12  and  O_13 
ROOT
HETATM    1  C   UNL     1     -40.234  54.171 -54.098  1.00  0.00     0.076 C 
HETATM    2  C   UNL     1     -41.493  54.396 -54.837  1.00  0.00     0.050 A 
HETATM    3  O   UNL     1     -41.441  55.261 -55.887  1.00  0.00    -0.312 OA
HETATM    4  C   UNL     1     -42.697  55.326 -56.437  1.00  0.00     0.121 A 
HETATM    5  C   UNL     1     -43.007  56.129 -57.576  1.00  0.00     0.163 A 
HETATM    6  N   UNL     1     -44.190  56.243 -58.141  1.00  0.00    -0.221 NA
HETATM    7  C   UNL     1     -44.010  57.068 -59.237  1.00  0.00     0.149 A 
HETATM    8  C   UNL     1     -42.680  57.456 -59.319  1.00  0.00     0.046 A 
HETATM    9  C   UNL     1     -41.965  58.224 -60.371  1.00  0.00     0.070 C 
HETATM   10  C   UNL     1     -42.610  59.577 -60.735  1.00  0.00     0.045 C 
HETATM   11  C   UNL     1     -44.114  59.718 -60.418  1.00  0.00     0.132 C 
HETATM   12  N   UNL     1     -44.933  58.609 -60.876  1.00  0.00    -0.355 N 
HETATM   13  C   UNL     1     -45.076  57.425 -60.178  1.00  0.00     0.272 C 
HETATM   14  O   UNL     1     -46.076  56.736 -60.371  1.00  0.00    -0.266 OA
HETATM   15  N   UNL     1     -42.067  56.868 -58.242  1.00  0.00    -0.340 N 
HETATM   16  H   UNL     1     -41.087  56.906 -57.998  1.00  0.00     0.167 HD
HETATM   17  C   UNL     1     -43.539  54.495 -55.719  1.00  0.00     0.043 A 
HETATM   18  C   UNL     1     -42.767  53.897 -54.695  1.00  0.00     0.035 A 
HETATM   19  H   UNL     1     -45.755  58.818 -61.428  1.00  0.00     0.162 HD
ENDROOT
BRANCH  10  20
HETATM   20  C   UNL     1     -41.796  60.735 -60.152  1.00  0.00    -0.019 A 
HETATM   21  C   UNL     1     -41.308  61.769 -60.982  1.00  0.00     0.074 A 
HETATM   22  C   UNL     1     -40.573  62.820 -60.421  1.00  0.00     0.037 A 
HETATM   23  C   UNL     1     -40.301  62.847 -59.053  1.00  0.00     0.003 A 
HETATM   24  C   UNL     1     -40.751  61.818 -58.233  1.00  0.00     0.001 A 
HETATM   25  C   UNL     1     -41.487  60.766 -58.779  1.00  0.00     0.010 A 
BRANCH  21  26
HETATM   26  O   UNL     1     -41.597  61.659 -62.317  1.00  0.00    -0.355 OA
HETATM   27  C   UNL     1     -42.416  62.663 -62.902  1.00  0.00     0.210 C 
ENDBRANCH  21  26
ENDBRANCH  10  20
TORSDOF 2
ENDMDL
MODEL 9
REMARK VINA RESULT:      -7.0      2.433      6.949
REMARK  2 active torsions:
REMARK  status: ('A' for Active; 'I' for Inactive)
REMARK    1  A    between atoms: C_10  and  C_11 
REMARK    2  A    between atoms: C_12  and  O_13 
ROOT
HETATM    1  C   UNL     1     -39.966  49.759 -55.017  1.00  0.00     0.076 C 
HETATM    2  C   UNL     1     -39.825  50.669 -53.864  1.00  0.00     0.050 A 
HETATM    3  O   UNL     1     -40.517  51.840 -53.918  1.00  0.00    -0.312 OA
HETATM    4  C   UNL     1     -40.260  52.532 -52.761  1.00  0.00     0.121 A 
HETATM    5  C   UNL     1     -40.838  53.804 -52.471  1.00  0.00     0.163 A 
HETATM    6  N   UNL     1     -40.622  54.521 -51.389  1.00  0.00    -0.221 NA
HETATM    7  C   UNL     1     -41.430  55.639 -51.505  1.00  0.00     0.149 A 
HETATM    8  C   UNL     1     -42.142  55.581 -52.694  1.00  0.00     0.046 A 
HETATM    9  C   UNL     1     -43.220  56.461 -53.215  1.00  0.00     0.070 C 
HETATM   10  C   UNL     1     -42.871  57.963 -53.242  1.00  0.00     0.045 C 
HETATM   11  C   UNL     1     -41.759  58.419 -52.272  1.00  0.00     0.132 C 
HETATM   12  N   UNL     1     -41.919  57.945 -50.908  1.00  0.00    -0.355 N 
HETATM   13  C   UNL     1     -41.530  56.687 -50.485  1.00  0.00     0.272 C 
HETATM   14  O   UNL     1     -41.286  56.508 -49.294  1.00  0.00    -0.266 OA
HETATM   15  N   UNL     1     -41.734  54.422 -53.303  1.00  0.00    -0.340 N 
HETATM   16  H   UNL     1     -42.065  54.036 -54.176  1.00  0.00     0.167 HD
HETATM   17  C   UNL     1     -39.396  51.784 -51.980  1.00  0.00     0.043 A 
HETATM   18  C   UNL     1     -39.119  50.590 -52.685  1.00  0.00     0.035 A 
HETATM   19  H   UNL     1     -41.870  58.622 -50.157  1.00  0.00     0.162 HD
ENDROOT
BRANCH  10  20
HETATM   20  C   UNL     1     -42.597  58.426 -54.676  1.00  0.00    -0.019 A 
HETATM   21  C   UNL     1     -42.349  59.787 -54.963  1.00  0.00     0.074 A 
HETATM   22  C   UNL     1     -42.095  60.182 -56.283  1.00  0.00     0.037 A 
HETATM   23  C   UNL     1     -42.102  59.247 -57.318  1.00  0.00     0.003 A 
HETATM   24  C   UNL     1     -42.375  57.911 -57.048  1.00  0.00     0.001 A 
HETATM   25  C   UNL     1     -42.628  57.504 -55.739  1.00  0.00     0.010 A 
BRANCH  21  26
HETATM   26  O   UNL     1     -42.382  60.646 -53.897  1.00  0.00    -0.355 OA
HETATM   27  C   UNL     1     -43.433  61.602 -53.848  1.00  0.00     0.210 C 
ENDBRANCH  21  26
ENDBRANCH  10  20
TORSDOF 2
ENDMDL
MODEL 10
REMARK VINA RESULT:      -7.0      1.745      7.328
REMARK  2 active torsions:
REMARK  status: ('A' for Active; 'I' for Inactive)
REMARK    1  A    between atoms: C_10  and  C_11 
REMARK    2  A    between atoms: C_12  and  O_13 
ROOT
HETATM    1  C   UNL     1     -39.541  51.960 -51.764  1.00  0.00     0.076 C 
HETATM    2  C   UNL     1     -40.066  53.239 -51.248  1.00  0.00     0.050 A 
HETATM    3  O   UNL     1     -40.957  53.900 -52.037  1.00  0.00    -0.312 OA
HETATM    4  C   UNL     1     -41.324  55.049 -51.381  1.00  0.00     0.121 A 
HETATM    5  C   UNL     1     -42.265  55.980 -51.913  1.00  0.00     0.163 A 
HETATM    6  N   UNL     1     -42.649  57.102 -51.341  1.00  0.00    -0.221 NA
HETATM    7  C   UNL     1     -43.607  57.648 -52.177  1.00  0.00     0.149 A 
HETATM    8  C   UNL     1     -43.792  56.824 -53.278  1.00  0.00     0.046 A 
HETATM    9  C   UNL     1     -44.785  56.901 -54.381  1.00  0.00     0.070 C 
HETATM   10  C   UNL     1     -44.835  58.258 -55.112  1.00  0.00     0.045 C 
HETATM   11  C   UNL     1     -44.310  59.475 -54.320  1.00  0.00     0.132 C 
HETATM   12  N   UNL     1     -44.838  59.588 -52.971  1.00  0.00    -0.355 N 
HETATM   13  C   UNL     1     -44.333  58.889 -51.891  1.00  0.00     0.272 C 
HETATM   14  O   UNL     1     -44.509  59.333 -50.758  1.00  0.00    -0.266 OA
HETATM   15  N   UNL     1     -42.915  55.785 -53.103  1.00  0.00    -0.340 N 
HETATM   16  H   UNL     1     -42.794  54.976 -53.696  1.00  0.00     0.167 HD
HETATM   17  C   UNL     1     -40.653  55.103 -50.172  1.00  0.00     0.043 A 
HETATM   18  C   UNL     1     -39.848  53.943 -50.085  1.00  0.00     0.035 A 
HETATM   19  H   UNL     1     -45.239  60.474 -52.687  1.00  0.00     0.162 HD
ENDROOT
BRANCH  10  20
HETATM   20  C   UNL     1     -44.177  58.152 -56.490  1.00  0.00    -0.019 A 
HETATM   21  C   UNL     1     -44.959  58.064 -57.663  1.00  0.00     0.074 A 
HETATM   22  C   UNL     1     -44.330  57.976 -58.912  1.00  0.00     0.037 A 
HETATM   23  C   UNL     1     -42.939  57.954 -59.006  1.00  0.00     0.003 A 
HETATM   24  C   UNL     1     -42.161  58.010 -57.855  1.00  0.00     0.001 A 
HETATM   25  C   UNL     1     -42.774  58.101 -56.606  1.00  0.00     0.010 A 
BRANCH  21  26
HETATM   26  O   UNL     1     -46.318  58.068 -57.485  1.00  0.00    -0.355 OA
HETATM   27  C   UNL     1     -47.121  58.592 -58.534  1.00  0.00     0.210 C 
ENDBRANCH  21  26
ENDBRANCH  10  20
TORSDOF 2
ENDMDL
