MODEL 1
REMARK VINA RESULT:      -9.0      0.000      0.000
REMARK  2 active torsions:
REMARK  status: ('A' for Active; 'I' for Inactive)
REMARK    1  A    between atoms: C_7  and  C_8 
REMARK       I    between atoms: C_8  and  N_9 
REMARK    2  A    between atoms: N_9  and  C_10 
ROOT
HETATM    1  C   UNL     1     -41.776  55.837 -55.183  1.00  0.00     0.256 C 
HETATM    2  N   UNL     1     -42.223  55.241 -56.351  1.00  0.00    -0.323 N 
HETATM    3  O   UNL     1     -41.773  57.038 -54.940  1.00  0.00    -0.267 OA
HETATM    4  H   UNL     1     -42.219  54.231 -56.385  1.00  0.00     0.169 HD
ENDROOT
BRANCH   1   5
HETATM    5  C   UNL     1     -41.290  54.900 -54.124  1.00  0.00     0.033 A 
HETATM    6  C   UNL     1     -41.255  55.371 -52.805  1.00  0.00     0.019 A 
HETATM    7  C   UNL     1     -40.831  54.555 -51.753  1.00  0.00     0.031 A 
HETATM    8  C   UNL     1     -40.442  53.249 -52.065  1.00  0.00     0.043 A 
HETATM    9  C   UNL     1     -40.448  52.744 -53.364  1.00  0.00    -0.001 A 
HETATM   10  N   UNL     1     -39.991  52.244 -51.243  1.00  0.00    -0.359 N 
HETATM   11  C   UNL     1     -39.991  51.388 -53.299  1.00  0.00    -0.027 A 
HETATM   12  C   UNL     1     -40.866  53.592 -54.414  1.00  0.00     0.031 A 
HETATM   13  C   UNL     1     -39.832  50.444 -54.439  1.00  0.00     0.051 C 
HETATM   14  C   UNL     1     -39.715  51.114 -51.968  1.00  0.00     0.012 A 
HETATM   15  C   UNL     1     -39.211  49.876 -51.318  1.00  0.00     0.068 C 
HETATM   16  H   UNL     1     -39.879  52.336 -50.242  1.00  0.00     0.166 HD
ENDBRANCH   1   5
BRANCH   2  17
HETATM   17  C   UNL     1     -42.768  55.884 -57.486  1.00  0.00     0.037 A 
HETATM   18  C   UNL     1     -42.614  57.249 -57.751  1.00  0.00     0.061 A 
HETATM   19  C   UNL     1     -43.222  57.742 -58.884  1.00  0.00     0.065 A 
HETATM   20  C   UNL     1     -43.953  56.937 -59.752  1.00  0.00     0.063 A 
HETATM   21  N   UNL     1     -43.255  59.043 -59.379  1.00  0.00    -0.306 N 
HETATM   22  N   UNL     1     -44.433  57.737 -60.781  1.00  0.00    -0.307 N 
HETATM   23  C   UNL     1     -44.119  55.594 -59.531  1.00  0.00     0.034 A 
HETATM   24  C   UNL     1     -44.009  59.056 -60.560  1.00  0.00     0.325 A 
HETATM   25  H   UNL     1     -45.001  57.458 -61.563  1.00  0.00     0.170 HD
HETATM   26  O   UNL     1     -44.253  60.023 -61.260  1.00  0.00    -0.247 OA
HETATM   27  C   UNL     1     -43.517  55.069 -58.378  1.00  0.00     0.032 A 
HETATM   28  H   UNL     1     -42.825  59.857 -58.972  1.00  0.00     0.170 HD
ENDBRANCH   2  17
TORSDOF 2
ENDMDL
MODEL 2
REMARK VINA RESULT:      -8.7      2.264      9.129
REMARK  2 active torsions:
REMARK  status: ('A' for Active; 'I' for Inactive)
REMARK    1  A    between atoms: C_7  and  C_8 
REMARK       I    between atoms: C_8  and  N_9 
REMARK    2  A    between atoms: N_9  and  C_10 
ROOT
HETATM    1  C   UNL     1     -42.584  55.152 -56.007  1.00  0.00     0.256 C 
HETATM    2  N   UNL     1     -41.298  54.874 -55.573  1.00  0.00    -0.323 N 
HETATM    3  O   UNL     1     -43.624  54.805 -55.459  1.00  0.00    -0.267 OA
HETATM    4  H   UNL     1     -40.535  55.279 -56.097  1.00  0.00     0.169 HD
ENDROOT
BRANCH   1   5
HETATM    5  C   UNL     1     -42.681  55.989 -57.243  1.00  0.00     0.033 A 
HETATM    6  C   UNL     1     -43.203  55.388 -58.396  1.00  0.00     0.019 A 
HETATM    7  C   UNL     1     -43.344  56.103 -59.588  1.00  0.00     0.031 A 
HETATM    8  C   UNL     1     -42.944  57.443 -59.588  1.00  0.00     0.043 A 
HETATM    9  C   UNL     1     -42.407  58.076 -58.469  1.00  0.00    -0.001 A 
HETATM   10  N   UNL     1     -42.971  58.370 -60.603  1.00  0.00    -0.359 N 
HETATM   11  C   UNL     1     -42.115  59.429 -58.840  1.00  0.00    -0.027 A 
HETATM   12  C   UNL     1     -42.259  57.329 -57.279  1.00  0.00     0.031 A 
HETATM   13  C   UNL     1     -41.531  60.486 -57.971  1.00  0.00     0.051 C 
HETATM   14  C   UNL     1     -42.476  59.573 -60.170  1.00  0.00     0.012 A 
HETATM   15  C   UNL     1     -42.395  60.751 -61.074  1.00  0.00     0.068 C 
HETATM   16  H   UNL     1     -43.308  58.181 -61.537  1.00  0.00     0.166 HD
ENDBRANCH   1   5
BRANCH   2  17
HETATM   17  C   UNL     1     -40.924  54.146 -54.420  1.00  0.00     0.037 A 
HETATM   18  C   UNL     1     -40.436  52.835 -54.456  1.00  0.00     0.061 A 
HETATM   19  C   UNL     1     -40.135  52.242 -53.250  1.00  0.00     0.065 A 
HETATM   20  C   UNL     1     -40.288  52.901 -52.034  1.00  0.00     0.063 A 
HETATM   21  N   UNL     1     -39.660  50.961 -52.986  1.00  0.00    -0.306 N 
HETATM   22  N   UNL     1     -39.905  52.030 -51.022  1.00  0.00    -0.307 N 
HETATM   23  C   UNL     1     -40.754  54.188 -51.959  1.00  0.00     0.034 A 
HETATM   24  C   UNL     1     -39.514  50.813 -51.599  1.00  0.00     0.325 A 
HETATM   25  H   UNL     1     -39.905  52.201 -50.030  1.00  0.00     0.170 HD
HETATM   26  O   UNL     1     -39.126  49.820 -51.008  1.00  0.00    -0.247 OA
HETATM   27  C   UNL     1     -41.077  54.810 -53.172  1.00  0.00     0.032 A 
HETATM   28  H   UNL     1     -39.455  50.240 -53.657  1.00  0.00     0.170 HD
ENDBRANCH   2  17
TORSDOF 2
ENDMDL
MODEL 3
REMARK VINA RESULT:      -8.5      4.911      6.766
REMARK  2 active torsions:
REMARK  status: ('A' for Active; 'I' for Inactive)
REMARK    1  A    between atoms: C_7  and  C_8 
REMARK       I    between atoms: C_8  and  N_9 
REMARK    2  A    between atoms: N_9  and  C_10 
ROOT
HETATM    1  C   UNL     1     -41.710  56.466 -51.395  1.00  0.00     0.256 C 
HETATM    2  N   UNL     1     -42.316  57.536 -52.032  1.00  0.00    -0.323 N 
HETATM    3  O   UNL     1     -41.521  56.354 -50.189  1.00  0.00    -0.267 OA
HETATM    4  H   UNL     1     -42.456  57.462 -53.029  1.00  0.00     0.169 HD
ENDROOT
BRANCH   1   5
HETATM    5  C   UNL     1     -41.290  55.339 -52.284  1.00  0.00     0.033 A 
HETATM    6  C   UNL     1     -41.338  55.548 -53.668  1.00  0.00     0.019 A 
HETATM    7  C   UNL     1     -40.948  54.553 -54.568  1.00  0.00     0.031 A 
HETATM    8  C   UNL     1     -40.506  53.338 -54.035  1.00  0.00     0.043 A 
HETATM    9  C   UNL     1     -40.456  53.082 -52.666  1.00  0.00    -0.001 A 
HETATM   10  N   UNL     1     -40.068  52.204 -54.675  1.00  0.00    -0.359 N 
HETATM   11  C   UNL     1     -39.960  51.748 -52.497  1.00  0.00    -0.027 A 
HETATM   12  C   UNL     1     -40.871  54.097 -51.775  1.00  0.00     0.031 A 
HETATM   13  C   UNL     1     -39.734  51.037 -51.210  1.00  0.00     0.051 C 
HETATM   14  C   UNL     1     -39.733  51.235 -53.765  1.00  0.00     0.012 A 
HETATM   15  C   UNL     1     -39.226  49.905 -54.195  1.00  0.00     0.068 C 
HETATM   16  H   UNL     1     -40.006  52.106 -55.679  1.00  0.00     0.166 HD
ENDBRANCH   1   5
BRANCH   2  17
HETATM   17  C   UNL     1     -42.840  58.704 -51.431  1.00  0.00     0.037 A 
HETATM   18  C   UNL     1     -44.208  58.928 -51.236  1.00  0.00     0.061 A 
HETATM   19  C   UNL     1     -44.574  60.124 -50.661  1.00  0.00     0.065 A 
HETATM   20  C   UNL     1     -43.643  61.082 -50.269  1.00  0.00     0.063 A 
HETATM   21  N   UNL     1     -45.842  60.617 -50.369  1.00  0.00    -0.306 N 
HETATM   22  N   UNL     1     -44.335  62.162 -49.736  1.00  0.00    -0.307 N 
HETATM   23  C   UNL     1     -42.295  60.896 -50.436  1.00  0.00     0.034 A 
HETATM   24  C   UNL     1     -45.710  61.889 -49.795  1.00  0.00     0.325 A 
HETATM   25  H   UNL     1     -43.952  63.017 -49.369  1.00  0.00     0.170 HD
HETATM   26  O   UNL     1     -46.611  62.619 -49.421  1.00  0.00    -0.247 OA
HETATM   27  C   UNL     1     -41.897  59.689 -51.029  1.00  0.00     0.032 A 
HETATM   28  H   UNL     1     -46.724  60.162 -50.541  1.00  0.00     0.170 HD
ENDBRANCH   2  17
TORSDOF 2
ENDMDL
MODEL 4
REMARK VINA RESULT:      -8.5      2.340      9.027
REMARK  2 active torsions:
REMARK  status: ('A' for Active; 'I' for Inactive)
REMARK    1  A    between atoms: C_7  and  C_8 
REMARK       I    between atoms: C_8  and  N_9 
REMARK    2  A    between atoms: N_9  and  C_10 
ROOT
HETATM    1  C   UNL     1     -42.697  55.384 -55.313  1.00  0.00     0.256 C 
HETATM    2  N   UNL     1     -41.455  55.196 -54.728  1.00  0.00    -0.323 N 
HETATM    3  O   UNL     1     -43.779  55.082 -54.824  1.00  0.00    -0.267 OA
HETATM    4  H   UNL     1     -40.651  55.551 -55.227  1.00  0.00     0.169 HD
ENDROOT
BRANCH   1   5
HETATM    5  C   UNL     1     -42.687  56.056 -56.650  1.00  0.00     0.033 A 
HETATM    6  C   UNL     1     -43.084  55.300 -57.760  1.00  0.00     0.019 A 
HETATM    7  C   UNL     1     -43.120  55.855 -59.042  1.00  0.00     0.031 A 
HETATM    8  C   UNL     1     -42.743  57.196 -59.175  1.00  0.00     0.043 A 
HETATM    9  C   UNL     1     -42.328  57.979 -58.101  1.00  0.00    -0.001 A 
HETATM   10  N   UNL     1     -42.686  57.986 -60.298  1.00  0.00    -0.359 N 
HETATM   11  C   UNL     1     -42.024  59.282 -58.612  1.00  0.00    -0.027 A 
HETATM   12  C   UNL     1     -42.285  57.392 -56.816  1.00  0.00     0.031 A 
HETATM   13  C   UNL     1     -41.544  60.457 -57.834  1.00  0.00     0.051 C 
HETATM   14  C   UNL     1     -42.256  59.248 -59.978  1.00  0.00     0.012 A 
HETATM   15  C   UNL     1     -42.106  60.305 -61.014  1.00  0.00     0.068 C 
HETATM   16  H   UNL     1     -42.928  57.671 -61.228  1.00  0.00     0.166 HD
ENDBRANCH   1   5
BRANCH   2  17
HETATM   17  C   UNL     1     -41.182  54.629 -53.462  1.00  0.00     0.037 A 
HETATM   18  C   UNL     1     -41.504  55.250 -52.250  1.00  0.00     0.061 A 
HETATM   19  C   UNL     1     -41.154  54.589 -51.093  1.00  0.00     0.065 A 
HETATM   20  C   UNL     1     -40.519  53.351 -51.101  1.00  0.00     0.063 A 
HETATM   21  N   UNL     1     -41.329  54.971 -49.766  1.00  0.00    -0.306 N 
HETATM   22  N   UNL     1     -40.304  52.969 -49.783  1.00  0.00    -0.307 N 
HETATM   23  C   UNL     1     -40.195  52.708 -52.268  1.00  0.00     0.034 A 
HETATM   24  C   UNL     1     -40.801  53.972 -48.937  1.00  0.00     0.325 A 
HETATM   25  H   UNL     1     -39.862  52.129 -49.451  1.00  0.00     0.170 HD
HETATM   26  O   UNL     1     -40.774  53.972 -47.719  1.00  0.00    -0.247 OA
HETATM   27  C   UNL     1     -40.532  53.365 -53.460  1.00  0.00     0.032 A 
HETATM   28  H   UNL     1     -41.751  55.821 -49.431  1.00  0.00     0.170 HD
ENDBRANCH   2  17
TORSDOF 2
ENDMDL
MODEL 5
REMARK VINA RESULT:      -8.4      1.688      2.692
REMARK  2 active torsions:
REMARK  status: ('A' for Active; 'I' for Inactive)
REMARK    1  A    between atoms: C_7  and  C_8 
REMARK       I    between atoms: C_8  and  N_9 
REMARK    2  A    between atoms: N_9  and  C_10 
ROOT
HETATM    1  C   UNL     1     -42.863  54.404 -55.646  1.00  0.00     0.256 C 
HETATM    2  N   UNL     1     -42.567  55.629 -56.220  1.00  0.00    -0.323 N 
HETATM    3  O   UNL     1     -43.696  53.599 -56.047  1.00  0.00    -0.267 OA
HETATM    4  H   UNL     1     -41.811  56.160 -55.812  1.00  0.00     0.169 HD
ENDROOT
BRANCH   1   5
HETATM    5  C   UNL     1     -42.046  54.038 -54.447  1.00  0.00     0.033 A 
HETATM    6  C   UNL     1     -41.122  52.994 -54.583  1.00  0.00     0.019 A 
HETATM    7  C   UNL     1     -40.308  52.600 -53.518  1.00  0.00     0.031 A 
HETATM    8  C   UNL     1     -40.451  53.288 -52.308  1.00  0.00     0.043 A 
HETATM    9  C   UNL     1     -41.367  54.321 -52.125  1.00  0.00    -0.001 A 
HETATM   10  N   UNL     1     -39.790  53.116 -51.115  1.00  0.00    -0.359 N 
HETATM   11  C   UNL     1     -41.232  54.780 -50.774  1.00  0.00    -0.027 A 
HETATM   12  C   UNL     1     -42.191  54.693 -53.212  1.00  0.00     0.031 A 
HETATM   13  C   UNL     1     -42.002  55.873 -50.122  1.00  0.00     0.051 C 
HETATM   14  C   UNL     1     -40.247  54.008 -50.179  1.00  0.00     0.012 A 
HETATM   15  C   UNL     1     -39.696  54.036 -48.798  1.00  0.00     0.068 C 
HETATM   16  H   UNL     1     -39.071  52.425 -50.959  1.00  0.00     0.166 HD
ENDBRANCH   1   5
BRANCH   2  17
HETATM   17  C   UNL     1     -43.153  56.197 -57.375  1.00  0.00     0.037 A 
HETATM   18  C   UNL     1     -43.970  57.332 -57.351  1.00  0.00     0.061 A 
HETATM   19  C   UNL     1     -44.492  57.757 -58.552  1.00  0.00     0.065 A 
HETATM   20  C   UNL     1     -44.224  57.111 -59.755  1.00  0.00     0.063 A 
HETATM   21  N   UNL     1     -45.340  58.828 -58.822  1.00  0.00    -0.306 N 
HETATM   22  N   UNL     1     -44.902  57.783 -60.765  1.00  0.00    -0.307 N 
HETATM   23  C   UNL     1     -43.422  56.001 -59.820  1.00  0.00     0.034 A 
HETATM   24  C   UNL     1     -45.607  58.855 -60.198  1.00  0.00     0.325 A 
HETATM   25  H   UNL     1     -44.919  57.562 -61.746  1.00  0.00     0.170 HD
HETATM   26  O   UNL     1     -46.315  59.651 -60.789  1.00  0.00    -0.247 OA
HETATM   27  C   UNL     1     -42.886  55.543 -58.609  1.00  0.00     0.032 A 
HETATM   28  H   UNL     1     -45.719  59.483 -58.158  1.00  0.00     0.170 HD
ENDBRANCH   2  17
TORSDOF 2
ENDMDL
MODEL 6
REMARK VINA RESULT:      -8.4      5.369      8.983
REMARK  2 active torsions:
REMARK  status: ('A' for Active; 'I' for Inactive)
REMARK    1  A    between atoms: C_7  and  C_8 
REMARK       I    between atoms: C_8  and  N_9 
REMARK    2  A    between atoms: N_9  and  C_10 
ROOT
HETATM    1  C   UNL     1     -42.430  56.200 -51.702  1.00  0.00     0.256 C 
HETATM    2  N   UNL     1     -41.138  55.700 -51.696  1.00  0.00    -0.323 N 
HETATM    3  O   UNL     1     -43.450  55.564 -51.940  1.00  0.00    -0.267 OA
HETATM    4  H   UNL     1     -40.399  56.332 -51.422  1.00  0.00     0.169 HD
ENDROOT
BRANCH   1   5
HETATM    5  C   UNL     1     -42.565  57.646 -51.343  1.00  0.00     0.033 A 
HETATM    6  C   UNL     1     -41.422  58.311 -50.882  1.00  0.00     0.019 A 
HETATM    7  C   UNL     1     -41.458  59.666 -50.542  1.00  0.00     0.031 A 
HETATM    8  C   UNL     1     -42.679  60.334 -50.678  1.00  0.00     0.043 A 
HETATM    9  C   UNL     1     -43.843  59.707 -51.118  1.00  0.00    -0.001 A 
HETATM   10  N   UNL     1     -42.997  61.646 -50.422  1.00  0.00    -0.359 N 
HETATM   11  C   UNL     1     -44.883  60.693 -51.129  1.00  0.00    -0.027 A 
HETATM   12  C   UNL     1     -43.787  58.333 -51.442  1.00  0.00     0.031 A 
HETATM   13  C   UNL     1     -46.301  60.489 -51.529  1.00  0.00     0.051 C 
HETATM   14  C   UNL     1     -44.321  61.882 -50.689  1.00  0.00     0.012 A 
HETATM   15  C   UNL     1     -44.927  63.226 -50.496  1.00  0.00     0.068 C 
HETATM   16  H   UNL     1     -42.341  62.334 -50.081  1.00  0.00     0.166 HD
ENDBRANCH   1   5
BRANCH   2  17
HETATM   17  C   UNL     1     -40.734  54.370 -51.955  1.00  0.00     0.037 A 
HETATM   18  C   UNL     1     -40.771  53.783 -53.225  1.00  0.00     0.061 A 
HETATM   19  C   UNL     1     -40.370  52.469 -53.322  1.00  0.00     0.065 A 
HETATM   20  C   UNL     1     -39.930  51.737 -52.223  1.00  0.00     0.063 A 
HETATM   21  N   UNL     1     -40.321  51.636 -54.436  1.00  0.00    -0.306 N 
HETATM   22  N   UNL     1     -39.609  50.458 -52.658  1.00  0.00    -0.307 N 
HETATM   23  C   UNL     1     -39.871  52.281 -50.965  1.00  0.00     0.034 A 
HETATM   24  C   UNL     1     -39.852  50.377 -54.037  1.00  0.00     0.325 A 
HETATM   25  H   UNL     1     -39.268  49.689 -52.106  1.00  0.00     0.170 HD
HETATM   26  O   UNL     1     -39.688  49.400 -54.747  1.00  0.00    -0.247 OA
HETATM   27  C   UNL     1     -40.284  53.614 -50.838  1.00  0.00     0.032 A 
HETATM   28  H   UNL     1     -40.583  51.870 -55.380  1.00  0.00     0.170 HD
ENDBRANCH   2  17
TORSDOF 2
ENDMDL
MODEL 7
REMARK VINA RESULT:      -8.3     15.026     18.290
REMARK  2 active torsions:
REMARK  status: ('A' for Active; 'I' for Inactive)
REMARK    1  A    between atoms: C_7  and  C_8 
REMARK       I    between atoms: C_8  and  N_9 
REMARK    2  A    between atoms: N_9  and  C_10 
ROOT
HETATM    1  C   UNL     1     -35.351  41.538 -56.065  1.00  0.00     0.256 C 
HETATM    2  N   UNL     1     -35.255  40.470 -55.189  1.00  0.00    -0.323 N 
HETATM    3  O   UNL     1     -34.979  42.686 -55.849  1.00  0.00    -0.267 OA
HETATM    4  H   UNL     1     -35.551  39.565 -55.528  1.00  0.00     0.169 HD
ENDROOT
BRANCH   1   5
HETATM    5  C   UNL     1     -35.933  41.224 -57.406  1.00  0.00     0.033 A 
HETATM    6  C   UNL     1     -36.701  42.214 -58.031  1.00  0.00     0.019 A 
HETATM    7  C   UNL     1     -37.267  42.008 -59.292  1.00  0.00     0.031 A 
HETATM    8  C   UNL     1     -37.038  40.774 -59.908  1.00  0.00     0.043 A 
HETATM    9  C   UNL     1     -36.293  39.756 -59.317  1.00  0.00    -0.001 A 
HETATM   10  N   UNL     1     -37.464  40.307 -61.129  1.00  0.00    -0.359 N 
HETATM   11  C   UNL     1     -36.274  38.652 -60.231  1.00  0.00    -0.027 A 
HETATM   12  C   UNL     1     -35.743  39.981 -58.035  1.00  0.00     0.031 A 
HETATM   13  C   UNL     1     -35.597  37.342 -60.033  1.00  0.00     0.051 C 
HETATM   14  C   UNL     1     -37.012  39.031 -61.341  1.00  0.00     0.012 A 
HETATM   15  C   UNL     1     -37.331  38.290 -62.591  1.00  0.00     0.068 C 
HETATM   16  H   UNL     1     -38.033  40.838 -61.773  1.00  0.00     0.166 HD
ENDBRANCH   1   5
BRANCH   2  17
HETATM   17  C   UNL     1     -34.711  40.479 -53.884  1.00  0.00     0.037 A 
HETATM   18  C   UNL     1     -33.415  40.047 -53.581  1.00  0.00     0.061 A 
HETATM   19  C   UNL     1     -33.030  40.090 -52.260  1.00  0.00     0.065 A 
HETATM   20  C   UNL     1     -33.870  40.552 -51.250  1.00  0.00     0.063 A 
HETATM   21  N   UNL     1     -31.826  39.710 -51.673  1.00  0.00    -0.306 N 
HETATM   22  N   UNL     1     -33.185  40.459 -50.045  1.00  0.00    -0.307 N 
HETATM   23  C   UNL     1     -35.143  40.991 -51.508  1.00  0.00     0.034 A 
HETATM   24  C   UNL     1     -31.909  39.932 -50.292  1.00  0.00     0.325 A 
HETATM   25  H   UNL     1     -33.517  40.708 -49.128  1.00  0.00     0.170 HD
HETATM   26  O   UNL     1     -31.043  39.708 -49.463  1.00  0.00    -0.247 OA
HETATM   27  C   UNL     1     -35.562  40.948 -52.845  1.00  0.00     0.032 A 
HETATM   28  H   UNL     1     -31.019  39.329 -52.139  1.00  0.00     0.170 HD
ENDBRANCH   2  17
TORSDOF 2
ENDMDL
MODEL 8
REMARK VINA RESULT:      -8.2      2.475      3.204
REMARK  2 active torsions:
REMARK  status: ('A' for Active; 'I' for Inactive)
REMARK    1  A    between atoms: C_7  and  C_8 
REMARK       I    between atoms: C_8  and  N_9 
REMARK    2  A    between atoms: N_9  and  C_10 
ROOT
HETATM    1  C   UNL     1     -41.372  56.224 -54.374  1.00  0.00     0.256 C 
HETATM    2  N   UNL     1     -42.350  56.310 -55.350  1.00  0.00    -0.323 N 
HETATM    3  O   UNL     1     -40.874  57.163 -53.763  1.00  0.00    -0.267 OA
HETATM    4  H   UNL     1     -42.708  55.443 -55.724  1.00  0.00     0.169 HD
ENDROOT
BRANCH   1   5
HETATM    5  C   UNL     1     -40.927  54.839 -54.025  1.00  0.00     0.033 A 
HETATM    6  C   UNL     1     -40.598  53.977 -55.078  1.00  0.00     0.019 A 
HETATM    7  C   UNL     1     -40.157  52.673 -54.839  1.00  0.00     0.031 A 
HETATM    8  C   UNL     1     -40.058  52.259 -53.507  1.00  0.00     0.043 A 
HETATM    9  C   UNL     1     -40.389  53.078 -52.430  1.00  0.00    -0.001 A 
HETATM   10  N   UNL     1     -39.657  51.051 -52.988  1.00  0.00    -0.359 N 
HETATM   11  C   UNL     1     -40.165  52.324 -51.232  1.00  0.00    -0.027 A 
HETATM   12  C   UNL     1     -40.847  54.389 -52.696  1.00  0.00     0.031 A 
HETATM   13  C   UNL     1     -40.379  52.786 -49.834  1.00  0.00     0.051 C 
HETATM   14  C   UNL     1     -39.714  51.071 -51.619  1.00  0.00     0.012 A 
HETATM   15  C   UNL     1     -39.332  49.887 -50.806  1.00  0.00     0.068 C 
HETATM   16  H   UNL     1     -39.365  50.261 -53.547  1.00  0.00     0.166 HD
ENDBRANCH   1   5
BRANCH   2  17
HETATM   17  C   UNL     1     -42.973  57.483 -55.836  1.00  0.00     0.037 A 
HETATM   18  C   UNL     1     -44.126  58.039 -55.270  1.00  0.00     0.061 A 
HETATM   19  C   UNL     1     -44.636  59.171 -55.867  1.00  0.00     0.065 A 
HETATM   20  C   UNL     1     -44.044  59.763 -56.978  1.00  0.00     0.063 A 
HETATM   21  N   UNL     1     -45.764  59.916 -55.537  1.00  0.00    -0.306 N 
HETATM   22  N   UNL     1     -44.802  60.872 -57.331  1.00  0.00    -0.307 N 
HETATM   23  C   UNL     1     -42.910  59.252 -57.555  1.00  0.00     0.034 A 
HETATM   24  C   UNL     1     -45.883  60.979 -56.443  1.00  0.00     0.325 A 
HETATM   25  H   UNL     1     -44.643  61.508 -58.093  1.00  0.00     0.170 HD
HETATM   26  O   UNL     1     -46.755  61.830 -56.460  1.00  0.00    -0.247 OA
HETATM   27  C   UNL     1     -42.376  58.095 -56.972  1.00  0.00     0.032 A 
HETATM   28  H   UNL     1     -46.409  59.738 -54.784  1.00  0.00     0.170 HD
ENDBRANCH   2  17
TORSDOF 2
ENDMDL
MODEL 9
REMARK VINA RESULT:      -8.1      3.994      5.045
REMARK  2 active torsions:
REMARK  status: ('A' for Active; 'I' for Inactive)
REMARK    1  A    between atoms: C_7  and  C_8 
REMARK       I    between atoms: C_8  and  N_9 
REMARK    2  A    between atoms: N_9  and  C_10 
ROOT
HETATM    1  C   UNL     1     -41.815  56.285 -54.152  1.00  0.00     0.256 C 
HETATM    2  N   UNL     1     -42.417  56.908 -53.071  1.00  0.00    -0.323 N 
HETATM    3  O   UNL     1     -41.691  56.752 -55.278  1.00  0.00    -0.267 OA
HETATM    4  H   UNL     1     -42.392  56.423 -52.185  1.00  0.00     0.169 HD
ENDROOT
BRANCH   1   5
HETATM    5  C   UNL     1     -41.238  54.933 -53.879  1.00  0.00     0.033 A 
HETATM    6  C   UNL     1     -40.823  54.169 -54.978  1.00  0.00     0.019 A 
HETATM    7  C   UNL     1     -40.258  52.902 -54.810  1.00  0.00     0.031 A 
HETATM    8  C   UNL     1     -40.121  52.424 -53.503  1.00  0.00     0.043 A 
HETATM    9  C   UNL     1     -40.532  53.144 -52.383  1.00  0.00    -0.001 A 
HETATM   10  N   UNL     1     -39.605  51.233 -53.051  1.00  0.00    -0.359 N 
HETATM   11  C   UNL     1     -40.238  52.348 -51.229  1.00  0.00    -0.027 A 
HETATM   12  C   UNL     1     -41.116  54.417 -52.577  1.00  0.00     0.031 A 
HETATM   13  C   UNL     1     -40.498  52.706 -49.808  1.00  0.00     0.051 C 
HETATM   14  C   UNL     1     -39.666  51.170 -51.682  1.00  0.00     0.012 A 
HETATM   15  C   UNL     1     -39.171  49.983 -50.936  1.00  0.00     0.068 C 
HETATM   16  H   UNL     1     -39.236  50.509 -53.651  1.00  0.00     0.166 HD
ENDBRANCH   1   5
BRANCH   2  17
HETATM   17  C   UNL     1     -43.002  58.195 -53.041  1.00  0.00     0.037 A 
HETATM   18  C   UNL     1     -44.352  58.440 -53.316  1.00  0.00     0.061 A 
HETATM   19  C   UNL     1     -44.775  59.749 -53.274  1.00  0.00     0.065 A 
HETATM   20  C   UNL     1     -43.921  60.803 -52.962  1.00  0.00     0.063 A 
HETATM   21  N   UNL     1     -46.038  60.282 -53.519  1.00  0.00    -0.306 N 
HETATM   22  N   UNL     1     -44.654  61.981 -53.012  1.00  0.00    -0.307 N 
HETATM   23  C   UNL     1     -42.594  60.602 -52.680  1.00  0.00     0.034 A 
HETATM   24  C   UNL     1     -45.977  61.674 -53.362  1.00  0.00     0.325 A 
HETATM   25  H   UNL     1     -44.326  62.917 -52.843  1.00  0.00     0.170 HD
HETATM   26  O   UNL     1     -46.893  62.465 -53.504  1.00  0.00    -0.247 OA
HETATM   27  C   UNL     1     -42.136  59.278 -52.725  1.00  0.00     0.032 A 
HETATM   28  H   UNL     1     -46.869  59.777 -53.775  1.00  0.00     0.170 HD
ENDBRANCH   2  17
TORSDOF 2
ENDMDL
MODEL 10
REMARK VINA RESULT:      -8.1      4.286      9.110
REMARK  2 active torsions:
REMARK  status: ('A' for Active; 'I' for Inactive)
REMARK    1  A    between atoms: C_7  and  C_8 
REMARK       I    between atoms: C_8  and  N_9 
REMARK    2  A    between atoms: N_9  and  C_10 
ROOT
HETATM    1  C   UNL     1     -42.266  56.410 -53.273  1.00  0.00     0.256 C 
HETATM    2  N   UNL     1     -41.035  55.822 -53.509  1.00  0.00    -0.323 N 
HETATM    3  O   UNL     1     -43.266  55.846 -52.843  1.00  0.00    -0.267 OA
HETATM    4  H   UNL     1     -40.283  56.427 -53.809  1.00  0.00     0.169 HD
ENDROOT
BRANCH   1   5
HETATM    5  C   UNL     1     -42.343  57.879 -53.543  1.00  0.00     0.033 A 
HETATM    6  C   UNL     1     -42.044  58.319 -54.838  1.00  0.00     0.019 A 
HETATM    7  C   UNL     1     -42.108  59.673 -55.179  1.00  0.00     0.031 A 
HETATM    8  C   UNL     1     -42.482  60.574 -54.176  1.00  0.00     0.043 A 
HETATM    9  C   UNL     1     -42.773  60.181 -52.872  1.00  0.00    -0.001 A 
HETATM   10  N   UNL     1     -42.627  61.940 -54.229  1.00  0.00    -0.359 N 
HETATM   11  C   UNL     1     -43.111  61.361 -52.133  1.00  0.00    -0.027 A 
HETATM   12  C   UNL     1     -42.687  58.808 -52.546  1.00  0.00     0.031 A 
HETATM   13  C   UNL     1     -43.496  61.436 -50.698  1.00  0.00     0.051 C 
HETATM   14  C   UNL     1     -43.006  62.432 -53.007  1.00  0.00     0.012 A 
HETATM   15  C   UNL     1     -43.234  63.886 -52.791  1.00  0.00     0.068 C 
HETATM   16  H   UNL     1     -42.470  62.496 -55.058  1.00  0.00     0.166 HD
ENDBRANCH   1   5
BRANCH   2  17
HETATM   17  C   UNL     1     -40.678  54.470 -53.301  1.00  0.00     0.037 A 
HETATM   18  C   UNL     1     -40.516  53.897 -52.033  1.00  0.00     0.061 A 
HETATM   19  C   UNL     1     -40.141  52.574 -51.985  1.00  0.00     0.065 A 
HETATM   20  C   UNL     1     -39.938  51.810 -53.131  1.00  0.00     0.063 A 
HETATM   21  N   UNL     1     -39.891  51.762 -50.882  1.00  0.00    -0.306 N 
HETATM   22  N   UNL     1     -39.567  50.531 -52.736  1.00  0.00    -0.307 N 
HETATM   23  C   UNL     1     -40.096  52.332 -54.389  1.00  0.00     0.034 A 
HETATM   24  C   UNL     1     -39.529  50.486 -51.334  1.00  0.00     0.325 A 
HETATM   25  H   UNL     1     -39.344  49.746 -53.325  1.00  0.00     0.170 HD
HETATM   26  O   UNL     1     -39.234  49.523 -50.647  1.00  0.00    -0.247 OA
HETATM   27  C   UNL     1     -40.467  53.682 -54.465  1.00  0.00     0.032 A 
HETATM   28  H   UNL     1     -39.945  52.025 -49.911  1.00  0.00     0.170 HD
ENDBRANCH   2  17
TORSDOF 2
ENDMDL
