MODEL 1
REMARK VINA RESULT:      -7.7      0.000      0.000
REMARK  8 active torsions:
REMARK  status: ('A' for Active; 'I' for Inactive)
REMARK    1  A    between atoms: C_7  and  N_8 
REMARK    2  A    between atoms: N_8  and  C_9 
REMARK    3  A    between atoms: C_9  and  C_10 
REMARK    4  A    between atoms: C_10  and  C_11 
REMARK    5  A    between atoms: C_11  and  O_12 
REMARK    6  A    between atoms: C_14  and  N_15 
REMARK    7  A    between atoms: N_15  and  C_16 
REMARK    8  A    between atoms: C_16  and  C_17 
ROOT
HETATM    1  C   UNL     1     -43.584  56.101 -51.572  1.00  0.00     0.001 A 
HETATM    2  C   UNL     1     -43.053  55.177 -52.475  1.00  0.00     0.017 A 
HETATM    3  C   UNL     1     -42.948  55.481 -53.852  1.00  0.00     0.032 A 
HETATM    4  C   UNL     1     -43.350  56.761 -54.278  1.00  0.00     0.062 A 
HETATM    5  N   UNL     1     -43.214  57.096 -55.566  1.00  0.00    -0.189 N 
HETATM    6  H   UNL     1     -43.515  58.001 -55.899  1.00  0.00     0.184 HD
HETATM    7  C   UNL     1     -42.712  56.248 -56.463  1.00  0.00     0.702 A 
HETATM    8  N   UNL     1     -42.328  55.002 -56.133  1.00  0.00    -0.052 NA
HETATM    9  C   UNL     1     -42.450  54.622 -54.849  1.00  0.00     0.135 A 
HETATM   10  C   UNL     1     -43.886  57.683 -53.366  1.00  0.00     0.031 A 
HETATM   11  C   UNL     1     -44.009  57.348 -52.019  1.00  0.00     0.002 A 
ENDROOT
BRANCH   9  12
HETATM   12  N   UNL     1     -42.036  53.313 -54.595  1.00  0.00    -0.272 NA
HETATM   13  H   UNL     1     -42.368  53.105 -53.652  1.00  0.00     0.129 HD
BRANCH  12  14
HETATM   14  C   UNL     1     -40.579  53.140 -54.610  1.00  0.00     0.132 C 
BRANCH  14  15
HETATM   15  C   UNL     1     -40.187  52.168 -53.522  1.00  0.00    -0.045 A 
HETATM   16  C   UNL     1     -39.893  50.830 -53.832  1.00  0.00     0.011 A 
HETATM   17  C   UNL     1     -39.555  49.930 -52.819  1.00  0.00     0.043 A 
HETATM   18  C   UNL     1     -39.522  50.362 -51.499  1.00  0.00     0.116 A 
HETATM   19  F   UNL     1     -39.201  49.498 -50.528  1.00  0.00    -0.206 F 
HETATM   20  C   UNL     1     -39.822  51.678 -51.170  1.00  0.00     0.043 A 
HETATM   21  C   UNL     1     -40.158  52.582 -52.178  1.00  0.00     0.011 A 
ENDBRANCH  14  15
ENDBRANCH  12  14
ENDBRANCH   9  12
BRANCH   7  22
HETATM   22  N   UNL     1     -42.649  56.685 -57.766  1.00  0.00    -0.224 N 
HETATM   23  H   UNL     1     -41.752  56.928 -58.168  1.00  0.00     0.177 HD
BRANCH  22  24
HETATM   24  C   UNL     1     -43.645  56.236 -58.738  1.00  0.00     0.140 C 
BRANCH  24  25
HETATM   25  C   UNL     1     -43.400  56.832 -60.121  1.00  0.00     0.046 C 
BRANCH  25  26
HETATM   26  C   UNL     1     -42.048  57.517 -60.254  1.00  0.00     0.165 C 
BRANCH  26  27
HETATM   27  O   UNL     1     -41.038  56.535 -60.427  1.00  0.00    -0.401 OA
HETATM   28  H   UNL     1     -40.219  56.986 -60.701  1.00  0.00     0.209 HD
ENDBRANCH  26  27
ENDBRANCH  25  26
ENDBRANCH  24  25
ENDBRANCH  22  24
ENDBRANCH   7  22
TORSDOF 8
ENDMDL
MODEL 2
REMARK VINA RESULT:      -7.6      2.511      4.901
REMARK  8 active torsions:
REMARK  status: ('A' for Active; 'I' for Inactive)
REMARK    1  A    between atoms: C_7  and  N_8 
REMARK    2  A    between atoms: N_8  and  C_9 
REMARK    3  A    between atoms: C_9  and  C_10 
REMARK    4  A    between atoms: C_10  and  C_11 
REMARK    5  A    between atoms: C_11  and  O_12 
REMARK    6  A    between atoms: C_14  and  N_15 
REMARK    7  A    between atoms: N_15  and  C_16 
REMARK    8  A    between atoms: C_16  and  C_17 
ROOT
HETATM    1  C   UNL     1     -40.939  53.071 -52.597  1.00  0.00     0.001 A 
HETATM    2  C   UNL     1     -41.995  53.976 -52.733  1.00  0.00     0.017 A 
HETATM    3  C   UNL     1     -42.212  54.664 -53.950  1.00  0.00     0.032 A 
HETATM    4  C   UNL     1     -41.364  54.372 -55.034  1.00  0.00     0.062 A 
HETATM    5  N   UNL     1     -41.578  54.968 -56.212  1.00  0.00    -0.189 N 
HETATM    6  H   UNL     1     -40.970  54.790 -56.999  1.00  0.00     0.184 HD
HETATM    7  C   UNL     1     -42.572  55.838 -56.390  1.00  0.00     0.702 A 
HETATM    8  N   UNL     1     -43.408  56.182 -55.394  1.00  0.00    -0.052 NA
HETATM    9  C   UNL     1     -43.227  55.609 -54.191  1.00  0.00     0.135 A 
HETATM   10  C   UNL     1     -40.304  53.464 -54.890  1.00  0.00     0.031 A 
HETATM   11  C   UNL     1     -40.090  52.823 -53.670  1.00  0.00     0.002 A 
ENDROOT
BRANCH   9  12
HETATM   12  N   UNL     1     -44.132  56.027 -53.213  1.00  0.00    -0.272 NA
HETATM   13  H   UNL     1     -45.054  55.779 -53.577  1.00  0.00     0.129 HD
BRANCH  12  14
HETATM   14  C   UNL     1     -44.115  57.474 -52.971  1.00  0.00     0.132 C 
BRANCH  14  15
HETATM   15  C   UNL     1     -42.793  57.855 -52.348  1.00  0.00    -0.045 A 
HETATM   16  C   UNL     1     -41.921  58.738 -53.005  1.00  0.00     0.011 A 
HETATM   17  C   UNL     1     -40.690  59.067 -52.435  1.00  0.00     0.043 A 
HETATM   18  C   UNL     1     -40.324  58.506 -51.218  1.00  0.00     0.116 A 
HETATM   19  F   UNL     1     -39.142  58.820 -50.673  1.00  0.00    -0.206 F 
HETATM   20  C   UNL     1     -41.167  57.620 -50.558  1.00  0.00     0.043 A 
HETATM   21  C   UNL     1     -42.399  57.289 -51.122  1.00  0.00     0.011 A 
ENDBRANCH  14  15
ENDBRANCH  12  14
ENDBRANCH   9  12
BRANCH   7  22
HETATM   22  N   UNL     1     -42.679  56.417 -57.633  1.00  0.00    -0.224 N 
HETATM   23  H   UNL     1     -41.955  57.047 -57.956  1.00  0.00     0.177 HD
BRANCH  22  24
HETATM   24  C   UNL     1     -43.397  55.724 -58.703  1.00  0.00     0.140 C 
BRANCH  24  25
HETATM   25  C   UNL     1     -43.445  56.551 -59.984  1.00  0.00     0.046 C 
BRANCH  25  26
HETATM   26  C   UNL     1     -42.192  57.383 -60.215  1.00  0.00     0.165 C 
BRANCH  26  27
HETATM   27  O   UNL     1     -41.077  56.520 -60.374  1.00  0.00    -0.401 OA
HETATM   28  H   UNL     1     -41.277  55.894 -61.094  1.00  0.00     0.209 HD
ENDBRANCH  26  27
ENDBRANCH  25  26
ENDBRANCH  24  25
ENDBRANCH  22  24
ENDBRANCH   7  22
TORSDOF 8
ENDMDL
MODEL 3
REMARK VINA RESULT:      -7.4      2.017      2.576
REMARK  8 active torsions:
REMARK  status: ('A' for Active; 'I' for Inactive)
REMARK    1  A    between atoms: C_7  and  N_8 
REMARK    2  A    between atoms: N_8  and  C_9 
REMARK    3  A    between atoms: C_9  and  C_10 
REMARK    4  A    between atoms: C_10  and  C_11 
REMARK    5  A    between atoms: C_11  and  O_12 
REMARK    6  A    between atoms: C_14  and  N_15 
REMARK    7  A    between atoms: N_15  and  C_16 
REMARK    8  A    between atoms: C_16  and  C_17 
ROOT
HETATM    1  C   UNL     1     -41.687  59.607 -53.388  1.00  0.00     0.001 A 
HETATM    2  C   UNL     1     -41.257  58.284 -53.509  1.00  0.00     0.017 A 
HETATM    3  C   UNL     1     -41.830  57.416 -54.467  1.00  0.00     0.032 A 
HETATM    4  C   UNL     1     -42.811  57.941 -55.329  1.00  0.00     0.062 A 
HETATM    5  N   UNL     1     -43.333  57.159 -56.281  1.00  0.00    -0.189 N 
HETATM    6  H   UNL     1     -44.054  57.506 -56.897  1.00  0.00     0.184 HD
HETATM    7  C   UNL     1     -42.955  55.890 -56.434  1.00  0.00     0.702 A 
HETATM    8  N   UNL     1     -42.039  55.316 -55.634  1.00  0.00    -0.052 NA
HETATM    9  C   UNL     1     -41.490  56.065 -54.662  1.00  0.00     0.135 A 
HETATM   10  C   UNL     1     -43.241  59.271 -55.200  1.00  0.00     0.031 A 
HETATM   11  C   UNL     1     -42.684  60.097 -54.225  1.00  0.00     0.002 A 
ENDROOT
BRANCH   9  12
HETATM   12  N   UNL     1     -40.556  55.390 -53.874  1.00  0.00    -0.272 NA
HETATM   13  H   UNL     1     -40.056  54.774 -54.518  1.00  0.00     0.129 HD
BRANCH  12  14
HETATM   14  C   UNL     1     -41.157  54.556 -52.826  1.00  0.00     0.132 C 
BRANCH  14  15
HETATM   15  C   UNL     1     -40.650  53.140 -52.971  1.00  0.00    -0.045 A 
HETATM   16  C   UNL     1     -39.967  52.514 -51.915  1.00  0.00     0.011 A 
HETATM   17  C   UNL     1     -39.480  51.214 -52.064  1.00  0.00     0.043 A 
HETATM   18  C   UNL     1     -39.662  50.546 -53.268  1.00  0.00     0.116 A 
HETATM   19  F   UNL     1     -39.191  49.301 -53.410  1.00  0.00    -0.206 F 
HETATM   20  C   UNL     1     -40.323  51.152 -54.329  1.00  0.00     0.043 A 
HETATM   21  C   UNL     1     -40.815  52.450 -54.185  1.00  0.00     0.011 A 
ENDBRANCH  14  15
ENDBRANCH  12  14
ENDBRANCH   9  12
BRANCH   7  22
HETATM   22  N   UNL     1     -43.581  55.168 -57.423  1.00  0.00    -0.224 N 
HETATM   23  H   UNL     1     -44.411  54.631 -57.200  1.00  0.00     0.177 HD
BRANCH  22  24
HETATM   24  C   UNL     1     -43.504  55.611 -58.814  1.00  0.00     0.140 C 
BRANCH  24  25
HETATM   25  C   UNL     1     -44.284  54.691 -59.749  1.00  0.00     0.046 C 
BRANCH  25  26
HETATM   26  C   UNL     1     -44.879  55.411 -60.950  1.00  0.00     0.165 C 
BRANCH  26  27
HETATM   27  O   UNL     1     -44.927  54.522 -62.054  1.00  0.00    -0.401 OA
HETATM   28  H   UNL     1     -44.963  53.610 -61.710  1.00  0.00     0.209 HD
ENDBRANCH  26  27
ENDBRANCH  25  26
ENDBRANCH  24  25
ENDBRANCH  22  24
ENDBRANCH   7  22
TORSDOF 8
ENDMDL
MODEL 4
REMARK VINA RESULT:      -7.3      3.802      7.244
REMARK  8 active torsions:
REMARK  status: ('A' for Active; 'I' for Inactive)
REMARK    1  A    between atoms: C_7  and  N_8 
REMARK    2  A    between atoms: N_8  and  C_9 
REMARK    3  A    between atoms: C_9  and  C_10 
REMARK    4  A    between atoms: C_10  and  C_11 
REMARK    5  A    between atoms: C_11  and  O_12 
REMARK    6  A    between atoms: C_14  and  N_15 
REMARK    7  A    between atoms: N_15  and  C_16 
REMARK    8  A    between atoms: C_16  and  C_17 
ROOT
HETATM    1  C   UNL     1     -39.715  51.525 -53.678  1.00  0.00     0.001 A 
HETATM    2  C   UNL     1     -40.214  52.593 -54.427  1.00  0.00     0.017 A 
HETATM    3  C   UNL     1     -40.687  53.767 -53.798  1.00  0.00     0.032 A 
HETATM    4  C   UNL     1     -40.592  53.848 -52.396  1.00  0.00     0.062 A 
HETATM    5  N   UNL     1     -40.982  54.967 -51.776  1.00  0.00    -0.189 N 
HETATM    6  H   UNL     1     -40.944  55.041 -50.769  1.00  0.00     0.184 HD
HETATM    7  C   UNL     1     -41.466  56.011 -52.449  1.00  0.00     0.702 A 
HETATM    8  N   UNL     1     -41.605  55.998 -53.786  1.00  0.00    -0.052 NA
HETATM    9  C   UNL     1     -41.227  54.891 -54.450  1.00  0.00     0.135 A 
HETATM   10  C   UNL     1     -40.093  52.770 -51.648  1.00  0.00     0.031 A 
HETATM   11  C   UNL     1     -39.663  51.610 -52.290  1.00  0.00     0.002 A 
ENDROOT
BRANCH   9  12
HETATM   12  N   UNL     1     -41.412  54.958 -55.832  1.00  0.00    -0.272 NA
HETATM   13  H   UNL     1     -40.819  55.728 -56.145  1.00  0.00     0.129 HD
BRANCH  12  14
HETATM   14  C   UNL     1     -42.792  55.259 -56.231  1.00  0.00     0.132 C 
BRANCH  14  15
HETATM   15  C   UNL     1     -42.770  56.157 -57.446  1.00  0.00    -0.045 A 
HETATM   16  C   UNL     1     -43.092  55.649 -58.715  1.00  0.00     0.011 A 
HETATM   17  C   UNL     1     -43.046  56.479 -59.838  1.00  0.00     0.043 A 
HETATM   18  C   UNL     1     -42.667  57.808 -59.695  1.00  0.00     0.116 A 
HETATM   19  F   UNL     1     -42.620  58.601 -60.772  1.00  0.00    -0.206 F 
HETATM   20  C   UNL     1     -42.332  58.326 -58.450  1.00  0.00     0.043 A 
HETATM   21  C   UNL     1     -42.379  57.502 -57.324  1.00  0.00     0.011 A 
ENDBRANCH  14  15
ENDBRANCH  12  14
ENDBRANCH   9  12
BRANCH   7  22
HETATM   22  N   UNL     1     -41.868  57.098 -51.708  1.00  0.00    -0.224 N 
HETATM   23  H   UNL     1     -42.841  57.188 -51.440  1.00  0.00     0.177 HD
BRANCH  22  24
HETATM   24  C   UNL     1     -40.928  57.753 -50.799  1.00  0.00     0.140 C 
BRANCH  24  25
HETATM   25  C   UNL     1     -40.652  59.197 -51.208  1.00  0.00     0.046 C 
BRANCH  25  26
HETATM   26  C   UNL     1     -41.361  59.609 -52.490  1.00  0.00     0.165 C 
BRANCH  26  27
HETATM   27  O   UNL     1     -40.574  59.223 -53.606  1.00  0.00    -0.401 OA
HETATM   28  H   UNL     1     -39.741  58.840 -53.275  1.00  0.00     0.209 HD
ENDBRANCH  26  27
ENDBRANCH  25  26
ENDBRANCH  24  25
ENDBRANCH  22  24
ENDBRANCH   7  22
TORSDOF 8
ENDMDL
MODEL 5
REMARK VINA RESULT:      -7.3     14.365     16.594
REMARK  8 active torsions:
REMARK  status: ('A' for Active; 'I' for Inactive)
REMARK    1  A    between atoms: C_7  and  N_8 
REMARK    2  A    between atoms: N_8  and  C_9 
REMARK    3  A    between atoms: C_9  and  C_10 
REMARK    4  A    between atoms: C_10  and  C_11 
REMARK    5  A    between atoms: C_11  and  O_12 
REMARK    6  A    between atoms: C_14  and  N_15 
REMARK    7  A    between atoms: N_15  and  C_16 
REMARK    8  A    between atoms: C_16  and  C_17 
ROOT
HETATM    1  C   UNL     1     -33.061  40.565 -56.961  1.00  0.00     0.001 A 
HETATM    2  C   UNL     1     -34.234  41.212 -56.563  1.00  0.00     0.017 A 
HETATM    3  C   UNL     1     -34.585  41.308 -55.197  1.00  0.00     0.032 A 
HETATM    4  C   UNL     1     -33.693  40.776 -54.247  1.00  0.00     0.062 A 
HETATM    5  N   UNL     1     -33.973  40.899 -52.945  1.00  0.00    -0.189 N 
HETATM    6  H   UNL     1     -33.359  40.506 -52.245  1.00  0.00     0.184 HD
HETATM    7  C   UNL     1     -35.079  41.507 -52.518  1.00  0.00     0.702 A 
HETATM    8  N   UNL     1     -35.987  42.019 -53.367  1.00  0.00    -0.052 NA
HETATM    9  C   UNL     1     -35.747  41.916 -54.686  1.00  0.00     0.135 A 
HETATM   10  C   UNL     1     -32.518  40.124 -54.654  1.00  0.00     0.031 A 
HETATM   11  C   UNL     1     -32.210  40.014 -56.009  1.00  0.00     0.002 A 
ENDROOT
BRANCH   9  12
HETATM   12  N   UNL     1     -36.742  42.466 -55.497  1.00  0.00    -0.272 NA
HETATM   13  H   UNL     1     -37.143  43.230 -54.949  1.00  0.00     0.129 HD
BRANCH  12  14
HETATM   14  C   UNL     1     -37.823  41.529 -55.826  1.00  0.00     0.132 C 
BRANCH  14  15
HETATM   15  C   UNL     1     -37.727  41.160 -57.288  1.00  0.00    -0.045 A 
HETATM   16  C   UNL     1     -37.298  42.103 -58.236  1.00  0.00     0.011 A 
HETATM   17  C   UNL     1     -37.234  41.762 -59.589  1.00  0.00     0.043 A 
HETATM   18  C   UNL     1     -37.610  40.488 -59.995  1.00  0.00     0.116 A 
HETATM   19  F   UNL     1     -37.552  40.163 -61.292  1.00  0.00    -0.206 F 
HETATM   20  C   UNL     1     -38.050  39.544 -59.074  1.00  0.00     0.043 A 
HETATM   21  C   UNL     1     -38.113  39.879 -57.721  1.00  0.00     0.011 A 
ENDBRANCH  14  15
ENDBRANCH  12  14
ENDBRANCH   9  12
BRANCH   7  22
HETATM   22  N   UNL     1     -35.283  41.546 -51.158  1.00  0.00    -0.224 N 
HETATM   23  H   UNL     1     -35.811  42.310 -50.754  1.00  0.00     0.177 HD
BRANCH  22  24
HETATM   24  C   UNL     1     -35.336  40.303 -50.389  1.00  0.00     0.140 C 
BRANCH  24  25
HETATM   25  C   UNL     1     -36.765  39.927 -50.012  1.00  0.00     0.046 C 
BRANCH  25  26
HETATM   26  C   UNL     1     -37.618  39.517 -51.203  1.00  0.00     0.165 C 
BRANCH  26  27
HETATM   27  O   UNL     1     -38.295  40.656 -51.711  1.00  0.00    -0.401 OA
HETATM   28  H   UNL     1     -38.896  40.363 -52.420  1.00  0.00     0.209 HD
ENDBRANCH  26  27
ENDBRANCH  25  26
ENDBRANCH  24  25
ENDBRANCH  22  24
ENDBRANCH   7  22
TORSDOF 8
ENDMDL
MODEL 6
REMARK VINA RESULT:      -7.3      2.776      4.854
REMARK  8 active torsions:
REMARK  status: ('A' for Active; 'I' for Inactive)
REMARK    1  A    between atoms: C_7  and  N_8 
REMARK    2  A    between atoms: N_8  and  C_9 
REMARK    3  A    between atoms: C_9  and  C_10 
REMARK    4  A    between atoms: C_10  and  C_11 
REMARK    5  A    between atoms: C_11  and  O_12 
REMARK    6  A    between atoms: C_14  and  N_15 
REMARK    7  A    between atoms: N_15  and  C_16 
REMARK    8  A    between atoms: C_16  and  C_17 
ROOT
HETATM    1  C   UNL     1     -43.323  55.841 -58.201  1.00  0.00     0.001 A 
HETATM    2  C   UNL     1     -42.903  55.298 -56.985  1.00  0.00     0.017 A 
HETATM    3  C   UNL     1     -42.384  56.121 -55.959  1.00  0.00     0.032 A 
HETATM    4  C   UNL     1     -42.350  57.510 -56.183  1.00  0.00     0.062 A 
HETATM    5  N   UNL     1     -41.913  58.320 -55.211  1.00  0.00    -0.189 N 
HETATM    6  H   UNL     1     -41.859  59.318 -55.356  1.00  0.00     0.184 HD
HETATM    7  C   UNL     1     -41.502  57.847 -54.035  1.00  0.00     0.702 A 
HETATM    8  N   UNL     1     -41.486  56.531 -53.758  1.00  0.00    -0.052 NA
HETATM    9  C   UNL     1     -41.914  55.681 -54.708  1.00  0.00     0.135 A 
HETATM   10  C   UNL     1     -42.770  58.050 -57.408  1.00  0.00     0.031 A 
HETATM   11  C   UNL     1     -43.248  57.213 -58.416  1.00  0.00     0.002 A 
ENDROOT
BRANCH   9  12
HETATM   12  N   UNL     1     -41.858  54.335 -54.343  1.00  0.00    -0.272 NA
HETATM   13  H   UNL     1     -41.885  54.332 -53.321  1.00  0.00     0.129 HD
BRANCH  12  14
HETATM   14  C   UNL     1     -40.624  53.659 -54.763  1.00  0.00     0.132 C 
BRANCH  14  15
HETATM   15  C   UNL     1     -40.272  52.598 -53.746  1.00  0.00    -0.045 A 
HETATM   16  C   UNL     1     -40.175  52.921 -52.383  1.00  0.00     0.011 A 
HETATM   17  C   UNL     1     -39.825  51.941 -51.451  1.00  0.00     0.043 A 
HETATM   18  C   UNL     1     -39.561  50.647 -51.880  1.00  0.00     0.116 A 
HETATM   19  F   UNL     1     -39.223  49.710 -50.987  1.00  0.00    -0.206 F 
HETATM   20  C   UNL     1     -39.639  50.311 -53.226  1.00  0.00     0.043 A 
HETATM   21  C   UNL     1     -39.990  51.285 -54.162  1.00  0.00     0.011 A 
ENDBRANCH  14  15
ENDBRANCH  12  14
ENDBRANCH   9  12
BRANCH   7  22
HETATM   22  N   UNL     1     -41.042  58.766 -53.120  1.00  0.00    -0.224 N 
HETATM   23  H   UNL     1     -40.769  59.690 -53.434  1.00  0.00     0.177 HD
BRANCH  22  24
HETATM   24  C   UNL     1     -41.499  58.710 -51.732  1.00  0.00     0.140 C 
BRANCH  24  25
HETATM   25  C   UNL     1     -40.355  58.415 -50.767  1.00  0.00     0.046 C 
BRANCH  25  26
HETATM   26  C   UNL     1     -39.350  59.553 -50.653  1.00  0.00     0.165 C 
BRANCH  26  27
HETATM   27  O   UNL     1     -38.478  59.522 -51.772  1.00  0.00    -0.401 OA
HETATM   28  H   UNL     1     -37.659  59.063 -51.507  1.00  0.00     0.209 HD
ENDBRANCH  26  27
ENDBRANCH  25  26
ENDBRANCH  24  25
ENDBRANCH  22  24
ENDBRANCH   7  22
TORSDOF 8
ENDMDL
MODEL 7
REMARK VINA RESULT:      -7.1      2.482      3.125
REMARK  8 active torsions:
REMARK  status: ('A' for Active; 'I' for Inactive)
REMARK    1  A    between atoms: C_7  and  N_8 
REMARK    2  A    between atoms: N_8  and  C_9 
REMARK    3  A    between atoms: C_9  and  C_10 
REMARK    4  A    between atoms: C_10  and  C_11 
REMARK    5  A    between atoms: C_11  and  O_12 
REMARK    6  A    between atoms: C_14  and  N_15 
REMARK    7  A    between atoms: N_15  and  C_16 
REMARK    8  A    between atoms: C_16  and  C_17 
ROOT
HETATM    1  C   UNL     1     -40.809  58.453 -52.916  1.00  0.00     0.001 A 
HETATM    2  C   UNL     1     -40.662  57.117 -53.296  1.00  0.00     0.017 A 
HETATM    3  C   UNL     1     -41.427  56.572 -54.353  1.00  0.00     0.032 A 
HETATM    4  C   UNL     1     -42.304  57.429 -55.043  1.00  0.00     0.062 A 
HETATM    5  N   UNL     1     -43.002  56.954 -56.082  1.00  0.00    -0.189 N 
HETATM    6  H   UNL     1     -43.654  57.545 -56.579  1.00  0.00     0.184 HD
HETATM    7  C   UNL     1     -42.896  55.687 -56.480  1.00  0.00     0.702 A 
HETATM    8  N   UNL     1     -42.094  54.806 -55.855  1.00  0.00    -0.052 NA
HETATM    9  C   UNL     1     -41.376  55.240 -54.804  1.00  0.00     0.135 A 
HETATM   10  C   UNL     1     -42.450  58.770 -54.655  1.00  0.00     0.031 A 
HETATM   11  C   UNL     1     -41.708  59.275 -53.588  1.00  0.00     0.002 A 
ENDROOT
BRANCH   9  12
HETATM   12  N   UNL     1     -40.578  54.261 -54.210  1.00  0.00    -0.272 NA
HETATM   13  H   UNL     1     -40.147  53.757 -54.988  1.00  0.00     0.129 HD
BRANCH  12  14
HETATM   14  C   UNL     1     -41.331  53.291 -53.405  1.00  0.00     0.132 C 
BRANCH  14  15
HETATM   15  C   UNL     1     -41.222  53.671 -51.947  1.00  0.00    -0.045 A 
HETATM   16  C   UNL     1     -42.290  54.307 -51.293  1.00  0.00     0.011 A 
HETATM   17  C   UNL     1     -42.175  54.677 -49.951  1.00  0.00     0.043 A 
HETATM   18  C   UNL     1     -40.992  54.425 -49.268  1.00  0.00     0.116 A 
HETATM   19  F   UNL     1     -40.881  54.783 -47.983  1.00  0.00    -0.206 F 
HETATM   20  C   UNL     1     -39.919  53.809 -49.901  1.00  0.00     0.043 A 
HETATM   21  C   UNL     1     -40.030  53.434 -51.240  1.00  0.00     0.011 A 
ENDBRANCH  14  15
ENDBRANCH  12  14
ENDBRANCH   9  12
BRANCH   7  22
HETATM   22  N   UNL     1     -43.685  55.298 -57.537  1.00  0.00    -0.224 N 
HETATM   23  H   UNL     1     -44.562  54.826 -57.359  1.00  0.00     0.177 HD
BRANCH  22  24
HETATM   24  C   UNL     1     -43.645  56.045 -58.794  1.00  0.00     0.140 C 
BRANCH  24  25
HETATM   25  C   UNL     1     -43.718  55.122 -60.007  1.00  0.00     0.046 C 
BRANCH  25  26
HETATM   26  C   UNL     1     -45.118  54.999 -60.591  1.00  0.00     0.165 C 
BRANCH  26  27
HETATM   27  O   UNL     1     -45.036  54.983 -62.007  1.00  0.00    -0.401 OA
HETATM   28  H   UNL     1     -44.678  54.119 -62.282  1.00  0.00     0.209 HD
ENDBRANCH  26  27
ENDBRANCH  25  26
ENDBRANCH  24  25
ENDBRANCH  22  24
ENDBRANCH   7  22
TORSDOF 8
ENDMDL
MODEL 8
REMARK VINA RESULT:      -7.0      4.120      7.548
REMARK  8 active torsions:
REMARK  status: ('A' for Active; 'I' for Inactive)
REMARK    1  A    between atoms: C_7  and  N_8 
REMARK    2  A    between atoms: N_8  and  C_9 
REMARK    3  A    between atoms: C_9  and  C_10 
REMARK    4  A    between atoms: C_10  and  C_11 
REMARK    5  A    between atoms: C_11  and  O_12 
REMARK    6  A    between atoms: C_14  and  N_15 
REMARK    7  A    between atoms: N_15  and  C_16 
REMARK    8  A    between atoms: C_16  and  C_17 
ROOT
HETATM    1  C   UNL     1     -39.613  51.637 -53.622  1.00  0.00     0.001 A 
HETATM    2  C   UNL     1     -40.166  52.670 -54.382  1.00  0.00     0.017 A 
HETATM    3  C   UNL     1     -40.779  53.783 -53.761  1.00  0.00     0.032 A 
HETATM    4  C   UNL     1     -40.770  53.842 -52.355  1.00  0.00     0.062 A 
HETATM    5  N   UNL     1     -41.296  54.908 -51.740  1.00  0.00    -0.189 N 
HETATM    6  H   UNL     1     -41.321  54.962 -50.732  1.00  0.00     0.184 HD
HETATM    7  C   UNL     1     -41.835  55.917 -52.423  1.00  0.00     0.702 A 
HETATM    8  N   UNL     1     -41.898  55.920 -53.766  1.00  0.00    -0.052 NA
HETATM    9  C   UNL     1     -41.384  54.866 -54.425  1.00  0.00     0.135 A 
HETATM   10  C   UNL     1     -40.216  52.798 -51.597  1.00  0.00     0.031 A 
HETATM   11  C   UNL     1     -39.646  51.696 -52.232  1.00  0.00     0.002 A 
ENDROOT
BRANCH   9  12
HETATM   12  N   UNL     1     -41.497  54.946 -55.814  1.00  0.00    -0.272 NA
HETATM   13  H   UNL     1     -41.011  55.805 -56.074  1.00  0.00     0.129 HD
BRANCH  12  14
HETATM   14  C   UNL     1     -42.882  55.048 -56.290  1.00  0.00     0.132 C 
BRANCH  14  15
HETATM   15  C   UNL     1     -42.920  55.943 -57.507  1.00  0.00    -0.045 A 
HETATM   16  C   UNL     1     -42.517  57.285 -57.419  1.00  0.00     0.011 A 
HETATM   17  C   UNL     1     -42.577  58.114 -58.542  1.00  0.00     0.043 A 
HETATM   18  C   UNL     1     -43.050  57.606 -59.745  1.00  0.00     0.116 A 
HETATM   19  F   UNL     1     -43.111  58.402 -60.820  1.00  0.00    -0.206 F 
HETATM   20  C   UNL     1     -43.467  56.284 -59.850  1.00  0.00     0.043 A 
HETATM   21  C   UNL     1     -43.406  55.452 -58.732  1.00  0.00     0.011 A 
ENDBRANCH  14  15
ENDBRANCH  12  14
ENDBRANCH   9  12
BRANCH   7  22
HETATM   22  N   UNL     1     -42.377  56.947 -51.689  1.00  0.00    -0.224 N 
HETATM   23  H   UNL     1     -41.819  57.770 -51.494  1.00  0.00     0.177 HD
BRANCH  22  24
HETATM   24  C   UNL     1     -43.819  57.188 -51.720  1.00  0.00     0.140 C 
BRANCH  24  25
HETATM   25  C   UNL     1     -44.163  58.628 -51.350  1.00  0.00     0.046 C 
BRANCH  25  26
HETATM   26  C   UNL     1     -45.625  58.826 -50.978  1.00  0.00     0.165 C 
BRANCH  26  27
HETATM   27  O   UNL     1     -45.757  58.798 -49.566  1.00  0.00    -0.401 OA
HETATM   28  H   UNL     1     -46.523  58.238 -49.342  1.00  0.00     0.209 HD
ENDBRANCH  26  27
ENDBRANCH  25  26
ENDBRANCH  24  25
ENDBRANCH  22  24
ENDBRANCH   7  22
TORSDOF 8
ENDMDL
MODEL 9
REMARK VINA RESULT:      -7.0     14.463     15.781
REMARK  8 active torsions:
REMARK  status: ('A' for Active; 'I' for Inactive)
REMARK    1  A    between atoms: C_7  and  N_8 
REMARK    2  A    between atoms: N_8  and  C_9 
REMARK    3  A    between atoms: C_9  and  C_10 
REMARK    4  A    between atoms: C_10  and  C_11 
REMARK    5  A    between atoms: C_11  and  O_12 
REMARK    6  A    between atoms: C_14  and  N_15 
REMARK    7  A    between atoms: N_15  and  C_16 
REMARK    8  A    between atoms: C_16  and  C_17 
ROOT
HETATM    1  C   UNL     1     -35.339  42.286 -56.943  1.00  0.00     0.001 A 
HETATM    2  C   UNL     1     -35.121  42.384 -55.567  1.00  0.00     0.017 A 
HETATM    3  C   UNL     1     -36.142  42.064 -54.643  1.00  0.00     0.032 A 
HETATM    4  C   UNL     1     -37.368  41.596 -55.151  1.00  0.00     0.062 A 
HETATM    5  N   UNL     1     -38.335  41.236 -54.299  1.00  0.00    -0.189 N 
HETATM    6  H   UNL     1     -39.231  40.917 -54.640  1.00  0.00     0.184 HD
HETATM    7  C   UNL     1     -38.174  41.313 -52.979  1.00  0.00     0.702 A 
HETATM    8  N   UNL     1     -37.038  41.770 -52.423  1.00  0.00    -0.052 NA
HETATM    9  C   UNL     1     -36.040  42.146 -53.242  1.00  0.00     0.135 A 
HETATM   10  C   UNL     1     -37.582  41.503 -56.535  1.00  0.00     0.031 A 
HETATM   11  C   UNL     1     -36.570  41.855 -57.426  1.00  0.00     0.002 A 
ENDROOT
BRANCH   9  12
HETATM   12  N   UNL     1     -34.902  42.615 -52.584  1.00  0.00    -0.272 NA
HETATM   13  H   UNL     1     -34.127  42.435 -53.225  1.00  0.00     0.129 HD
BRANCH  12  14
HETATM   14  C   UNL     1     -34.617  41.918 -51.324  1.00  0.00     0.132 C 
BRANCH  14  15
HETATM   15  C   UNL     1     -33.668  40.774 -51.597  1.00  0.00    -0.045 A 
HETATM   16  C   UNL     1     -32.950  40.714 -52.803  1.00  0.00     0.011 A 
HETATM   17  C   UNL     1     -32.093  39.642 -53.059  1.00  0.00     0.043 A 
HETATM   18  C   UNL     1     -31.963  38.627 -52.120  1.00  0.00     0.116 A 
HETATM   19  F   UNL     1     -31.144  37.598 -52.369  1.00  0.00    -0.206 F 
HETATM   20  C   UNL     1     -32.674  38.660 -50.927  1.00  0.00     0.043 A 
HETATM   21  C   UNL     1     -33.530  39.731 -50.664  1.00  0.00     0.011 A 
ENDBRANCH  14  15
ENDBRANCH  12  14
ENDBRANCH   9  12
BRANCH   7  22
HETATM   22  N   UNL     1     -39.246  40.948 -52.197  1.00  0.00    -0.224 N 
HETATM   23  H   UNL     1     -39.214  41.110 -51.198  1.00  0.00     0.177 HD
BRANCH  22  24
HETATM   24  C   UNL     1     -40.594  40.934 -52.764  1.00  0.00     0.140 C 
BRANCH  24  25
HETATM   25  C   UNL     1     -41.662  40.765 -51.688  1.00  0.00     0.046 C 
BRANCH  25  26
HETATM   26  C   UNL     1     -42.024  39.313 -51.417  1.00  0.00     0.165 C 
BRANCH  26  27
HETATM   27  O   UNL     1     -43.336  39.248 -50.880  1.00  0.00    -0.401 OA
HETATM   28  H   UNL     1     -43.269  39.269 -49.908  1.00  0.00     0.209 HD
ENDBRANCH  26  27
ENDBRANCH  25  26
ENDBRANCH  24  25
ENDBRANCH  22  24
ENDBRANCH   7  22
TORSDOF 8
ENDMDL
MODEL 10
REMARK VINA RESULT:      -6.8      2.440      3.221
REMARK  8 active torsions:
REMARK  status: ('A' for Active; 'I' for Inactive)
REMARK    1  A    between atoms: C_7  and  N_8 
REMARK    2  A    between atoms: N_8  and  C_9 
REMARK    3  A    between atoms: C_9  and  C_10 
REMARK    4  A    between atoms: C_10  and  C_11 
REMARK    5  A    between atoms: C_11  and  O_12 
REMARK    6  A    between atoms: C_14  and  N_15 
REMARK    7  A    between atoms: N_15  and  C_16 
REMARK    8  A    between atoms: C_16  and  C_17 
ROOT
HETATM    1  C   UNL     1     -41.368  59.607 -50.350  1.00  0.00     0.001 A 
HETATM    2  C   UNL     1     -41.202  58.447 -51.110  1.00  0.00     0.017 A 
HETATM    3  C   UNL     1     -42.187  58.037 -52.038  1.00  0.00     0.032 A 
HETATM    4  C   UNL     1     -43.315  58.860 -52.210  1.00  0.00     0.062 A 
HETATM    5  N   UNL     1     -44.238  58.526 -53.119  1.00  0.00    -0.189 N 
HETATM    6  H   UNL     1     -45.067  59.089 -53.245  1.00  0.00     0.184 HD
HETATM    7  C   UNL     1     -44.124  57.428 -53.866  1.00  0.00     0.702 A 
HETATM    8  N   UNL     1     -43.084  56.583 -53.741  1.00  0.00    -0.052 NA
HETATM    9  C   UNL     1     -42.135  56.880 -52.837  1.00  0.00     0.135 A 
HETATM   10  C   UNL     1     -43.477  60.023 -51.441  1.00  0.00     0.031 A 
HETATM   11  C   UNL     1     -42.508  60.389 -50.509  1.00  0.00     0.002 A 
ENDROOT
BRANCH   9  12
HETATM   12  N   UNL     1     -41.097  55.948 -52.767  1.00  0.00    -0.272 NA
HETATM   13  H   UNL     1     -40.980  55.604 -53.722  1.00  0.00     0.129 HD
BRANCH  12  14
HETATM   14  C   UNL     1     -41.392  54.797 -51.906  1.00  0.00     0.132 C 
BRANCH  14  15
HETATM   15  C   UNL     1     -40.768  53.559 -52.506  1.00  0.00    -0.045 A 
HETATM   16  C   UNL     1     -40.989  53.230 -53.854  1.00  0.00     0.011 A 
HETATM   17  C   UNL     1     -40.430  52.072 -54.397  1.00  0.00     0.043 A 
HETATM   18  C   UNL     1     -39.663  51.237 -53.594  1.00  0.00     0.116 A 
HETATM   19  F   UNL     1     -39.130  50.125 -54.114  1.00  0.00    -0.206 F 
HETATM   20  C   UNL     1     -39.444  51.537 -52.255  1.00  0.00     0.043 A 
HETATM   21  C   UNL     1     -39.999  52.695 -51.708  1.00  0.00     0.011 A 
ENDBRANCH  14  15
ENDBRANCH  12  14
ENDBRANCH   9  12
BRANCH   7  22
HETATM   22  N   UNL     1     -45.148  57.162 -54.745  1.00  0.00    -0.224 N 
HETATM   23  H   UNL     1     -45.945  56.620 -54.435  1.00  0.00     0.177 HD
BRANCH  22  24
HETATM   24  C   UNL     1     -45.439  58.096 -55.833  1.00  0.00     0.140 C 
BRANCH  24  25
HETATM   25  C   UNL     1     -44.262  58.234 -56.794  1.00  0.00     0.046 C 
BRANCH  25  26
HETATM   26  C   UNL     1     -44.033  56.998 -57.652  1.00  0.00     0.165 C 
BRANCH  26  27
HETATM   27  O   UNL     1     -43.527  55.950 -56.841  1.00  0.00    -0.401 OA
HETATM   28  H   UNL     1     -44.265  55.586 -56.318  1.00  0.00     0.209 HD
ENDBRANCH  26  27
ENDBRANCH  25  26
ENDBRANCH  24  25
ENDBRANCH  22  24
ENDBRANCH   7  22
TORSDOF 8
ENDMDL
