MODEL 1
REMARK VINA RESULT:      -8.7      0.000      0.000
REMARK  6 active torsions:
REMARK  status: ('A' for Active; 'I' for Inactive)
REMARK    1  A    between atoms: C_2  and  N_3 
REMARK    2  A    between atoms: C_2  and  C_19 
REMARK       I    between atoms: N_3  and  C_4 
REMARK    3  A    between atoms: C_4  and  C_5 
REMARK    4  A    between atoms: C_9  and  C_10 
REMARK    5  A    between atoms: C_13  and  O_14 
REMARK    6  A    between atoms: C_19  and  C_20 
ROOT
HETATM    1  N   UNL     1     -42.540  55.563 -52.909  1.00  0.00    -0.347 N 
HETATM    2  C   UNL     1     -41.887  56.571 -53.581  1.00  0.00     0.270 C 
HETATM    3  O   UNL     1     -40.982  57.238 -53.092  1.00  0.00    -0.266 OA
HETATM    4  H   UNL     1     -43.106  54.948 -53.475  1.00  0.00     0.163 HD
ENDROOT
BRANCH   2   5
HETATM    5  C   UNL     1     -42.313  56.756 -54.943  1.00  0.00     0.120 A 
HETATM    6  N   UNL     1     -42.140  57.942 -55.600  1.00  0.00    -0.272 N 
HETATM    7  H   UNL     1     -41.730  58.791 -55.223  1.00  0.00     0.189 HD
HETATM    8  N   UNL     1     -42.545  57.927 -56.879  1.00  0.00    -0.174 NA
HETATM    9  C   UNL     1     -43.030  56.690 -57.070  1.00  0.00     0.089 A 
HETATM   10  C   UNL     1     -42.915  55.932 -55.871  1.00  0.00     0.071 A 
BRANCH   9  11
HETATM   11  C   UNL     1     -43.565  56.255 -58.366  1.00  0.00    -0.005 A 
HETATM   12  C   UNL     1     -43.843  54.898 -58.605  1.00  0.00     0.016 A 
HETATM   13  C   UNL     1     -44.374  54.475 -59.828  1.00  0.00     0.037 A 
HETATM   14  C   UNL     1     -44.626  55.411 -60.823  1.00  0.00     0.065 A 
HETATM   15  C   UNL     1     -44.355  56.756 -60.616  1.00  0.00     0.037 A 
HETATM   16  C   UNL     1     -43.826  57.178 -59.392  1.00  0.00     0.016 A 
BRANCH  14  17
HETATM   17  O   UNL     1     -45.148  55.047 -62.028  1.00  0.00    -0.361 OA
HETATM   18  H   UNL     1     -46.045  55.415 -62.098  1.00  0.00     0.217 HD
ENDBRANCH  14  17
ENDBRANCH   9  11
ENDBRANCH   2   5
BRANCH   1  19
HETATM   19  C   UNL     1     -42.144  55.026 -51.595  1.00  0.00     0.030 C 
HETATM   20  C   UNL     1     -42.351  56.078 -50.486  1.00  0.00     0.038 C 
HETATM   21  C   UNL     1     -43.090  53.849 -51.274  1.00  0.00     0.038 C 
BRANCH  19  22
HETATM   22  C   UNL     1     -40.656  54.559 -51.577  1.00  0.00     0.069 C 
BRANCH  22  23
HETATM   23  C   UNL     1     -40.361  53.265 -52.309  1.00  0.00    -0.056 A 
HETATM   24  C   UNL     1     -39.879  52.148 -51.605  1.00  0.00     0.010 A 
HETATM   25  C   UNL     1     -39.586  50.960 -52.274  1.00  0.00     0.043 A 
HETATM   26  C   UNL     1     -39.784  50.881 -53.646  1.00  0.00     0.116 A 
HETATM   27  F   UNL     1     -39.503  49.740 -54.290  1.00  0.00    -0.206 F 
HETATM   28  C   UNL     1     -40.274  51.967 -54.361  1.00  0.00     0.043 A 
HETATM   29  C   UNL     1     -40.566  53.157 -53.693  1.00  0.00     0.010 A 
ENDBRANCH  22  23
ENDBRANCH  19  22
ENDBRANCH   1  19
TORSDOF 6
ENDMDL
MODEL 2
REMARK VINA RESULT:      -8.2      3.722      8.730
REMARK  6 active torsions:
REMARK  status: ('A' for Active; 'I' for Inactive)
REMARK    1  A    between atoms: C_2  and  N_3 
REMARK    2  A    between atoms: C_2  and  C_19 
REMARK       I    between atoms: N_3  and  C_4 
REMARK    3  A    between atoms: C_4  and  C_5 
REMARK    4  A    between atoms: C_9  and  C_10 
REMARK    5  A    between atoms: C_13  and  O_14 
REMARK    6  A    between atoms: C_19  and  C_20 
ROOT
HETATM    1  N   UNL     1     -42.249  56.181 -57.288  1.00  0.00    -0.347 N 
HETATM    2  C   UNL     1     -42.085  56.624 -55.995  1.00  0.00     0.270 C 
HETATM    3  O   UNL     1     -42.391  57.750 -55.619  1.00  0.00    -0.266 OA
HETATM    4  H   UNL     1     -42.169  55.184 -57.428  1.00  0.00     0.163 HD
ENDROOT
BRANCH   2   5
HETATM    5  C   UNL     1     -41.570  55.636 -55.084  1.00  0.00     0.120 A 
HETATM    6  N   UNL     1     -41.362  55.910 -53.762  1.00  0.00    -0.272 N 
HETATM    7  H   UNL     1     -41.518  56.798 -53.293  1.00  0.00     0.189 HD
HETATM    8  N   UNL     1     -40.929  54.863 -53.043  1.00  0.00    -0.174 NA
HETATM    9  C   UNL     1     -40.822  53.861 -53.930  1.00  0.00     0.089 A 
HETATM   10  C   UNL     1     -41.201  54.314 -55.225  1.00  0.00     0.071 A 
BRANCH   9  11
HETATM   11  C   UNL     1     -40.388  52.514 -53.536  1.00  0.00    -0.005 A 
HETATM   12  C   UNL     1     -39.920  52.268 -52.234  1.00  0.00     0.016 A 
HETATM   13  C   UNL     1     -39.525  50.986 -51.840  1.00  0.00     0.037 A 
HETATM   14  C   UNL     1     -39.595  49.940 -52.751  1.00  0.00     0.065 A 
HETATM   15  C   UNL     1     -40.048  50.156 -54.045  1.00  0.00     0.037 A 
HETATM   16  C   UNL     1     -40.443  51.439 -54.437  1.00  0.00     0.016 A 
BRANCH  14  17
HETATM   17  O   UNL     1     -39.228  48.672 -52.412  1.00  0.00    -0.361 OA
HETATM   18  H   UNL     1     -38.834  48.693 -51.524  1.00  0.00     0.217 HD
ENDBRANCH  14  17
ENDBRANCH   9  11
ENDBRANCH   2   5
BRANCH   1  19
HETATM   19  C   UNL     1     -42.959  56.912 -58.351  1.00  0.00     0.030 C 
HETATM   20  C   UNL     1     -42.135  58.126 -58.829  1.00  0.00     0.038 C 
HETATM   21  C   UNL     1     -43.090  55.960 -59.559  1.00  0.00     0.038 C 
BRANCH  19  22
HETATM   22  C   UNL     1     -44.363  57.409 -57.884  1.00  0.00     0.069 C 
BRANCH  22  23
HETATM   23  C   UNL     1     -45.388  57.615 -58.982  1.00  0.00    -0.056 A 
HETATM   24  C   UNL     1     -46.155  56.533 -59.445  1.00  0.00     0.010 A 
HETATM   25  C   UNL     1     -47.086  56.710 -60.470  1.00  0.00     0.043 A 
HETATM   26  C   UNL     1     -47.259  57.970 -61.025  1.00  0.00     0.116 A 
HETATM   27  F   UNL     1     -48.152  58.141 -62.009  1.00  0.00    -0.206 F 
HETATM   28  C   UNL     1     -46.523  59.058 -60.573  1.00  0.00     0.043 A 
HETATM   29  C   UNL     1     -45.590  58.883 -59.549  1.00  0.00     0.010 A 
ENDBRANCH  22  23
ENDBRANCH  19  22
ENDBRANCH   1  19
TORSDOF 6
ENDMDL
MODEL 3
REMARK VINA RESULT:      -8.2      3.142      8.052
REMARK  6 active torsions:
REMARK  status: ('A' for Active; 'I' for Inactive)
REMARK    1  A    between atoms: C_2  and  N_3 
REMARK    2  A    between atoms: C_2  and  C_19 
REMARK       I    between atoms: N_3  and  C_4 
REMARK    3  A    between atoms: C_4  and  C_5 
REMARK    4  A    between atoms: C_9  and  C_10 
REMARK    5  A    between atoms: C_13  and  O_14 
REMARK    6  A    between atoms: C_19  and  C_20 
ROOT
HETATM    1  N   UNL     1     -42.030  57.129 -56.372  1.00  0.00    -0.347 N 
HETATM    2  C   UNL     1     -42.428  56.491 -55.220  1.00  0.00     0.270 C 
HETATM    3  O   UNL     1     -43.361  56.869 -54.521  1.00  0.00    -0.266 OA
HETATM    4  H   UNL     1     -41.404  56.612 -56.972  1.00  0.00     0.163 HD
ENDROOT
BRANCH   2   5
HETATM    5  C   UNL     1     -41.691  55.293 -54.915  1.00  0.00     0.120 A 
HETATM    6  N   UNL     1     -40.737  54.797 -55.758  1.00  0.00    -0.272 N 
HETATM    7  H   UNL     1     -40.461  55.181 -56.657  1.00  0.00     0.189 HD
HETATM    8  N   UNL     1     -40.110  53.703 -55.298  1.00  0.00    -0.174 NA
HETATM    9  C   UNL     1     -40.689  53.450 -54.114  1.00  0.00     0.089 A 
HETATM   10  C   UNL     1     -41.698  54.417 -53.848  1.00  0.00     0.071 A 
BRANCH   9  11
HETATM   11  C   UNL     1     -40.269  52.326 -53.266  1.00  0.00    -0.005 A 
HETATM   12  C   UNL     1     -40.151  52.487 -51.876  1.00  0.00     0.016 A 
HETATM   13  C   UNL     1     -39.774  51.418 -51.055  1.00  0.00     0.037 A 
HETATM   14  C   UNL     1     -39.509  50.180 -51.627  1.00  0.00     0.065 A 
HETATM   15  C   UNL     1     -39.612  49.996 -52.999  1.00  0.00     0.037 A 
HETATM   16  C   UNL     1     -39.991  51.065 -53.817  1.00  0.00     0.016 A 
BRANCH  14  17
HETATM   17  O   UNL     1     -39.145  49.108 -50.869  1.00  0.00    -0.361 OA
HETATM   18  H   UNL     1     -39.136  49.379 -49.936  1.00  0.00     0.217 HD
ENDBRANCH  14  17
ENDBRANCH   9  11
ENDBRANCH   2   5
BRANCH   1  19
HETATM   19  C   UNL     1     -42.754  58.236 -57.021  1.00  0.00     0.030 C 
HETATM   20  C   UNL     1     -42.734  59.501 -56.138  1.00  0.00     0.038 C 
HETATM   21  C   UNL     1     -41.995  58.587 -58.319  1.00  0.00     0.038 C 
BRANCH  19  22
HETATM   22  C   UNL     1     -44.237  57.862 -57.333  1.00  0.00     0.069 C 
BRANCH  22  23
HETATM   23  C   UNL     1     -44.452  56.965 -58.535  1.00  0.00    -0.056 A 
HETATM   24  C   UNL     1     -43.744  55.757 -58.652  1.00  0.00     0.010 A 
HETATM   25  C   UNL     1     -43.921  54.935 -59.765  1.00  0.00     0.043 A 
HETATM   26  C   UNL     1     -44.813  55.313 -60.759  1.00  0.00     0.116 A 
HETATM   27  F   UNL     1     -44.983  54.525 -61.829  1.00  0.00    -0.206 F 
HETATM   28  C   UNL     1     -45.535  56.496 -60.659  1.00  0.00     0.043 A 
HETATM   29  C   UNL     1     -45.359  57.320 -59.546  1.00  0.00     0.010 A 
ENDBRANCH  22  23
ENDBRANCH  19  22
ENDBRANCH   1  19
TORSDOF 6
ENDMDL
MODEL 4
REMARK VINA RESULT:      -7.9      1.821      2.021
REMARK  6 active torsions:
REMARK  status: ('A' for Active; 'I' for Inactive)
REMARK    1  A    between atoms: C_2  and  N_3 
REMARK    2  A    between atoms: C_2  and  C_19 
REMARK       I    between atoms: N_3  and  C_4 
REMARK    3  A    between atoms: C_4  and  C_5 
REMARK    4  A    between atoms: C_9  and  C_10 
REMARK    5  A    between atoms: C_13  and  O_14 
REMARK    6  A    between atoms: C_19  and  C_20 
ROOT
HETATM    1  N   UNL     1     -42.514  55.487 -53.073  1.00  0.00    -0.347 N 
HETATM    2  C   UNL     1     -41.846  56.493 -53.735  1.00  0.00     0.270 C 
HETATM    3  O   UNL     1     -40.986  57.194 -53.215  1.00  0.00    -0.266 OA
HETATM    4  H   UNL     1     -43.032  54.844 -53.653  1.00  0.00     0.163 HD
ENDROOT
BRANCH   2   5
HETATM    5  C   UNL     1     -42.198  56.631 -55.124  1.00  0.00     0.120 A 
HETATM    6  N   UNL     1     -42.457  55.548 -55.915  1.00  0.00    -0.272 N 
HETATM    7  H   UNL     1     -42.417  54.570 -55.640  1.00  0.00     0.189 HD
HETATM    8  N   UNL     1     -42.822  55.855 -57.169  1.00  0.00    -0.174 NA
HETATM    9  C   UNL     1     -42.778  57.197 -57.218  1.00  0.00     0.089 A 
HETATM   10  C   UNL     1     -42.375  57.717 -55.957  1.00  0.00     0.071 A 
BRANCH   9  11
HETATM   11  C   UNL     1     -43.130  57.943 -58.433  1.00  0.00    -0.005 A 
HETATM   12  C   UNL     1     -42.152  58.243 -59.395  1.00  0.00     0.016 A 
HETATM   13  C   UNL     1     -42.480  58.934 -60.567  1.00  0.00     0.037 A 
HETATM   14  C   UNL     1     -43.794  59.332 -60.779  1.00  0.00     0.065 A 
HETATM   15  C   UNL     1     -44.778  59.054 -59.841  1.00  0.00     0.037 A 
HETATM   16  C   UNL     1     -44.449  58.363 -58.671  1.00  0.00     0.016 A 
BRANCH  14  17
HETATM   17  O   UNL     1     -44.163  60.002 -61.907  1.00  0.00    -0.361 OA
HETATM   18  H   UNL     1     -44.684  59.401 -62.464  1.00  0.00     0.217 HD
ENDBRANCH  14  17
ENDBRANCH   9  11
ENDBRANCH   2   5
BRANCH   1  19
HETATM   19  C   UNL     1     -42.182  54.995 -51.725  1.00  0.00     0.030 C 
HETATM   20  C   UNL     1     -42.437  56.086 -50.663  1.00  0.00     0.038 C 
HETATM   21  C   UNL     1     -43.146  53.832 -51.408  1.00  0.00     0.038 C 
BRANCH  19  22
HETATM   22  C   UNL     1     -40.698  54.527 -51.620  1.00  0.00     0.069 C 
BRANCH  22  23
HETATM   23  C   UNL     1     -40.370  53.216 -52.309  1.00  0.00    -0.056 A 
HETATM   24  C   UNL     1     -39.870  52.133 -51.566  1.00  0.00     0.010 A 
HETATM   25  C   UNL     1     -39.547  50.930 -52.195  1.00  0.00     0.043 A 
HETATM   26  C   UNL     1     -39.731  50.804 -53.565  1.00  0.00     0.116 A 
HETATM   27  F   UNL     1     -39.420  49.650 -54.170  1.00  0.00    -0.206 F 
HETATM   28  C   UNL     1     -40.237  51.857 -54.318  1.00  0.00     0.043 A 
HETATM   29  C   UNL     1     -40.560  53.061 -53.691  1.00  0.00     0.010 A 
ENDBRANCH  22  23
ENDBRANCH  19  22
ENDBRANCH   1  19
TORSDOF 6
ENDMDL
MODEL 5
REMARK VINA RESULT:      -7.8      3.241      7.419
REMARK  6 active torsions:
REMARK  status: ('A' for Active; 'I' for Inactive)
REMARK    1  A    between atoms: C_2  and  N_3 
REMARK    2  A    between atoms: C_2  and  C_19 
REMARK       I    between atoms: N_3  and  C_4 
REMARK    3  A    between atoms: C_4  and  C_5 
REMARK    4  A    between atoms: C_9  and  C_10 
REMARK    5  A    between atoms: C_13  and  O_14 
REMARK    6  A    between atoms: C_19  and  C_20 
ROOT
HETATM    1  N   UNL     1     -42.513  57.950 -54.663  1.00  0.00    -0.347 N 
HETATM    2  C   UNL     1     -41.917  57.366 -53.568  1.00  0.00     0.270 C 
HETATM    3  O   UNL     1     -41.865  57.891 -52.462  1.00  0.00    -0.266 OA
HETATM    4  H   UNL     1     -42.686  57.342 -55.450  1.00  0.00     0.163 HD
ENDROOT
BRANCH   2   5
HETATM    5  C   UNL     1     -41.395  56.046 -53.805  1.00  0.00     0.120 A 
HETATM    6  N   UNL     1     -40.760  55.718 -54.969  1.00  0.00    -0.272 N 
HETATM    7  H   UNL     1     -40.604  56.325 -55.769  1.00  0.00     0.189 HD
HETATM    8  N   UNL     1     -40.288  54.462 -55.005  1.00  0.00    -0.174 NA
HETATM    9  C   UNL     1     -40.648  53.928 -53.827  1.00  0.00     0.089 A 
HETATM   10  C   UNL     1     -41.359  54.889 -53.054  1.00  0.00     0.071 A 
BRANCH   9  11
HETATM   11  C   UNL     1     -40.301  52.550 -53.458  1.00  0.00    -0.005 A 
HETATM   12  C   UNL     1     -40.387  51.515 -54.404  1.00  0.00     0.016 A 
HETATM   13  C   UNL     1     -40.037  50.202 -54.071  1.00  0.00     0.037 A 
HETATM   14  C   UNL     1     -39.602  49.918 -52.782  1.00  0.00     0.065 A 
HETATM   15  C   UNL     1     -39.514  50.921 -51.827  1.00  0.00     0.037 A 
HETATM   16  C   UNL     1     -39.863  52.233 -52.162  1.00  0.00     0.016 A 
BRANCH  14  17
HETATM   17  O   UNL     1     -39.244  48.656 -52.413  1.00  0.00    -0.361 OA
HETATM   18  H   UNL     1     -38.516  48.362 -52.984  1.00  0.00     0.217 HD
ENDBRANCH  14  17
ENDBRANCH   9  11
ENDBRANCH   2   5
BRANCH   1  19
HETATM   19  C   UNL     1     -43.314  59.186 -54.632  1.00  0.00     0.030 C 
HETATM   20  C   UNL     1     -44.412  59.105 -53.551  1.00  0.00     0.038 C 
HETATM   21  C   UNL     1     -42.371  60.338 -54.223  1.00  0.00     0.038 C 
BRANCH  19  22
HETATM   22  C   UNL     1     -43.984  59.485 -56.009  1.00  0.00     0.069 C 
BRANCH  22  23
HETATM   23  C   UNL     1     -43.472  58.671 -57.182  1.00  0.00    -0.056 A 
HETATM   24  C   UNL     1     -44.162  57.520 -57.599  1.00  0.00     0.010 A 
HETATM   25  C   UNL     1     -43.686  56.755 -58.664  1.00  0.00     0.043 A 
HETATM   26  C   UNL     1     -42.526  57.142 -59.320  1.00  0.00     0.116 A 
HETATM   27  F   UNL     1     -42.068  56.408 -60.342  1.00  0.00    -0.206 F 
HETATM   28  C   UNL     1     -41.835  58.285 -58.935  1.00  0.00     0.043 A 
HETATM   29  C   UNL     1     -42.309  59.051 -57.869  1.00  0.00     0.010 A 
ENDBRANCH  22  23
ENDBRANCH  19  22
ENDBRANCH   1  19
TORSDOF 6
ENDMDL
MODEL 6
REMARK VINA RESULT:      -7.8      3.142      7.882
REMARK  6 active torsions:
REMARK  status: ('A' for Active; 'I' for Inactive)
REMARK    1  A    between atoms: C_2  and  N_3 
REMARK    2  A    between atoms: C_2  and  C_19 
REMARK       I    between atoms: N_3  and  C_4 
REMARK    3  A    between atoms: C_4  and  C_5 
REMARK    4  A    between atoms: C_9  and  C_10 
REMARK    5  A    between atoms: C_13  and  O_14 
REMARK    6  A    between atoms: C_19  and  C_20 
ROOT
HETATM    1  N   UNL     1     -41.950  57.241 -55.706  1.00  0.00    -0.347 N 
HETATM    2  C   UNL     1     -41.958  57.302 -54.331  1.00  0.00     0.270 C 
HETATM    3  O   UNL     1     -42.353  58.272 -53.695  1.00  0.00    -0.266 OA
HETATM    4  H   UNL     1     -41.812  56.325 -56.108  1.00  0.00     0.163 HD
ENDROOT
BRANCH   2   5
HETATM    5  C   UNL     1     -41.509  56.100 -53.677  1.00  0.00     0.120 A 
HETATM    6  N   UNL     1     -41.431  56.004 -52.316  1.00  0.00    -0.272 N 
HETATM    7  H   UNL     1     -41.649  56.732 -51.642  1.00  0.00     0.189 HD
HETATM    8  N   UNL     1     -41.046  54.799 -51.870  1.00  0.00    -0.174 NA
HETATM    9  C   UNL     1     -40.835  54.075 -52.981  1.00  0.00     0.089 A 
HETATM   10  C   UNL     1     -41.101  54.864 -54.134  1.00  0.00     0.071 A 
BRANCH   9  11
HETATM   11  C   UNL     1     -40.412  52.670 -52.925  1.00  0.00    -0.005 A 
HETATM   12  C   UNL     1     -40.454  51.866 -54.077  1.00  0.00     0.016 A 
HETATM   13  C   UNL     1     -40.032  50.532 -54.042  1.00  0.00     0.037 A 
HETATM   14  C   UNL     1     -39.569  49.994 -52.848  1.00  0.00     0.065 A 
HETATM   15  C   UNL     1     -39.524  50.764 -51.694  1.00  0.00     0.037 A 
HETATM   16  C   UNL     1     -39.944  52.097 -51.731  1.00  0.00     0.016 A 
BRANCH  14  17
HETATM   17  O   UNL     1     -39.142  48.703 -52.766  1.00  0.00    -0.361 OA
HETATM   18  H   UNL     1     -38.759  48.561 -51.884  1.00  0.00     0.217 HD
ENDBRANCH  14  17
ENDBRANCH   9  11
ENDBRANCH   2   5
BRANCH   1  19
HETATM   19  C   UNL     1     -42.563  58.237 -56.601  1.00  0.00     0.030 C 
HETATM   20  C   UNL     1     -44.103  58.162 -56.536  1.00  0.00     0.038 C 
HETATM   21  C   UNL     1     -42.164  59.635 -56.080  1.00  0.00     0.038 C 
BRANCH  19  22
HETATM   22  C   UNL     1     -42.112  58.051 -58.082  1.00  0.00     0.069 C 
BRANCH  22  23
HETATM   23  C   UNL     1     -43.070  57.282 -58.972  1.00  0.00    -0.056 A 
HETATM   24  C   UNL     1     -44.057  57.965 -59.703  1.00  0.00     0.010 A 
HETATM   25  C   UNL     1     -44.955  57.263 -60.508  1.00  0.00     0.043 A 
HETATM   26  C   UNL     1     -44.863  55.881 -60.592  1.00  0.00     0.116 A 
HETATM   27  F   UNL     1     -45.726  55.207 -61.364  1.00  0.00    -0.206 F 
HETATM   28  C   UNL     1     -43.886  55.186 -59.889  1.00  0.00     0.043 A 
HETATM   29  C   UNL     1     -42.987  55.886 -59.083  1.00  0.00     0.010 A 
ENDBRANCH  22  23
ENDBRANCH  19  22
ENDBRANCH   1  19
TORSDOF 6
ENDMDL
MODEL 7
REMARK VINA RESULT:      -7.6      3.304      4.177
REMARK  6 active torsions:
REMARK  status: ('A' for Active; 'I' for Inactive)
REMARK    1  A    between atoms: C_2  and  N_3 
REMARK    2  A    between atoms: C_2  and  C_19 
REMARK       I    between atoms: N_3  and  C_4 
REMARK    3  A    between atoms: C_4  and  C_5 
REMARK    4  A    between atoms: C_9  and  C_10 
REMARK    5  A    between atoms: C_13  and  O_14 
REMARK    6  A    between atoms: C_19  and  C_20 
ROOT
HETATM    1  N   UNL     1     -41.578  55.298 -56.071  1.00  0.00    -0.347 N 
HETATM    2  C   UNL     1     -42.519  56.293 -56.215  1.00  0.00     0.270 C 
HETATM    3  O   UNL     1     -43.392  56.528 -55.388  1.00  0.00    -0.266 OA
HETATM    4  H   UNL     1     -40.789  55.340 -56.699  1.00  0.00     0.163 HD
ENDROOT
BRANCH   2   5
HETATM    5  C   UNL     1     -42.369  57.089 -57.405  1.00  0.00     0.120 A 
HETATM    6  N   UNL     1     -42.446  56.543 -58.654  1.00  0.00    -0.272 N 
HETATM    7  H   UNL     1     -42.590  55.563 -58.882  1.00  0.00     0.189 HD
HETATM    8  N   UNL     1     -42.337  57.433 -59.653  1.00  0.00    -0.174 NA
HETATM    9  C   UNL     1     -42.156  58.613 -59.040  1.00  0.00     0.089 A 
HETATM   10  C   UNL     1     -42.154  58.434 -57.629  1.00  0.00     0.071 A 
BRANCH   9  11
HETATM   11  C   UNL     1     -42.009  59.866 -59.791  1.00  0.00    -0.005 A 
HETATM   12  C   UNL     1     -41.661  61.057 -59.133  1.00  0.00     0.016 A 
HETATM   13  C   UNL     1     -41.496  62.252 -59.841  1.00  0.00     0.037 A 
HETATM   14  C   UNL     1     -41.684  62.261 -61.217  1.00  0.00     0.065 A 
HETATM   15  C   UNL     1     -42.035  61.100 -61.892  1.00  0.00     0.037 A 
HETATM   16  C   UNL     1     -42.198  59.906 -61.183  1.00  0.00     0.016 A 
BRANCH  14  17
HETATM   17  O   UNL     1     -41.529  63.399 -61.951  1.00  0.00    -0.361 OA
HETATM   18  H   UNL     1     -41.807  64.155 -61.409  1.00  0.00     0.217 HD
ENDBRANCH  14  17
ENDBRANCH   9  11
ENDBRANCH   2   5
BRANCH   1  19
HETATM   19  C   UNL     1     -41.372  54.498 -54.851  1.00  0.00     0.030 C 
HETATM   20  C   UNL     1     -41.338  55.400 -53.600  1.00  0.00     0.038 C 
HETATM   21  C   UNL     1     -42.596  53.569 -54.696  1.00  0.00     0.038 C 
BRANCH  19  22
HETATM   22  C   UNL     1     -40.052  53.668 -54.911  1.00  0.00     0.069 C 
BRANCH  22  23
HETATM   23  C   UNL     1     -39.971  52.489 -53.960  1.00  0.00    -0.056 A 
HETATM   24  C   UNL     1     -39.848  52.703 -52.577  1.00  0.00     0.010 A 
HETATM   25  C   UNL     1     -39.752  51.624 -51.698  1.00  0.00     0.043 A 
HETATM   26  C   UNL     1     -39.789  50.330 -52.197  1.00  0.00     0.116 A 
HETATM   27  F   UNL     1     -39.697  49.293 -51.354  1.00  0.00    -0.206 F 
HETATM   28  C   UNL     1     -39.926  50.093 -53.560  1.00  0.00     0.043 A 
HETATM   29  C   UNL     1     -40.021  51.171 -54.441  1.00  0.00     0.010 A 
ENDBRANCH  22  23
ENDBRANCH  19  22
ENDBRANCH   1  19
TORSDOF 6
ENDMDL
MODEL 8
REMARK VINA RESULT:      -7.6      1.510      2.060
REMARK  6 active torsions:
REMARK  status: ('A' for Active; 'I' for Inactive)
REMARK    1  A    between atoms: C_2  and  N_3 
REMARK    2  A    between atoms: C_2  and  C_19 
REMARK       I    between atoms: N_3  and  C_4 
REMARK    3  A    between atoms: C_4  and  C_5 
REMARK    4  A    between atoms: C_9  and  C_10 
REMARK    5  A    between atoms: C_13  and  O_14 
REMARK    6  A    between atoms: C_19  and  C_20 
ROOT
HETATM    1  N   UNL     1     -43.162  56.385 -53.654  1.00  0.00    -0.347 N 
HETATM    2  C   UNL     1     -42.594  57.287 -54.525  1.00  0.00     0.270 C 
HETATM    3  O   UNL     1     -41.799  58.154 -54.182  1.00  0.00    -0.266 OA
HETATM    4  H   UNL     1     -43.623  55.591 -54.075  1.00  0.00     0.163 HD
ENDROOT
BRANCH   2   5
HETATM    5  C   UNL     1     -42.966  57.102 -55.903  1.00  0.00     0.120 A 
HETATM    6  N   UNL     1     -42.040  56.839 -56.872  1.00  0.00    -0.272 N 
HETATM    7  H   UNL     1     -41.035  56.764 -56.748  1.00  0.00     0.189 HD
HETATM    8  N   UNL     1     -42.561  56.642 -58.093  1.00  0.00    -0.174 NA
HETATM    9  C   UNL     1     -43.884  56.807 -57.931  1.00  0.00     0.089 A 
HETATM   10  C   UNL     1     -44.173  57.113 -56.572  1.00  0.00     0.071 A 
BRANCH   9  11
HETATM   11  C   UNL     1     -44.830  56.656 -59.044  1.00  0.00    -0.005 A 
HETATM   12  C   UNL     1     -44.546  55.784 -60.109  1.00  0.00     0.016 A 
HETATM   13  C   UNL     1     -45.449  55.614 -61.163  1.00  0.00     0.037 A 
HETATM   14  C   UNL     1     -46.644  56.323 -61.158  1.00  0.00     0.065 A 
HETATM   15  C   UNL     1     -46.947  57.195 -60.122  1.00  0.00     0.037 A 
HETATM   16  C   UNL     1     -46.043  57.362 -59.068  1.00  0.00     0.016 A 
BRANCH  14  17
HETATM   17  O   UNL     1     -47.558  56.186 -62.160  1.00  0.00    -0.361 OA
HETATM   18  H   UNL     1     -47.819  57.072 -62.462  1.00  0.00     0.217 HD
ENDBRANCH  14  17
ENDBRANCH   9  11
ENDBRANCH   2   5
BRANCH   1  19
HETATM   19  C   UNL     1     -42.778  56.214 -52.242  1.00  0.00     0.030 C 
HETATM   20  C   UNL     1     -41.331  56.694 -52.003  1.00  0.00     0.038 C 
HETATM   21  C   UNL     1     -43.695  57.127 -51.400  1.00  0.00     0.038 C 
BRANCH  19  22
HETATM   22  C   UNL     1     -42.900  54.729 -51.777  1.00  0.00     0.069 C 
BRANCH  22  23
HETATM   23  C   UNL     1     -41.836  53.785 -52.300  1.00  0.00    -0.056 A 
HETATM   24  C   UNL     1     -41.796  53.451 -53.664  1.00  0.00     0.010 A 
HETATM   25  C   UNL     1     -40.832  52.566 -54.150  1.00  0.00     0.043 A 
HETATM   26  C   UNL     1     -39.901  52.022 -53.276  1.00  0.00     0.116 A 
HETATM   27  F   UNL     1     -38.976  51.173 -53.742  1.00  0.00    -0.206 F 
HETATM   28  C   UNL     1     -39.911  52.350 -51.926  1.00  0.00     0.043 A 
HETATM   29  C   UNL     1     -40.875  53.233 -51.438  1.00  0.00     0.010 A 
ENDBRANCH  22  23
ENDBRANCH  19  22
ENDBRANCH   1  19
TORSDOF 6
ENDMDL
MODEL 9
REMARK VINA RESULT:      -7.5      2.558      3.208
REMARK  6 active torsions:
REMARK  status: ('A' for Active; 'I' for Inactive)
REMARK    1  A    between atoms: C_2  and  N_3 
REMARK    2  A    between atoms: C_2  and  C_19 
REMARK       I    between atoms: N_3  and  C_4 
REMARK    3  A    between atoms: C_4  and  C_5 
REMARK    4  A    between atoms: C_9  and  C_10 
REMARK    5  A    between atoms: C_13  and  O_14 
REMARK    6  A    between atoms: C_19  and  C_20 
ROOT
HETATM    1  N   UNL     1     -42.333  56.842 -53.018  1.00  0.00    -0.347 N 
HETATM    2  C   UNL     1     -43.200  56.934 -54.082  1.00  0.00     0.270 C 
HETATM    3  O   UNL     1     -44.265  56.331 -54.145  1.00  0.00    -0.266 OA
HETATM    4  H   UNL     1     -41.605  57.540 -52.978  1.00  0.00     0.163 HD
ENDROOT
BRANCH   2   5
HETATM    5  C   UNL     1     -42.785  57.847 -55.115  1.00  0.00     0.120 A 
HETATM    6  N   UNL     1     -42.088  58.988 -54.833  1.00  0.00    -0.272 N 
HETATM    7  H   UNL     1     -41.810  59.319 -53.914  1.00  0.00     0.189 HD
HETATM    8  N   UNL     1     -41.734  59.699 -55.915  1.00  0.00    -0.174 NA
HETATM    9  C   UNL     1     -42.239  59.014 -56.954  1.00  0.00     0.089 A 
HETATM   10  C   UNL     1     -42.919  57.855 -56.488  1.00  0.00     0.071 A 
BRANCH   9  11
HETATM   11  C   UNL     1     -42.053  59.457 -58.341  1.00  0.00    -0.005 A 
HETATM   12  C   UNL     1     -42.189  58.548 -59.404  1.00  0.00     0.016 A 
HETATM   13  C   UNL     1     -42.037  58.963 -60.732  1.00  0.00     0.037 A 
HETATM   14  C   UNL     1     -41.743  60.294 -61.002  1.00  0.00     0.065 A 
HETATM   15  C   UNL     1     -41.598  61.210 -59.970  1.00  0.00     0.037 A 
HETATM   16  C   UNL     1     -41.751  60.795 -58.644  1.00  0.00     0.016 A 
BRANCH  14  17
HETATM   17  O   UNL     1     -41.592  60.746 -62.278  1.00  0.00    -0.361 OA
HETATM   18  H   UNL     1     -42.355  61.305 -62.499  1.00  0.00     0.217 HD
ENDBRANCH  14  17
ENDBRANCH   9  11
ENDBRANCH   2   5
BRANCH   1  19
HETATM   19  C   UNL     1     -42.624  56.161 -51.744  1.00  0.00     0.030 C 
HETATM   20  C   UNL     1     -41.417  56.245 -50.787  1.00  0.00     0.038 C 
HETATM   21  C   UNL     1     -43.783  56.923 -51.067  1.00  0.00     0.038 C 
BRANCH  19  22
HETATM   22  C   UNL     1     -42.997  54.661 -51.954  1.00  0.00     0.069 C 
BRANCH  22  23
HETATM   23  C   UNL     1     -41.878  53.766 -52.448  1.00  0.00    -0.056 A 
HETATM   24  C   UNL     1     -41.726  53.517 -53.823  1.00  0.00     0.010 A 
HETATM   25  C   UNL     1     -40.711  52.678 -54.284  1.00  0.00     0.043 A 
HETATM   26  C   UNL     1     -39.840  52.094 -53.375  1.00  0.00     0.116 A 
HETATM   27  F   UNL     1     -38.865  51.289 -53.817  1.00  0.00    -0.206 F 
HETATM   28  C   UNL     1     -39.961  52.338 -52.012  1.00  0.00     0.043 A 
HETATM   29  C   UNL     1     -40.976  53.176 -51.549  1.00  0.00     0.010 A 
ENDBRANCH  22  23
ENDBRANCH  19  22
ENDBRANCH   1  19
TORSDOF 6
ENDMDL
MODEL 10
REMARK VINA RESULT:      -7.5      4.062      7.233
REMARK  6 active torsions:
REMARK  status: ('A' for Active; 'I' for Inactive)
REMARK    1  A    between atoms: C_2  and  N_3 
REMARK    2  A    between atoms: C_2  and  C_19 
REMARK       I    between atoms: N_3  and  C_4 
REMARK    3  A    between atoms: C_4  and  C_5 
REMARK    4  A    between atoms: C_9  and  C_10 
REMARK    5  A    between atoms: C_13  and  O_14 
REMARK    6  A    between atoms: C_19  and  C_20 
ROOT
HETATM    1  N   UNL     1     -43.525  58.519 -51.133  1.00  0.00    -0.347 N 
HETATM    2  C   UNL     1     -43.977  57.235 -50.932  1.00  0.00     0.270 C 
HETATM    3  O   UNL     1     -45.146  56.956 -50.691  1.00  0.00    -0.266 OA
HETATM    4  H   UNL     1     -42.603  58.607 -51.535  1.00  0.00     0.163 HD
ENDROOT
BRANCH   2   5
HETATM    5  C   UNL     1     -42.971  56.217 -51.081  1.00  0.00     0.120 A 
HETATM    6  N   UNL     1     -42.012  56.004 -50.131  1.00  0.00    -0.272 N 
HETATM    7  H   UNL     1     -41.889  56.520 -49.265  1.00  0.00     0.189 HD
HETATM    8  N   UNL     1     -41.185  54.982 -50.402  1.00  0.00    -0.174 NA
HETATM    9  C   UNL     1     -41.597  54.516 -51.592  1.00  0.00     0.089 A 
HETATM   10  C   UNL     1     -42.706  55.277 -52.056  1.00  0.00     0.071 A 
BRANCH   9  11
HETATM   11  C   UNL     1     -40.954  53.367 -52.243  1.00  0.00    -0.005 A 
HETATM   12  C   UNL     1     -41.136  53.130 -53.615  1.00  0.00     0.016 A 
HETATM   13  C   UNL     1     -40.510  52.053 -54.251  1.00  0.00     0.037 A 
HETATM   14  C   UNL     1     -39.698  51.202 -53.511  1.00  0.00     0.065 A 
HETATM   15  C   UNL     1     -39.506  51.410 -52.153  1.00  0.00     0.037 A 
HETATM   16  C   UNL     1     -40.131  52.488 -51.519  1.00  0.00     0.016 A 
BRANCH  14  17
HETATM   17  O   UNL     1     -39.063  50.143 -54.087  1.00  0.00    -0.361 OA
HETATM   18  H   UNL     1     -38.932  50.338 -55.030  1.00  0.00     0.217 HD
ENDBRANCH  14  17
ENDBRANCH   9  11
ENDBRANCH   2   5
BRANCH   1  19
HETATM   19  C   UNL     1     -44.384  59.710 -51.260  1.00  0.00     0.030 C 
HETATM   20  C   UNL     1     -45.478  59.717 -50.171  1.00  0.00     0.038 C 
HETATM   21  C   UNL     1     -43.497  60.948 -51.008  1.00  0.00     0.038 C 
BRANCH  19  22
HETATM   22  C   UNL     1     -45.066  59.794 -52.660  1.00  0.00     0.069 C 
BRANCH  22  23
HETATM   23  C   UNL     1     -44.316  59.132 -53.800  1.00  0.00    -0.056 A 
HETATM   24  C   UNL     1     -44.797  57.939 -54.365  1.00  0.00     0.010 A 
HETATM   25  C   UNL     1     -44.101  57.313 -55.400  1.00  0.00     0.043 A 
HETATM   26  C   UNL     1     -42.930  57.883 -55.879  1.00  0.00     0.116 A 
HETATM   27  F   UNL     1     -42.261  57.282 -56.872  1.00  0.00    -0.206 F 
HETATM   28  C   UNL     1     -42.442  59.070 -55.345  1.00  0.00     0.043 A 
HETATM   29  C   UNL     1     -43.136  59.697 -54.309  1.00  0.00     0.010 A 
ENDBRANCH  22  23
ENDBRANCH  19  22
ENDBRANCH   1  19
TORSDOF 6
ENDMDL
