MODEL 1
REMARK VINA RESULT:      -8.8      0.000      0.000
REMARK  3 active torsions:
REMARK  status: ('A' for Active; 'I' for Inactive)
REMARK    1  A    between atoms: C_3  and  C_4 
REMARK    2  A    between atoms: C_8  and  C_9 
REMARK       I    between atoms: C_9  and  N_10 
REMARK    3  A    between atoms: N_10  and  N_11 
ROOT
HETATM    1  C   UNL     1     -42.933  56.461 -56.842  1.00  0.00     0.291 C 
HETATM    2  N   UNL     1     -44.021  56.130 -57.619  1.00  0.00    -0.251 N 
HETATM    3  O   UNL     1     -42.222  57.446 -57.027  1.00  0.00    -0.264 OA
HETATM    4  H   UNL     1     -44.551  55.290 -57.413  1.00  0.00     0.191 HD
ENDROOT
BRANCH   1   5
HETATM    5  C   UNL     1     -42.709  55.505 -55.751  1.00  0.00     0.148 A 
HETATM    6  N   UNL     1     -43.609  55.322 -54.764  1.00  0.00    -0.169 NA
HETATM    7  N   UNL     1     -43.049  54.375 -53.988  1.00  0.00    -0.277 N 
HETATM    8  C   UNL     1     -41.805  53.968 -54.398  1.00  0.00     0.064 A 
HETATM    9  H   UNL     1     -43.565  54.045 -53.179  1.00  0.00     0.189 HD
HETATM   10  C   UNL     1     -41.571  54.684 -55.556  1.00  0.00     0.071 A 
BRANCH   8  11
HETATM   11  C   UNL     1     -40.969  53.016 -53.664  1.00  0.00     0.014 A 
HETATM   12  C   UNL     1     -40.597  51.826 -54.314  1.00  0.00     0.015 A 
HETATM   13  C   UNL     1     -39.786  50.878 -53.684  1.00  0.00     0.001 A 
HETATM   14  C   UNL     1     -39.339  51.099 -52.386  1.00  0.00     0.002 A 
HETATM   15  C   UNL     1     -39.700  52.268 -51.718  1.00  0.00     0.025 A 
HETATM   16  C   UNL     1     -40.508  53.223 -52.350  1.00  0.00     0.046 A 
HETATM   17 CL   UNL     1     -40.916  54.632 -51.429  1.00  0.00    -0.083 Cl
ENDBRANCH   8  11
ENDBRANCH   1   5
BRANCH   2  18
HETATM   18  N   UNL     1     -44.406  56.957 -58.649  1.00  0.00    -0.167 N 
HETATM   19  C   UNL     1     -44.087  56.737 -59.963  1.00  0.00     0.345 A 
HETATM   20  O   UNL     1     -43.347  55.891 -60.438  1.00  0.00    -0.245 OA
HETATM   21  N   UNL     1     -44.753  57.688 -60.716  1.00  0.00    -0.323 N 
HETATM   22  C   UNL     1     -45.568  58.571 -59.900  1.00  0.00     0.117 A 
HETATM   23  H   UNL     1     -44.681  57.693 -61.725  1.00  0.00     0.165 HD
HETATM   24  C   UNL     1     -47.058  58.432 -60.227  1.00  0.00     0.041 C 
HETATM   25  C   UNL     1     -45.081  60.020 -59.998  1.00  0.00     0.041 C 
HETATM   26  C   UNL     1     -45.281  58.001 -58.494  1.00  0.00     0.275 A 
HETATM   27  C   UNL     1     -47.421  59.090 -61.557  1.00  0.00     0.003 C 
HETATM   28  C   UNL     1     -46.947  60.540 -61.620  1.00  0.00     0.000 C 
HETATM   29  C   UNL     1     -45.453  60.660 -61.336  1.00  0.00     0.003 C 
HETATM   30  O   UNL     1     -45.749  58.427 -57.446  1.00  0.00    -0.268 OA
ENDBRANCH   2  18
TORSDOF 3
ENDMDL
MODEL 2
REMARK VINA RESULT:      -8.8      5.393      6.775
REMARK  3 active torsions:
REMARK  status: ('A' for Active; 'I' for Inactive)
REMARK    1  A    between atoms: C_3  and  C_4 
REMARK    2  A    between atoms: C_8  and  C_9 
REMARK       I    between atoms: C_9  and  N_10 
REMARK    3  A    between atoms: N_10  and  N_11 
ROOT
HETATM    1  C   UNL     1     -42.776  56.603 -53.250  1.00  0.00     0.291 C 
HETATM    2  N   UNL     1     -42.615  57.139 -51.992  1.00  0.00    -0.251 N 
HETATM    3  O   UNL     1     -43.601  56.996 -54.071  1.00  0.00    -0.264 OA
HETATM    4  H   UNL     1     -41.921  56.751 -51.362  1.00  0.00     0.191 HD
ENDROOT
BRANCH   1   5
HETATM    5  C   UNL     1     -41.843  55.501 -53.515  1.00  0.00     0.148 A 
HETATM    6  N   UNL     1     -40.870  55.596 -54.443  1.00  0.00    -0.169 NA
HETATM    7  N   UNL     1     -40.239  54.410 -54.372  1.00  0.00    -0.277 N 
HETATM    8  C   UNL     1     -40.787  53.529 -53.474  1.00  0.00     0.064 A 
HETATM    9  H   UNL     1     -39.435  54.252 -54.971  1.00  0.00     0.189 HD
HETATM   10  C   UNL     1     -41.827  54.228 -52.895  1.00  0.00     0.071 A 
BRANCH   8  11
HETATM   11  C   UNL     1     -40.325  52.151 -53.289  1.00  0.00     0.014 A 
HETATM   12  C   UNL     1     -40.285  51.311 -54.417  1.00  0.00     0.015 A 
HETATM   13  C   UNL     1     -39.839  49.990 -54.322  1.00  0.00     0.001 A 
HETATM   14  C   UNL     1     -39.432  49.481 -53.093  1.00  0.00     0.002 A 
HETATM   15  C   UNL     1     -39.470  50.292 -51.960  1.00  0.00     0.025 A 
HETATM   16  C   UNL     1     -39.911  51.619 -52.054  1.00  0.00     0.046 A 
HETATM   17 CL   UNL     1     -39.938  52.537 -50.586  1.00  0.00    -0.083 Cl
ENDBRANCH   8  11
ENDBRANCH   1   5
BRANCH   2  18
HETATM   18  N   UNL     1     -43.371  58.222 -51.605  1.00  0.00    -0.167 N 
HETATM   19  C   UNL     1     -44.562  58.120 -50.935  1.00  0.00     0.345 A 
HETATM   20  O   UNL     1     -45.207  57.118 -50.672  1.00  0.00    -0.245 OA
HETATM   21  N   UNL     1     -44.959  59.402 -50.598  1.00  0.00    -0.323 N 
HETATM   22  C   UNL     1     -44.006  60.409 -51.030  1.00  0.00     0.117 A 
HETATM   23  H   UNL     1     -45.807  59.559 -50.068  1.00  0.00     0.165 HD
HETATM   24  C   UNL     1     -43.388  61.152 -49.841  1.00  0.00     0.041 C 
HETATM   25  C   UNL     1     -44.634  61.363 -52.051  1.00  0.00     0.041 C 
HETATM   26  C   UNL     1     -42.942  59.520 -51.707  1.00  0.00     0.275 A 
HETATM   27  C   UNL     1     -44.365  62.141 -49.206  1.00  0.00     0.003 C 
HETATM   28  C   UNL     1     -44.957  63.094 -50.239  1.00  0.00     0.000 C 
HETATM   29  C   UNL     1     -45.608  62.343 -51.396  1.00  0.00     0.003 C 
HETATM   30  O   UNL     1     -41.917  59.922 -52.242  1.00  0.00    -0.268 OA
ENDBRANCH   2  18
TORSDOF 3
ENDMDL
MODEL 3
REMARK VINA RESULT:      -8.6      2.041      3.039
REMARK  3 active torsions:
REMARK  status: ('A' for Active; 'I' for Inactive)
REMARK    1  A    between atoms: C_3  and  C_4 
REMARK    2  A    between atoms: C_8  and  C_9 
REMARK       I    between atoms: C_9  and  N_10 
REMARK    3  A    between atoms: N_10  and  N_11 
ROOT
HETATM    1  C   UNL     1     -42.502  55.451 -55.360  1.00  0.00     0.291 C 
HETATM    2  N   UNL     1     -42.073  56.031 -56.533  1.00  0.00    -0.251 N 
HETATM    3  O   UNL     1     -43.558  55.726 -54.795  1.00  0.00    -0.264 OA
HETATM    4  H   UNL     1     -41.180  55.763 -56.932  1.00  0.00     0.191 HD
ENDROOT
BRANCH   1   5
HETATM    5  C   UNL     1     -41.556  54.451 -54.848  1.00  0.00     0.148 A 
HETATM    6  N   UNL     1     -40.365  54.226 -55.438  1.00  0.00    -0.169 NA
HETATM    7  N   UNL     1     -39.804  53.269 -54.676  1.00  0.00    -0.277 N 
HETATM    8  C   UNL     1     -40.595  52.827 -53.646  1.00  0.00     0.064 A 
HETATM    9  H   UNL     1     -38.871  52.948 -54.913  1.00  0.00     0.189 HD
HETATM   10  C   UNL     1     -41.738  53.597 -53.733  1.00  0.00     0.071 A 
BRANCH   8  11
HETATM   11  C   UNL     1     -40.231  51.733 -52.742  1.00  0.00     0.014 A 
HETATM   12  C   UNL     1     -40.258  51.983 -51.359  1.00  0.00     0.015 A 
HETATM   13  C   UNL     1     -39.941  50.984 -50.435  1.00  0.00     0.001 A 
HETATM   14  C   UNL     1     -39.583  49.715 -50.879  1.00  0.00     0.002 A 
HETATM   15  C   UNL     1     -39.542  49.445 -52.246  1.00  0.00     0.025 A 
HETATM   16  C   UNL     1     -39.865  50.444 -53.175  1.00  0.00     0.046 A 
HETATM   17 CL   UNL     1     -39.766  50.014 -54.849  1.00  0.00    -0.083 Cl
ENDBRANCH   8  11
ENDBRANCH   1   5
BRANCH   2  18
HETATM   18  N   UNL     1     -42.873  56.946 -57.178  1.00  0.00    -0.167 N 
HETATM   19  C   UNL     1     -42.869  58.289 -56.904  1.00  0.00     0.345 A 
HETATM   20  O   UNL     1     -42.288  58.884 -56.012  1.00  0.00    -0.245 OA
HETATM   21  N   UNL     1     -43.691  58.903 -57.833  1.00  0.00    -0.323 N 
HETATM   22  C   UNL     1     -44.256  57.962 -58.783  1.00  0.00     0.117 A 
HETATM   23  H   UNL     1     -43.811  59.908 -57.832  1.00  0.00     0.165 HD
HETATM   24  C   UNL     1     -43.779  58.241 -60.211  1.00  0.00     0.041 C 
HETATM   25  C   UNL     1     -45.784  57.918 -58.676  1.00  0.00     0.041 C 
HETATM   26  C   UNL     1     -43.643  56.641 -58.271  1.00  0.00     0.275 A 
HETATM   27  C   UNL     1     -44.450  59.475 -60.814  1.00  0.00     0.003 C 
HETATM   28  C   UNL     1     -45.971  59.395 -60.717  1.00  0.00     0.000 C 
HETATM   29  C   UNL     1     -46.436  59.160 -59.283  1.00  0.00     0.003 C 
HETATM   30  O   UNL     1     -43.832  55.534 -58.758  1.00  0.00    -0.268 OA
ENDBRANCH   2  18
TORSDOF 3
ENDMDL
MODEL 4
REMARK VINA RESULT:      -8.5      5.972      6.767
REMARK  3 active torsions:
REMARK  status: ('A' for Active; 'I' for Inactive)
REMARK    1  A    between atoms: C_3  and  C_4 
REMARK    2  A    between atoms: C_8  and  C_9 
REMARK       I    between atoms: C_9  and  N_10 
REMARK    3  A    between atoms: N_10  and  N_11 
ROOT
HETATM    1  C   UNL     1     -41.393  56.552 -50.542  1.00  0.00     0.291 C 
HETATM    2  N   UNL     1     -42.106  56.965 -51.646  1.00  0.00    -0.251 N 
HETATM    3  O   UNL     1     -41.275  57.205 -49.508  1.00  0.00    -0.264 OA
HETATM    4  H   UNL     1     -42.144  56.376 -52.471  1.00  0.00     0.191 HD
ENDROOT
BRANCH   1   5
HETATM    5  C   UNL     1     -40.783  55.229 -50.729  1.00  0.00     0.148 A 
HETATM    6  N   UNL     1     -39.868  54.737 -49.871  1.00  0.00    -0.169 NA
HETATM    7  N   UNL     1     -39.573  53.523 -50.373  1.00  0.00    -0.277 N 
HETATM    8  C   UNL     1     -40.220  53.224 -51.546  1.00  0.00     0.064 A 
HETATM    9  H   UNL     1     -38.913  52.939 -49.872  1.00  0.00     0.189 HD
HETATM   10  C   UNL     1     -41.025  54.319 -51.787  1.00  0.00     0.071 A 
BRANCH   8  11
HETATM   11  C   UNL     1     -39.991  52.002 -52.321  1.00  0.00     0.014 A 
HETATM   12  C   UNL     1     -39.782  50.803 -51.617  1.00  0.00     0.015 A 
HETATM   13  C   UNL     1     -39.574  49.595 -52.287  1.00  0.00     0.001 A 
HETATM   14  C   UNL     1     -39.564  49.564 -53.677  1.00  0.00     0.002 A 
HETATM   15  C   UNL     1     -39.762  50.741 -54.398  1.00  0.00     0.025 A 
HETATM   16  C   UNL     1     -39.976  51.953 -53.728  1.00  0.00     0.046 A 
HETATM   17 CL   UNL     1     -40.192  53.361 -54.713  1.00  0.00    -0.083 Cl
ENDBRANCH   8  11
ENDBRANCH   1   5
BRANCH   2  18
HETATM   18  N   UNL     1     -42.791  58.157 -51.613  1.00  0.00    -0.167 N 
HETATM   19  C   UNL     1     -42.265  59.350 -52.035  1.00  0.00     0.345 A 
HETATM   20  O   UNL     1     -41.123  59.601 -52.384  1.00  0.00    -0.245 OA
HETATM   21  N   UNL     1     -43.278  60.291 -51.981  1.00  0.00    -0.323 N 
HETATM   22  C   UNL     1     -44.538  59.726 -51.533  1.00  0.00     0.117 A 
HETATM   23  H   UNL     1     -43.115  61.245 -52.279  1.00  0.00     0.165 HD
HETATM   24  C   UNL     1     -45.615  59.804 -52.620  1.00  0.00     0.041 C 
HETATM   25  C   UNL     1     -44.992  60.362 -50.215  1.00  0.00     0.041 C 
HETATM   26  C   UNL     1     -44.123  58.256 -51.307  1.00  0.00     0.275 A 
HETATM   27  C   UNL     1     -46.150  61.224 -52.801  1.00  0.00     0.003 C 
HETATM   28  C   UNL     1     -46.619  61.825 -51.479  1.00  0.00     0.000 C 
HETATM   29  C   UNL     1     -45.524  61.781 -50.418  1.00  0.00     0.003 C 
HETATM   30  O   UNL     1     -44.862  57.362 -50.912  1.00  0.00    -0.268 OA
ENDBRANCH   2  18
TORSDOF 3
ENDMDL
MODEL 5
REMARK VINA RESULT:      -8.3     16.561     18.056
REMARK  3 active torsions:
REMARK  status: ('A' for Active; 'I' for Inactive)
REMARK    1  A    between atoms: C_3  and  C_4 
REMARK    2  A    between atoms: C_8  and  C_9 
REMARK       I    between atoms: C_9  and  N_10 
REMARK    3  A    between atoms: N_10  and  N_11 
ROOT
HETATM    1  C   UNL     1     -36.932  40.818 -56.668  1.00  0.00     0.291 C 
HETATM    2  N   UNL     1     -36.141  40.663 -57.784  1.00  0.00    -0.251 N 
HETATM    3  O   UNL     1     -38.154  40.685 -56.659  1.00  0.00    -0.264 OA
HETATM    4  H   UNL     1     -35.139  40.804 -57.716  1.00  0.00     0.191 HD
ENDROOT
BRANCH   1   5
HETATM    5  C   UNL     1     -36.155  41.156 -55.469  1.00  0.00     0.148 A 
HETATM    6  N   UNL     1     -36.032  42.426 -55.032  1.00  0.00    -0.169 NA
HETATM    7  N   UNL     1     -35.272  42.314 -53.926  1.00  0.00    -0.277 N 
HETATM    8  C   UNL     1     -34.855  41.036 -53.652  1.00  0.00     0.064 A 
HETATM    9  H   UNL     1     -35.063  43.154 -53.396  1.00  0.00     0.189 HD
HETATM   10  C   UNL     1     -35.432  40.264 -54.640  1.00  0.00     0.071 A 
BRANCH   8  11
HETATM   11  C   UNL     1     -33.949  40.686 -52.555  1.00  0.00     0.014 A 
HETATM   12  C   UNL     1     -34.430  40.804 -51.239  1.00  0.00     0.015 A 
HETATM   13  C   UNL     1     -33.631  40.471 -50.142  1.00  0.00     0.001 A 
HETATM   14  C   UNL     1     -32.330  40.021 -50.341  1.00  0.00     0.002 A 
HETATM   15  C   UNL     1     -31.828  39.903 -51.636  1.00  0.00     0.025 A 
HETATM   16  C   UNL     1     -32.630  40.230 -52.739  1.00  0.00     0.046 A 
HETATM   17 CL   UNL     1     -31.908  40.067 -54.304  1.00  0.00    -0.083 Cl
ENDBRANCH   8  11
ENDBRANCH   1   5
BRANCH   2  18
HETATM   18  N   UNL     1     -36.708  40.285 -58.979  1.00  0.00    -0.167 N 
HETATM   19  C   UNL     1     -37.142  41.170 -59.931  1.00  0.00     0.345 A 
HETATM   20  O   UNL     1     -37.221  42.385 -59.864  1.00  0.00    -0.245 OA
HETATM   21  N   UNL     1     -37.520  40.433 -61.040  1.00  0.00    -0.323 N 
HETATM   22  C   UNL     1     -37.320  39.007 -60.853  1.00  0.00     0.117 A 
HETATM   23  H   UNL     1     -37.849  40.892 -61.879  1.00  0.00     0.165 HD
HETATM   24  C   UNL     1     -36.284  38.445 -61.832  1.00  0.00     0.041 C 
HETATM   25  C   UNL     1     -38.651  38.250 -60.913  1.00  0.00     0.041 C 
HETATM   26  C   UNL     1     -36.754  38.987 -59.417  1.00  0.00     0.275 A 
HETATM   27  C   UNL     1     -36.836  38.329 -63.252  1.00  0.00     0.003 C 
HETATM   28  C   UNL     1     -38.147  37.550 -63.289  1.00  0.00     0.000 C 
HETATM   29  C   UNL     1     -39.185  38.144 -62.342  1.00  0.00     0.003 C 
HETATM   30  O   UNL     1     -36.426  37.983 -58.797  1.00  0.00    -0.268 OA
ENDBRANCH   2  18
TORSDOF 3
ENDMDL
MODEL 6
REMARK VINA RESULT:      -8.3      1.849      2.214
REMARK  3 active torsions:
REMARK  status: ('A' for Active; 'I' for Inactive)
REMARK    1  A    between atoms: C_3  and  C_4 
REMARK    2  A    between atoms: C_8  and  C_9 
REMARK       I    between atoms: C_9  and  N_10 
REMARK    3  A    between atoms: N_10  and  N_11 
ROOT
HETATM    1  C   UNL     1     -43.204  56.732 -56.988  1.00  0.00     0.291 C 
HETATM    2  N   UNL     1     -42.069  57.287 -57.536  1.00  0.00    -0.251 N 
HETATM    3  O   UNL     1     -44.341  56.904 -57.422  1.00  0.00    -0.264 OA
HETATM    4  H   UNL     1     -41.165  57.111 -57.111  1.00  0.00     0.191 HD
ENDROOT
BRANCH   1   5
HETATM    5  C   UNL     1     -42.912  55.896 -55.817  1.00  0.00     0.148 A 
HETATM    6  N   UNL     1     -43.666  55.942 -54.700  1.00  0.00    -0.169 NA
HETATM    7  N   UNL     1     -43.091  55.038 -53.885  1.00  0.00    -0.277 N 
HETATM    8  C   UNL     1     -41.969  54.441 -54.403  1.00  0.00     0.064 A 
HETATM    9  H   UNL     1     -43.509  54.871 -52.976  1.00  0.00     0.189 HD
HETATM   10  C   UNL     1     -41.844  54.978 -55.668  1.00  0.00     0.071 A 
BRANCH   8  11
HETATM   11  C   UNL     1     -41.129  53.494 -53.665  1.00  0.00     0.014 A 
HETATM   12  C   UNL     1     -40.767  52.295 -54.306  1.00  0.00     0.015 A 
HETATM   13  C   UNL     1     -39.954  51.352 -53.673  1.00  0.00     0.001 A 
HETATM   14  C   UNL     1     -39.493  51.586 -52.382  1.00  0.00     0.002 A 
HETATM   15  C   UNL     1     -39.844  52.763 -51.724  1.00  0.00     0.025 A 
HETATM   16  C   UNL     1     -40.655  53.714 -52.358  1.00  0.00     0.046 A 
HETATM   17 CL   UNL     1     -41.049  55.135 -51.450  1.00  0.00    -0.083 Cl
ENDBRANCH   8  11
ENDBRANCH   1   5
BRANCH   2  18
HETATM   18  N   UNL     1     -42.161  58.050 -58.678  1.00  0.00    -0.167 N 
HETATM   19  C   UNL     1     -42.028  57.544 -59.945  1.00  0.00     0.345 A 
HETATM   20  O   UNL     1     -41.701  56.420 -60.288  1.00  0.00    -0.245 OA
HETATM   21  N   UNL     1     -42.315  58.567 -60.831  1.00  0.00    -0.323 N 
HETATM   22  C   UNL     1     -42.676  59.801 -60.156  1.00  0.00     0.117 A 
HETATM   23  H   UNL     1     -42.304  58.405 -61.830  1.00  0.00     0.165 HD
HETATM   24  C   UNL     1     -44.119  60.214 -60.461  1.00  0.00     0.041 C 
HETATM   25  C   UNL     1     -41.672  60.916 -60.467  1.00  0.00     0.041 C 
HETATM   26  C   UNL     1     -42.553  59.363 -58.681  1.00  0.00     0.275 A 
HETATM   27  C   UNL     1     -44.274  60.772 -61.875  1.00  0.00     0.003 C 
HETATM   28  C   UNL     1     -43.280  61.897 -62.151  1.00  0.00     0.000 C 
HETATM   29  C   UNL     1     -41.843  61.461 -61.885  1.00  0.00     0.003 C 
HETATM   30  O   UNL     1     -42.760  60.077 -57.708  1.00  0.00    -0.268 OA
ENDBRANCH   2  18
TORSDOF 3
ENDMDL
MODEL 7
REMARK VINA RESULT:      -8.2      5.746      7.177
REMARK  3 active torsions:
REMARK  status: ('A' for Active; 'I' for Inactive)
REMARK    1  A    between atoms: C_3  and  C_4 
REMARK    2  A    between atoms: C_8  and  C_9 
REMARK       I    between atoms: C_9  and  N_10 
REMARK    3  A    between atoms: N_10  and  N_11 
ROOT
HETATM    1  C   UNL     1     -43.922  57.718 -52.854  1.00  0.00     0.291 C 
HETATM    2  N   UNL     1     -43.718  57.989 -51.519  1.00  0.00    -0.251 N 
HETATM    3  O   UNL     1     -44.467  58.487 -53.643  1.00  0.00    -0.264 OA
HETATM    4  H   UNL     1     -43.274  57.297 -50.926  1.00  0.00     0.191 HD
ENDROOT
BRANCH   1   5
HETATM    5  C   UNL     1     -43.410  56.399 -53.245  1.00  0.00     0.148 A 
HETATM    6  N   UNL     1     -44.021  55.642 -54.178  1.00  0.00    -0.169 NA
HETATM    7  N   UNL     1     -43.251  54.541 -54.256  1.00  0.00    -0.277 N 
HETATM    8  C   UNL     1     -42.194  54.526 -53.382  1.00  0.00     0.064 A 
HETATM    9  H   UNL     1     -43.502  53.822 -54.927  1.00  0.00     0.189 HD
HETATM   10  C   UNL     1     -42.272  55.736 -52.723  1.00  0.00     0.071 A 
BRANCH   8  11
HETATM   11  C   UNL     1     -41.275  53.396 -53.225  1.00  0.00     0.014 A 
HETATM   12  C   UNL     1     -41.063  52.559 -54.335  1.00  0.00     0.015 A 
HETATM   13  C   UNL     1     -40.187  51.472 -54.267  1.00  0.00     0.001 A 
HETATM   14  C   UNL     1     -39.511  51.197 -53.083  1.00  0.00     0.002 A 
HETATM   15  C   UNL     1     -39.711  52.008 -51.967  1.00  0.00     0.025 A 
HETATM   16  C   UNL     1     -40.584  53.102 -52.034  1.00  0.00     0.046 A 
HETATM   17 CL   UNL     1     -40.777  54.037 -50.589  1.00  0.00    -0.083 Cl
ENDBRANCH   8  11
ENDBRANCH   1   5
BRANCH   2  18
HETATM   18  N   UNL     1     -44.086  59.211 -51.003  1.00  0.00    -0.167 N 
HETATM   19  C   UNL     1     -43.301  60.333 -51.069  1.00  0.00     0.345 A 
HETATM   20  O   UNL     1     -42.151  60.438 -51.461  1.00  0.00    -0.245 OA
HETATM   21  N   UNL     1     -44.047  61.388 -50.575  1.00  0.00    -0.323 N 
HETATM   22  C   UNL     1     -45.385  60.986 -50.180  1.00  0.00     0.117 A 
HETATM   23  H   UNL     1     -43.668  62.326 -50.557  1.00  0.00     0.165 HD
HETATM   24  C   UNL     1     -46.459  61.673 -51.029  1.00  0.00     0.041 C 
HETATM   25  C   UNL     1     -45.605  61.196 -48.678  1.00  0.00     0.041 C 
HETATM   26  C   UNL     1     -45.336  59.479 -50.510  1.00  0.00     0.275 A 
HETATM   27  C   UNL     1     -46.635  63.145 -50.656  1.00  0.00     0.003 C 
HETATM   28  C   UNL     1     -46.878  63.325 -49.161  1.00  0.00     0.000 C 
HETATM   29  C   UNL     1     -45.779  62.674 -48.327  1.00  0.00     0.003 C 
HETATM   30  O   UNL     1     -46.253  58.685 -50.342  1.00  0.00    -0.268 OA
ENDBRANCH   2  18
TORSDOF 3
ENDMDL
MODEL 8
REMARK VINA RESULT:      -8.2      2.013      2.757
REMARK  3 active torsions:
REMARK  status: ('A' for Active; 'I' for Inactive)
REMARK    1  A    between atoms: C_3  and  C_4 
REMARK    2  A    between atoms: C_8  and  C_9 
REMARK       I    between atoms: C_9  and  N_10 
REMARK    3  A    between atoms: N_10  and  N_11 
ROOT
HETATM    1  C   UNL     1     -43.301  57.320 -55.830  1.00  0.00     0.291 C 
HETATM    2  N   UNL     1     -42.359  57.495 -56.819  1.00  0.00    -0.251 N 
HETATM    3  O   UNL     1     -44.269  58.057 -55.655  1.00  0.00    -0.264 OA
HETATM    4  H   UNL     1     -41.578  56.853 -56.891  1.00  0.00     0.191 HD
ENDROOT
BRANCH   1   5
HETATM    5  C   UNL     1     -43.029  56.143 -54.996  1.00  0.00     0.148 A 
HETATM    6  N   UNL     1     -43.974  55.592 -54.207  1.00  0.00    -0.169 NA
HETATM    7  N   UNL     1     -43.346  54.550 -53.632  1.00  0.00    -0.277 N 
HETATM    8  C   UNL     1     -42.023  54.426 -53.973  1.00  0.00     0.064 A 
HETATM    9  H   UNL     1     -43.874  53.954 -53.003  1.00  0.00     0.189 HD
HETATM   10  C   UNL     1     -41.801  55.448 -54.874  1.00  0.00     0.071 A 
BRANCH   8  11
HETATM   11  C   UNL     1     -41.119  53.424 -53.404  1.00  0.00     0.014 A 
HETATM   12  C   UNL     1     -40.718  52.354 -54.225  1.00  0.00     0.015 A 
HETATM   13  C   UNL     1     -39.843  51.370 -53.759  1.00  0.00     0.001 A 
HETATM   14  C   UNL     1     -39.358  51.432 -52.457  1.00  0.00     0.002 A 
HETATM   15  C   UNL     1     -39.746  52.479 -51.622  1.00  0.00     0.025 A 
HETATM   16  C   UNL     1     -40.619  53.471 -52.089  1.00  0.00     0.046 A 
HETATM   17 CL   UNL     1     -41.054  54.718 -50.969  1.00  0.00    -0.083 Cl
ENDBRANCH   8  11
ENDBRANCH   1   5
BRANCH   2  18
HETATM   18  N   UNL     1     -42.500  58.519 -57.727  1.00  0.00    -0.167 N 
HETATM   19  C   UNL     1     -42.007  59.783 -57.533  1.00  0.00     0.345 A 
HETATM   20  O   UNL     1     -41.487  60.256 -56.536  1.00  0.00    -0.245 OA
HETATM   21  N   UNL     1     -42.218  60.493 -58.702  1.00  0.00    -0.323 N 
HETATM   22  C   UNL     1     -42.853  59.691 -59.733  1.00  0.00     0.117 A 
HETATM   23  H   UNL     1     -41.902  61.450 -58.791  1.00  0.00     0.165 HD
HETATM   24  C   UNL     1     -41.944  59.511 -60.953  1.00  0.00     0.041 C 
HETATM   25  C   UNL     1     -44.226  60.257 -60.106  1.00  0.00     0.041 C 
HETATM   26  C   UNL     1     -43.008  58.348 -58.988  1.00  0.00     0.275 A 
HETATM   27  C   UNL     1     -41.852  60.782 -61.797  1.00  0.00     0.003 C 
HETATM   28  C   UNL     1     -43.232  61.311 -62.176  1.00  0.00     0.000 C 
HETATM   29  C   UNL     1     -44.112  61.527 -60.949  1.00  0.00     0.003 C 
HETATM   30  O   UNL     1     -43.509  57.331 -59.454  1.00  0.00    -0.268 OA
ENDBRANCH   2  18
TORSDOF 3
ENDMDL
MODEL 9
REMARK VINA RESULT:      -7.8      6.969     10.281
REMARK  3 active torsions:
REMARK  status: ('A' for Active; 'I' for Inactive)
REMARK    1  A    between atoms: C_3  and  C_4 
REMARK    2  A    between atoms: C_8  and  C_9 
REMARK       I    between atoms: C_9  and  N_10 
REMARK    3  A    between atoms: N_10  and  N_11 
ROOT
HETATM    1  C   UNL     1     -44.032  58.176 -51.576  1.00  0.00     0.291 C 
HETATM    2  N   UNL     1     -43.034  57.514 -50.895  1.00  0.00    -0.251 N 
HETATM    3  O   UNL     1     -44.597  57.740 -52.575  1.00  0.00    -0.264 OA
HETATM    4  H   UNL     1     -42.603  57.946 -50.085  1.00  0.00     0.191 HD
ENDROOT
BRANCH   1   5
HETATM    5  C   UNL     1     -44.359  59.473 -50.972  1.00  0.00     0.148 A 
HETATM    6  N   UNL     1     -43.538  60.538 -51.076  1.00  0.00    -0.169 NA
HETATM    7  N   UNL     1     -44.189  61.513 -50.415  1.00  0.00    -0.277 N 
HETATM    8  C   UNL     1     -45.374  61.119 -49.845  1.00  0.00     0.064 A 
HETATM    9  H   UNL     1     -43.771  62.437 -50.380  1.00  0.00     0.189 HD
HETATM   10  C   UNL     1     -45.509  59.794 -50.209  1.00  0.00     0.071 A 
BRANCH   8  11
HETATM   11  C   UNL     1     -46.208  61.982 -49.006  1.00  0.00     0.014 A 
HETATM   12  C   UNL     1     -47.037  62.922 -49.644  1.00  0.00     0.015 A 
HETATM   13  C   UNL     1     -47.874  63.767 -48.911  1.00  0.00     0.001 A 
HETATM   14  C   UNL     1     -47.892  63.694 -47.522  1.00  0.00     0.002 A 
HETATM   15  C   UNL     1     -47.074  62.776 -46.867  1.00  0.00     0.025 A 
HETATM   16  C   UNL     1     -46.238  61.922 -47.600  1.00  0.00     0.046 A 
HETATM   17 CL   UNL     1     -45.247  60.830 -46.691  1.00  0.00    -0.083 Cl
ENDBRANCH   8  11
ENDBRANCH   1   5
BRANCH   2  18
HETATM   18  N   UNL     1     -42.650  56.255 -51.296  1.00  0.00    -0.167 N 
HETATM   19  C   UNL     1     -43.358  55.116 -51.013  1.00  0.00     0.345 A 
HETATM   20  O   UNL     1     -44.337  54.983 -50.298  1.00  0.00    -0.245 OA
HETATM   21  N   UNL     1     -42.748  54.072 -51.686  1.00  0.00    -0.323 N 
HETATM   22  C   UNL     1     -41.604  54.507 -52.467  1.00  0.00     0.117 A 
HETATM   23  H   UNL     1     -43.127  53.135 -51.640  1.00  0.00     0.165 HD
HETATM   24  C   UNL     1     -41.823  54.285 -53.967  1.00  0.00     0.041 C 
HETATM   25  C   UNL     1     -40.311  53.858 -51.963  1.00  0.00     0.041 C 
HETATM   26  C   UNL     1     -41.606  56.018 -52.152  1.00  0.00     0.275 A 
HETATM   27  C   UNL     1     -41.709  52.812 -54.355  1.00  0.00     0.003 C 
HETATM   28  C   UNL     1     -40.403  52.196 -53.864  1.00  0.00     0.000 C 
HETATM   29  C   UNL     1     -40.217  52.385 -52.362  1.00  0.00     0.003 C 
HETATM   30  O   UNL     1     -40.805  56.836 -52.587  1.00  0.00    -0.268 OA
ENDBRANCH   2  18
TORSDOF 3
ENDMDL
MODEL 10
REMARK VINA RESULT:      -7.8      7.593     10.263
REMARK  3 active torsions:
REMARK  status: ('A' for Active; 'I' for Inactive)
REMARK    1  A    between atoms: C_3  and  C_4 
REMARK    2  A    between atoms: C_8  and  C_9 
REMARK       I    between atoms: C_9  and  N_10 
REMARK    3  A    between atoms: N_10  and  N_11 
ROOT
HETATM    1  C   UNL     1     -44.284  59.294 -51.537  1.00  0.00     0.291 C 
HETATM    2  N   UNL     1     -43.238  58.587 -50.989  1.00  0.00    -0.251 N 
HETATM    3  O   UNL     1     -44.719  59.121 -52.673  1.00  0.00    -0.264 OA
HETATM    4  H   UNL     1     -42.924  58.798 -50.047  1.00  0.00     0.191 HD
ENDROOT
BRANCH   1   5
HETATM    5  C   UNL     1     -44.839  60.288 -50.610  1.00  0.00     0.148 A 
HETATM    6  N   UNL     1     -46.017  60.902 -50.840  1.00  0.00    -0.169 NA
HETATM    7  N   UNL     1     -46.174  61.710 -49.775  1.00  0.00    -0.277 N 
HETATM    8  C   UNL     1     -45.129  61.686 -48.887  1.00  0.00     0.064 A 
HETATM    9  H   UNL     1     -47.020  62.265 -49.710  1.00  0.00     0.189 HD
HETATM   10  C   UNL     1     -44.254  60.753 -49.406  1.00  0.00     0.071 A 
BRANCH   8  11
HETATM   11  C   UNL     1     -45.037  62.545 -47.703  1.00  0.00     0.014 A 
HETATM   12  C   UNL     1     -44.708  63.898 -47.894  1.00  0.00     0.015 A 
HETATM   13  C   UNL     1     -44.620  64.782 -46.816  1.00  0.00     0.001 A 
HETATM   14  C   UNL     1     -44.852  64.326 -45.522  1.00  0.00     0.002 A 
HETATM   15  C   UNL     1     -45.173  62.987 -45.307  1.00  0.00     0.025 A 
HETATM   16  C   UNL     1     -45.267  62.099 -46.388  1.00  0.00     0.046 A 
HETATM   17 CL   UNL     1     -45.653  60.453 -46.014  1.00  0.00    -0.083 Cl
ENDBRANCH   8  11
ENDBRANCH   1   5
BRANCH   2  18
HETATM   18  N   UNL     1     -42.644  57.573 -51.705  1.00  0.00    -0.167 N 
HETATM   19  C   UNL     1     -41.531  57.743 -52.486  1.00  0.00     0.345 A 
HETATM   20  O   UNL     1     -40.955  58.777 -52.781  1.00  0.00    -0.245 OA
HETATM   21  N   UNL     1     -41.147  56.492 -52.936  1.00  0.00    -0.323 N 
HETATM   22  C   UNL     1     -42.005  55.433 -52.434  1.00  0.00     0.117 A 
HETATM   23  H   UNL     1     -40.322  56.380 -53.512  1.00  0.00     0.165 HD
HETATM   24  C   UNL     1     -41.238  54.460 -51.533  1.00  0.00     0.041 C 
HETATM   25  C   UNL     1     -42.731  54.720 -53.579  1.00  0.00     0.041 C 
HETATM   26  C   UNL     1     -43.004  56.255 -51.592  1.00  0.00     0.275 A 
HETATM   27  C   UNL     1     -40.320  53.535 -52.332  1.00  0.00     0.003 C 
HETATM   28  C   UNL     1     -41.072  52.818 -53.449  1.00  0.00     0.000 C 
HETATM   29  C   UNL     1     -41.796  53.801 -54.365  1.00  0.00     0.003 C 
HETATM   30  O   UNL     1     -43.946  55.795 -50.959  1.00  0.00    -0.268 OA
ENDBRANCH   2  18
TORSDOF 3
ENDMDL
