MODEL 1
REMARK VINA RESULT:      -9.3      0.000      0.000
REMARK  8 active torsions:
REMARK  status: ('A' for Active; 'I' for Inactive)
REMARK    1  A    between atoms: C_5  and  N_6 
REMARK       I    between atoms: N_6  and  C_7 
REMARK    2  A    between atoms: C_7  and  C_8 
REMARK    3  A    between atoms: C_8  and  N_9 
REMARK    4  A    between atoms: N_12  and  C_13 
REMARK    5  A    between atoms: C_13  and  C_14 
REMARK    6  A    between atoms: C_17  and  C_18 
REMARK       I    between atoms: C_18  and  N_19 
REMARK    7  A    between atoms: N_19  and  C_20 
REMARK    8  A    between atoms: C_20  and  C_21 
ROOT
HETATM    1  N   UNL     1     -46.453  62.957 -50.309  1.00  0.00    -0.290 N 
HETATM    2  C   UNL     1     -45.699  62.481 -51.375  1.00  0.00     0.332 C 
HETATM    3  O   UNL     1     -45.980  62.800 -52.532  1.00  0.00    -0.246 OA
HETATM    4  N   UNL     1     -44.621  61.664 -51.070  1.00  0.00    -0.261 N 
HETATM    5  C   UNL     1     -44.294  61.247 -49.786  1.00  0.00     0.264 C 
HETATM    6  O   UNL     1     -43.246  60.679 -49.487  1.00  0.00    -0.267 OA
HETATM    7  C   UNL     1     -45.257  61.565 -48.721  1.00  0.00     0.059 A 
HETATM    8  C   UNL     1     -46.298  62.452 -48.991  1.00  0.00     0.055 A 
HETATM    9  C   UNL     1     -45.068  61.035 -47.436  1.00  0.00     0.019 A 
HETATM   10  C   UNL     1     -45.932  61.389 -46.404  1.00  0.00     0.001 A 
HETATM   11  C   UNL     1     -46.973  62.277 -46.655  1.00  0.00     0.002 A 
HETATM   12  C   UNL     1     -47.153  62.808 -47.938  1.00  0.00     0.031 A 
ENDROOT
BRANCH   4  13
HETATM   13  C   UNL     1     -43.627  61.440 -52.113  1.00  0.00     0.175 C 
BRANCH  13  14
HETATM   14  C   UNL     1     -43.504  60.004 -52.576  1.00  0.00    -0.040 A 
HETATM   15  C   UNL     1     -44.600  59.318 -53.116  1.00  0.00     0.010 A 
HETATM   16  C   UNL     1     -44.443  58.026 -53.639  1.00  0.00     0.017 A 
HETATM   17  C   UNL     1     -43.189  57.399 -53.612  1.00  0.00     0.032 A 
HETATM   18  C   UNL     1     -42.101  58.076 -53.051  1.00  0.00     0.017 A 
HETATM   19  C   UNL     1     -42.258  59.361 -52.533  1.00  0.00     0.010 A 
BRANCH  17  20
HETATM   20  C   UNL     1     -42.933  56.061 -54.220  1.00  0.00     0.251 C 
HETATM   21  N   UNL     1     -41.632  55.760 -54.554  1.00  0.00    -0.353 N 
HETATM   22  H   UNL     1     -40.916  56.468 -54.517  1.00  0.00     0.163 HD
HETATM   23  O   UNL     1     -43.868  55.292 -54.414  1.00  0.00    -0.268 OA
BRANCH  21  24
HETATM   24  C   UNL     1     -41.278  54.488 -55.145  1.00  0.00     0.161 C 
BRANCH  24  25
HETATM   25  C   UNL     1     -40.806  53.509 -54.100  1.00  0.00    -0.038 A 
HETATM   26  C   UNL     1     -40.561  52.169 -54.440  1.00  0.00     0.048 A 
HETATM   27  C   UNL     1     -40.107  51.319 -53.454  1.00  0.00     0.105 A 
HETATM   28  C   UNL     1     -39.895  51.750 -52.165  1.00  0.00     0.105 A 
HETATM   29  O   UNL     1     -39.817  50.001 -53.615  1.00  0.00    -0.323 OA
HETATM   30  O   UNL     1     -39.445  50.756 -51.353  1.00  0.00    -0.323 OA
HETATM   31  C   UNL     1     -40.121  53.056 -51.791  1.00  0.00     0.040 A 
HETATM   32  C   UNL     1     -39.381  49.655 -52.283  1.00  0.00     0.352 A 
HETATM   33  C   UNL     1     -40.576  53.942 -52.772  1.00  0.00     0.012 A 
ENDBRANCH  24  25
ENDBRANCH  21  24
ENDBRANCH  17  20
ENDBRANCH  13  14
ENDBRANCH   4  13
BRANCH   1  34
HETATM   34  C   UNL     1     -47.311  64.125 -50.547  1.00  0.00     0.237 C 
BRANCH  34  35
HETATM   35  C   UNL     1     -48.774  63.856 -50.897  1.00  0.00     0.240 C 
HETATM   36  N   UNL     1     -49.002  63.581 -52.230  1.00  0.00    -0.326 N 
HETATM   37  H   UNL     1     -48.188  63.574 -52.834  1.00  0.00     0.169 HD
HETATM   38  O   UNL     1     -49.633  64.004 -50.029  1.00  0.00    -0.271 OA
BRANCH  36  39
HETATM   39  C   UNL     1     -50.252  63.362 -52.851  1.00  0.00     0.034 A 
HETATM   40  C   UNL     1     -51.004  64.364 -53.467  1.00  0.00     0.030 A 
HETATM   41  C   UNL     1     -52.229  64.069 -54.076  1.00  0.00     0.009 A 
HETATM   42  C   UNL     1     -52.723  62.763 -54.085  1.00  0.00    -0.062 A 
HETATM   43  C   UNL     1     -54.044  62.449 -54.721  1.00  0.00     0.048 C 
HETATM   44  C   UNL     1     -51.983  61.760 -53.452  1.00  0.00     0.009 A 
HETATM   45  C   UNL     1     -50.756  62.057 -52.845  1.00  0.00     0.030 A 
ENDBRANCH  36  39
ENDBRANCH  34  35
ENDBRANCH   1  34
TORSDOF 8
ENDMDL
MODEL 2
REMARK VINA RESULT:      -9.2      3.879     11.416
REMARK  8 active torsions:
REMARK  status: ('A' for Active; 'I' for Inactive)
REMARK    1  A    between atoms: C_5  and  N_6 
REMARK       I    between atoms: N_6  and  C_7 
REMARK    2  A    between atoms: C_7  and  C_8 
REMARK    3  A    between atoms: C_8  and  N_9 
REMARK    4  A    between atoms: N_12  and  C_13 
REMARK    5  A    between atoms: C_13  and  C_14 
REMARK    6  A    between atoms: C_17  and  C_18 
REMARK       I    between atoms: C_18  and  N_19 
REMARK    7  A    between atoms: N_19  and  C_20 
REMARK    8  A    between atoms: C_20  and  C_21 
ROOT
HETATM    1  N   UNL     1     -42.636  56.538 -55.773  1.00  0.00    -0.290 N 
HETATM    2  C   UNL     1     -42.495  57.536 -54.816  1.00  0.00     0.332 C 
HETATM    3  O   UNL     1     -42.653  57.284 -53.620  1.00  0.00    -0.246 OA
HETATM    4  N   UNL     1     -42.149  58.800 -55.270  1.00  0.00    -0.261 N 
HETATM    5  C   UNL     1     -42.001  59.138 -56.609  1.00  0.00     0.264 C 
HETATM    6  O   UNL     1     -41.522  60.197 -57.008  1.00  0.00    -0.267 OA
HETATM    7  C   UNL     1     -42.402  58.125 -57.596  1.00  0.00     0.059 A 
HETATM    8  C   UNL     1     -42.671  56.827 -57.164  1.00  0.00     0.055 A 
HETATM    9  C   UNL     1     -42.431  58.458 -58.958  1.00  0.00     0.019 A 
HETATM   10  C   UNL     1     -42.738  57.486 -59.906  1.00  0.00     0.001 A 
HETATM   11  C   UNL     1     -43.003  56.185 -59.492  1.00  0.00     0.002 A 
HETATM   12  C   UNL     1     -42.967  55.856 -58.132  1.00  0.00     0.031 A 
ENDROOT
BRANCH   4  13
HETATM   13  C   UNL     1     -41.663  59.761 -54.286  1.00  0.00     0.175 C 
BRANCH  13  14
HETATM   14  C   UNL     1     -42.659  60.127 -53.208  1.00  0.00    -0.040 A 
HETATM   15  C   UNL     1     -43.976  60.484 -53.526  1.00  0.00     0.010 A 
HETATM   16  C   UNL     1     -44.915  60.717 -52.511  1.00  0.00     0.017 A 
HETATM   17  C   UNL     1     -44.543  60.608 -51.164  1.00  0.00     0.032 A 
HETATM   18  C   UNL     1     -43.222  60.275 -50.847  1.00  0.00     0.017 A 
HETATM   19  C   UNL     1     -42.289  60.042 -51.857  1.00  0.00     0.010 A 
BRANCH  17  20
HETATM   20  C   UNL     1     -45.507  60.764 -50.036  1.00  0.00     0.251 C 
HETATM   21  N   UNL     1     -45.561  61.993 -49.419  1.00  0.00    -0.353 N 
HETATM   22  H   UNL     1     -44.879  62.705 -49.632  1.00  0.00     0.163 HD
HETATM   23  O   UNL     1     -46.196  59.811 -49.689  1.00  0.00    -0.268 OA
BRANCH  21  24
HETATM   24  C   UNL     1     -46.464  62.247 -48.317  1.00  0.00     0.161 C 
BRANCH  24  25
HETATM   25  C   UNL     1     -45.744  62.195 -46.994  1.00  0.00    -0.038 A 
HETATM   26  C   UNL     1     -45.583  63.360 -46.226  1.00  0.00     0.048 A 
HETATM   27  C   UNL     1     -44.939  63.255 -45.011  1.00  0.00     0.105 A 
HETATM   28  C   UNL     1     -44.458  62.054 -44.546  1.00  0.00     0.105 A 
HETATM   29  O   UNL     1     -44.707  64.278 -44.146  1.00  0.00    -0.323 OA
HETATM   30  O   UNL     1     -43.860  62.171 -43.330  1.00  0.00    -0.323 OA
HETATM   31  C   UNL     1     -44.596  60.889 -45.267  1.00  0.00     0.040 A 
HETATM   32  C   UNL     1     -44.038  63.580 -43.075  1.00  0.00     0.352 A 
HETATM   33  C   UNL     1     -45.251  60.964 -46.500  1.00  0.00     0.012 A 
ENDBRANCH  24  25
ENDBRANCH  21  24
ENDBRANCH  17  20
ENDBRANCH  13  14
ENDBRANCH   4  13
BRANCH   1  34
HETATM   34  C   UNL     1     -42.583  55.143 -55.319  1.00  0.00     0.237 C 
BRANCH  34  35
HETATM   35  C   UNL     1     -41.665  54.829 -54.138  1.00  0.00     0.240 C 
HETATM   36  N   UNL     1     -42.324  54.585 -52.950  1.00  0.00    -0.326 N 
HETATM   37  H   UNL     1     -43.336  54.626 -52.980  1.00  0.00     0.169 HD
HETATM   38  O   UNL     1     -40.448  54.919 -54.288  1.00  0.00    -0.271 OA
BRANCH  36  39
HETATM   39  C   UNL     1     -41.738  54.338 -51.689  1.00  0.00     0.034 A 
HETATM   40  C   UNL     1     -40.950  53.223 -51.398  1.00  0.00     0.030 A 
HETATM   41  C   UNL     1     -40.389  53.052 -50.127  1.00  0.00     0.009 A 
HETATM   42  C   UNL     1     -40.603  53.999 -49.123  1.00  0.00    -0.062 A 
HETATM   43  C   UNL     1     -40.018  53.808 -47.755  1.00  0.00     0.048 C 
HETATM   44  C   UNL     1     -41.408  55.107 -49.404  1.00  0.00     0.009 A 
HETATM   45  C   UNL     1     -41.965  55.277 -50.677  1.00  0.00     0.030 A 
ENDBRANCH  36  39
ENDBRANCH  34  35
ENDBRANCH   1  34
TORSDOF 8
ENDMDL
MODEL 3
REMARK VINA RESULT:      -9.0      5.569      8.716
REMARK  8 active torsions:
REMARK  status: ('A' for Active; 'I' for Inactive)
REMARK    1  A    between atoms: C_5  and  N_6 
REMARK       I    between atoms: N_6  and  C_7 
REMARK    2  A    between atoms: C_7  and  C_8 
REMARK    3  A    between atoms: C_8  and  N_9 
REMARK    4  A    between atoms: N_12  and  C_13 
REMARK    5  A    between atoms: C_13  and  C_14 
REMARK    6  A    between atoms: C_17  and  C_18 
REMARK       I    between atoms: C_18  and  N_19 
REMARK    7  A    between atoms: N_19  and  C_20 
REMARK    8  A    between atoms: C_20  and  C_21 
ROOT
HETATM    1  N   UNL     1     -42.999  60.333 -60.509  1.00  0.00    -0.290 N 
HETATM    2  C   UNL     1     -43.079  58.952 -60.381  1.00  0.00     0.332 C 
HETATM    3  O   UNL     1     -42.056  58.273 -60.268  1.00  0.00    -0.246 OA
HETATM    4  N   UNL     1     -44.348  58.393 -60.362  1.00  0.00    -0.261 N 
HETATM    5  C   UNL     1     -45.523  59.114 -60.527  1.00  0.00     0.264 C 
HETATM    6  O   UNL     1     -46.648  58.660 -60.332  1.00  0.00    -0.267 OA
HETATM    7  C   UNL     1     -45.385  60.528 -60.909  1.00  0.00     0.059 A 
HETATM    8  C   UNL     1     -44.128  61.126 -60.851  1.00  0.00     0.055 A 
HETATM    9  C   UNL     1     -46.528  61.268 -61.248  1.00  0.00     0.019 A 
HETATM   10  C   UNL     1     -46.416  62.624 -61.539  1.00  0.00     0.001 A 
HETATM   11  C   UNL     1     -45.169  63.238 -61.480  1.00  0.00     0.002 A 
HETATM   12  C   UNL     1     -44.033  62.496 -61.135  1.00  0.00     0.031 A 
ENDROOT
BRANCH   4  13
HETATM   13  C   UNL     1     -44.474  57.020 -59.889  1.00  0.00     0.175 C 
BRANCH  13  14
HETATM   14  C   UNL     1     -44.003  56.790 -58.469  1.00  0.00    -0.040 A 
HETATM   15  C   UNL     1     -44.482  57.571 -57.409  1.00  0.00     0.010 A 
HETATM   16  C   UNL     1     -44.119  57.277 -56.087  1.00  0.00     0.017 A 
HETATM   17  C   UNL     1     -43.258  56.205 -55.812  1.00  0.00     0.032 A 
HETATM   18  C   UNL     1     -42.761  55.440 -56.872  1.00  0.00     0.017 A 
HETATM   19  C   UNL     1     -43.125  55.733 -58.187  1.00  0.00     0.010 A 
BRANCH  17  20
HETATM   20  C   UNL     1     -42.893  55.786 -54.427  1.00  0.00     0.251 C 
HETATM   21  N   UNL     1     -41.553  55.657 -54.142  1.00  0.00    -0.353 N 
HETATM   22  H   UNL     1     -40.864  55.706 -54.877  1.00  0.00     0.163 HD
HETATM   23  O   UNL     1     -43.776  55.561 -53.607  1.00  0.00    -0.268 OA
BRANCH  21  24
HETATM   24  C   UNL     1     -41.094  55.259 -52.828  1.00  0.00     0.161 C 
BRANCH  24  25
HETATM   25  C   UNL     1     -40.643  53.820 -52.816  1.00  0.00    -0.038 A 
HETATM   26  C   UNL     1     -40.460  53.143 -51.600  1.00  0.00     0.048 A 
HETATM   27  C   UNL     1     -40.071  51.821 -51.644  1.00  0.00     0.105 A 
HETATM   28  C   UNL     1     -39.860  51.165 -52.833  1.00  0.00     0.105 A 
HETATM   29  O   UNL     1     -39.855  51.022 -50.565  1.00  0.00    -0.323 OA
HETATM   30  O   UNL     1     -39.484  49.870 -52.652  1.00  0.00    -0.323 OA
HETATM   31  C   UNL     1     -40.030  51.792 -54.048  1.00  0.00     0.040 A 
HETATM   32  C   UNL     1     -39.501  49.782 -51.212  1.00  0.00     0.352 A 
HETATM   33  C   UNL     1     -40.431  53.132 -54.034  1.00  0.00     0.012 A 
ENDBRANCH  24  25
ENDBRANCH  21  24
ENDBRANCH  17  20
ENDBRANCH  13  14
ENDBRANCH   4  13
BRANCH   1  34
HETATM   34  C   UNL     1     -41.742  60.985 -60.118  1.00  0.00     0.237 C 
BRANCH  34  35
HETATM   35  C   UNL     1     -41.461  61.114 -58.621  1.00  0.00     0.240 C 
HETATM   36  N   UNL     1     -42.441  60.582 -57.807  1.00  0.00    -0.326 N 
HETATM   37  H   UNL     1     -43.232  60.155 -58.275  1.00  0.00     0.169 HD
HETATM   38  O   UNL     1     -40.478  61.753 -58.251  1.00  0.00    -0.271 OA
BRANCH  36  39
HETATM   39  C   UNL     1     -42.484  60.617 -56.396  1.00  0.00     0.034 A 
HETATM   40  C   UNL     1     -43.227  61.542 -55.660  1.00  0.00     0.030 A 
HETATM   41  C   UNL     1     -43.233  61.506 -54.261  1.00  0.00     0.009 A 
HETATM   42  C   UNL     1     -42.499  60.539 -53.571  1.00  0.00    -0.062 A 
HETATM   43  C   UNL     1     -42.490  60.511 -52.071  1.00  0.00     0.048 C 
HETATM   44  C   UNL     1     -41.738  59.623 -54.303  1.00  0.00     0.009 A 
HETATM   45  C   UNL     1     -41.735  59.659 -55.703  1.00  0.00     0.030 A 
ENDBRANCH  36  39
ENDBRANCH  34  35
ENDBRANCH   1  34
TORSDOF 8
ENDMDL
MODEL 4
REMARK VINA RESULT:      -8.8      3.279     12.049
REMARK  8 active torsions:
REMARK  status: ('A' for Active; 'I' for Inactive)
REMARK    1  A    between atoms: C_5  and  N_6 
REMARK       I    between atoms: N_6  and  C_7 
REMARK    2  A    between atoms: C_7  and  C_8 
REMARK    3  A    between atoms: C_8  and  N_9 
REMARK    4  A    between atoms: N_12  and  C_13 
REMARK    5  A    between atoms: C_13  and  C_14 
REMARK    6  A    between atoms: C_17  and  C_18 
REMARK       I    between atoms: C_18  and  N_19 
REMARK    7  A    between atoms: N_19  and  C_20 
REMARK    8  A    between atoms: C_20  and  C_21 
ROOT
HETATM    1  N   UNL     1     -43.235  56.469 -55.860  1.00  0.00    -0.290 N 
HETATM    2  C   UNL     1     -43.487  57.451 -54.910  1.00  0.00     0.332 C 
HETATM    3  O   UNL     1     -43.894  57.147 -53.787  1.00  0.00    -0.246 OA
HETATM    4  N   UNL     1     -43.235  58.764 -55.278  1.00  0.00    -0.261 N 
HETATM    5  C   UNL     1     -42.816  59.155 -56.543  1.00  0.00     0.264 C 
HETATM    6  O   UNL     1     -42.420  60.284 -56.824  1.00  0.00    -0.267 OA
HETATM    7  C   UNL     1     -42.803  58.119 -57.587  1.00  0.00     0.059 A 
HETATM    8  C   UNL     1     -42.969  56.785 -57.219  1.00  0.00     0.055 A 
HETATM    9  C   UNL     1     -42.546  58.480 -58.918  1.00  0.00     0.019 A 
HETATM   10  C   UNL     1     -42.458  57.498 -59.900  1.00  0.00     0.001 A 
HETATM   11  C   UNL     1     -42.617  56.161 -59.549  1.00  0.00     0.002 A 
HETATM   12  C   UNL     1     -42.867  55.806 -58.218  1.00  0.00     0.031 A 
ENDROOT
BRANCH   4  13
HETATM   13  C   UNL     1     -43.158  59.761 -54.217  1.00  0.00     0.175 C 
BRANCH  13  14
HETATM   14  C   UNL     1     -44.491  60.321 -53.771  1.00  0.00    -0.040 A 
HETATM   15  C   UNL     1     -44.973  60.104 -52.473  1.00  0.00     0.010 A 
HETATM   16  C   UNL     1     -46.158  60.719 -52.042  1.00  0.00     0.017 A 
HETATM   17  C   UNL     1     -46.882  61.547 -52.911  1.00  0.00     0.032 A 
HETATM   18  C   UNL     1     -46.412  61.744 -54.214  1.00  0.00     0.017 A 
HETATM   19  C   UNL     1     -45.233  61.133 -54.641  1.00  0.00     0.010 A 
BRANCH  17  20
HETATM   20  C   UNL     1     -48.105  62.294 -52.496  1.00  0.00     0.251 C 
HETATM   21  N   UNL     1     -49.241  62.110 -53.251  1.00  0.00    -0.353 N 
HETATM   22  H   UNL     1     -49.202  61.605 -54.122  1.00  0.00     0.163 HD
HETATM   23  O   UNL     1     -48.060  63.044 -51.527  1.00  0.00    -0.268 OA
BRANCH  21  24
HETATM   24  C   UNL     1     -50.480  62.787 -52.930  1.00  0.00     0.161 C 
BRANCH  24  25
HETATM   25  C   UNL     1     -51.602  62.331 -53.828  1.00  0.00    -0.038 A 
HETATM   26  C   UNL     1     -51.376  61.346 -54.803  1.00  0.00     0.048 A 
HETATM   27  C   UNL     1     -52.442  60.945 -55.582  1.00  0.00     0.105 A 
HETATM   28  C   UNL     1     -53.697  61.483 -55.427  1.00  0.00     0.105 A 
HETATM   29  O   UNL     1     -52.396  60.004 -56.562  1.00  0.00    -0.323 OA
HETATM   30  O   UNL     1     -54.601  60.948 -56.292  1.00  0.00    -0.323 OA
HETATM   31  C   UNL     1     -53.961  62.449 -54.482  1.00  0.00     0.040 A 
HETATM   32  C   UNL     1     -53.773  59.999 -56.996  1.00  0.00     0.352 A 
HETATM   33  C   UNL     1     -52.901  62.871 -53.673  1.00  0.00     0.012 A 
ENDBRANCH  24  25
ENDBRANCH  21  24
ENDBRANCH  17  20
ENDBRANCH  13  14
ENDBRANCH   4  13
BRANCH   1  34
HETATM   34  C   UNL     1     -43.084  55.086 -55.390  1.00  0.00     0.237 C 
BRANCH  34  35
HETATM   35  C   UNL     1     -42.091  54.841 -54.253  1.00  0.00     0.240 C 
HETATM   36  N   UNL     1     -42.675  54.541 -53.038  1.00  0.00    -0.326 N 
HETATM   37  H   UNL     1     -43.687  54.503 -53.023  1.00  0.00     0.169 HD
HETATM   38  O   UNL     1     -40.893  55.026 -54.457  1.00  0.00    -0.271 OA
BRANCH  36  39
HETATM   39  C   UNL     1     -42.015  54.336 -51.807  1.00  0.00     0.034 A 
HETATM   40  C   UNL     1     -41.052  53.349 -51.591  1.00  0.00     0.030 A 
HETATM   41  C   UNL     1     -40.428  53.215 -50.345  1.00  0.00     0.009 A 
HETATM   42  C   UNL     1     -40.754  54.071 -49.292  1.00  0.00    -0.062 A 
HETATM   43  C   UNL     1     -40.100  53.917 -47.951  1.00  0.00     0.048 C 
HETATM   44  C   UNL     1     -41.732  55.049 -49.497  1.00  0.00     0.009 A 
HETATM   45  C   UNL     1     -42.353  55.183 -50.745  1.00  0.00     0.030 A 
ENDBRANCH  36  39
ENDBRANCH  34  35
ENDBRANCH   1  34
TORSDOF 8
ENDMDL
MODEL 5
REMARK VINA RESULT:      -8.8      3.979     11.321
REMARK  8 active torsions:
REMARK  status: ('A' for Active; 'I' for Inactive)
REMARK    1  A    between atoms: C_5  and  N_6 
REMARK       I    between atoms: N_6  and  C_7 
REMARK    2  A    between atoms: C_7  and  C_8 
REMARK    3  A    between atoms: C_8  and  N_9 
REMARK    4  A    between atoms: N_12  and  C_13 
REMARK    5  A    between atoms: C_13  and  C_14 
REMARK    6  A    between atoms: C_17  and  C_18 
REMARK       I    between atoms: C_18  and  N_19 
REMARK    7  A    between atoms: N_19  and  C_20 
REMARK    8  A    between atoms: C_20  and  C_21 
ROOT
HETATM    1  N   UNL     1     -43.028  56.840 -56.131  1.00  0.00    -0.290 N 
HETATM    2  C   UNL     1     -42.625  57.614 -55.049  1.00  0.00     0.332 C 
HETATM    3  O   UNL     1     -42.715  57.179 -53.900  1.00  0.00    -0.246 OA
HETATM    4  N   UNL     1     -42.100  58.866 -55.332  1.00  0.00    -0.261 N 
HETATM    5  C   UNL     1     -42.017  59.411 -56.607  1.00  0.00     0.264 C 
HETATM    6  O   UNL     1     -41.395  60.433 -56.884  1.00  0.00    -0.267 OA
HETATM    7  C   UNL     1     -42.681  58.669 -57.689  1.00  0.00     0.059 A 
HETATM    8  C   UNL     1     -43.137  57.375 -57.442  1.00  0.00     0.055 A 
HETATM    9  C   UNL     1     -42.774  59.242 -58.966  1.00  0.00     0.019 A 
HETATM   10  C   UNL     1     -43.335  58.517 -60.014  1.00  0.00     0.001 A 
HETATM   11  C   UNL     1     -43.790  57.222 -59.786  1.00  0.00     0.002 A 
HETATM   12  C   UNL     1     -43.689  56.653 -58.511  1.00  0.00     0.031 A 
ENDROOT
BRANCH   4  13
HETATM   13  C   UNL     1     -41.362  59.544 -54.272  1.00  0.00     0.175 C 
BRANCH  13  14
HETATM   14  C   UNL     1     -42.223  60.261 -53.255  1.00  0.00    -0.040 A 
HETATM   15  C   UNL     1     -43.288  61.080 -53.653  1.00  0.00     0.010 A 
HETATM   16  C   UNL     1     -44.142  61.652 -52.698  1.00  0.00     0.017 A 
HETATM   17  C   UNL     1     -43.931  61.421 -51.332  1.00  0.00     0.032 A 
HETATM   18  C   UNL     1     -42.853  60.622 -50.935  1.00  0.00     0.017 A 
HETATM   19  C   UNL     1     -42.006  60.053 -51.885  1.00  0.00     0.010 A 
BRANCH  17  20
HETATM   20  C   UNL     1     -44.844  61.930 -50.267  1.00  0.00     0.251 C 
HETATM   21  N   UNL     1     -44.263  62.391 -49.108  1.00  0.00    -0.353 N 
HETATM   22  H   UNL     1     -43.278  62.255 -48.938  1.00  0.00     0.163 HD
HETATM   23  O   UNL     1     -46.057  61.911 -50.446  1.00  0.00    -0.268 OA
BRANCH  21  24
HETATM   24  C   UNL     1     -45.060  62.908 -48.016  1.00  0.00     0.161 C 
BRANCH  24  25
HETATM   25  C   UNL     1     -45.292  61.857 -46.960  1.00  0.00    -0.038 A 
HETATM   26  C   UNL     1     -46.196  60.807 -47.190  1.00  0.00     0.048 A 
HETATM   27  C   UNL     1     -46.354  59.857 -46.202  1.00  0.00     0.105 A 
HETATM   28  C   UNL     1     -45.659  59.918 -45.018  1.00  0.00     0.105 A 
HETATM   29  O   UNL     1     -47.180  58.779 -46.265  1.00  0.00    -0.323 OA
HETATM   30  O   UNL     1     -45.960  58.886 -44.186  1.00  0.00    -0.323 OA
HETATM   31  C   UNL     1     -44.762  60.930 -44.755  1.00  0.00     0.040 A 
HETATM   32  C   UNL     1     -46.911  58.158 -44.991  1.00  0.00     0.352 A 
HETATM   33  C   UNL     1     -44.576  61.905 -45.740  1.00  0.00     0.012 A 
ENDBRANCH  24  25
ENDBRANCH  21  24
ENDBRANCH  17  20
ENDBRANCH  13  14
ENDBRANCH   4  13
BRANCH   1  34
HETATM   34  C   UNL     1     -43.185  55.395 -55.917  1.00  0.00     0.237 C 
BRANCH  34  35
HETATM   35  C   UNL     1     -41.984  54.642 -55.345  1.00  0.00     0.240 C 
HETATM   36  N   UNL     1     -42.288  53.789 -54.302  1.00  0.00    -0.326 N 
HETATM   37  H   UNL     1     -43.263  53.739 -54.031  1.00  0.00     0.169 HD
HETATM   38  O   UNL     1     -40.858  54.913 -55.756  1.00  0.00    -0.271 OA
BRANCH  36  39
HETATM   39  C   UNL     1     -41.379  53.022 -53.540  1.00  0.00     0.034 A 
HETATM   40  C   UNL     1     -40.993  53.337 -52.236  1.00  0.00     0.030 A 
HETATM   41  C   UNL     1     -40.098  52.519 -51.536  1.00  0.00     0.009 A 
HETATM   42  C   UNL     1     -39.575  51.368 -52.128  1.00  0.00    -0.062 A 
HETATM   43  C   UNL     1     -38.601  50.501 -51.386  1.00  0.00     0.048 C 
HETATM   44  C   UNL     1     -39.944  51.059 -53.441  1.00  0.00     0.009 A 
HETATM   45  C   UNL     1     -40.841  51.877 -54.138  1.00  0.00     0.030 A 
ENDBRANCH  36  39
ENDBRANCH  34  35
ENDBRANCH   1  34
TORSDOF 8
ENDMDL
MODEL 6
REMARK VINA RESULT:      -8.8      6.918      9.745
REMARK  8 active torsions:
REMARK  status: ('A' for Active; 'I' for Inactive)
REMARK    1  A    between atoms: C_5  and  N_6 
REMARK       I    between atoms: N_6  and  C_7 
REMARK    2  A    between atoms: C_7  and  C_8 
REMARK    3  A    between atoms: C_8  and  N_9 
REMARK    4  A    between atoms: N_12  and  C_13 
REMARK    5  A    between atoms: C_13  and  C_14 
REMARK    6  A    between atoms: C_17  and  C_18 
REMARK       I    between atoms: C_18  and  N_19 
REMARK    7  A    between atoms: N_19  and  C_20 
REMARK    8  A    between atoms: C_20  and  C_21 
ROOT
HETATM    1  N   UNL     1     -42.616  63.090 -61.436  1.00  0.00    -0.290 N 
HETATM    2  C   UNL     1     -42.745  63.240 -60.060  1.00  0.00     0.332 C 
HETATM    3  O   UNL     1     -43.859  63.354 -59.544  1.00  0.00    -0.246 OA
HETATM    4  N   UNL     1     -41.577  63.229 -59.312  1.00  0.00    -0.261 N 
HETATM    5  C   UNL     1     -40.302  63.144 -59.855  1.00  0.00     0.264 C 
HETATM    6  O   UNL     1     -39.281  62.952 -59.199  1.00  0.00    -0.267 OA
HETATM    7  C   UNL     1     -40.196  63.240 -61.319  1.00  0.00     0.059 A 
HETATM    8  C   UNL     1     -41.356  63.167 -62.088  1.00  0.00     0.055 A 
HETATM    9  C   UNL     1     -38.931  63.324 -61.918  1.00  0.00     0.019 A 
HETATM   10  C   UNL     1     -38.818  63.340 -63.305  1.00  0.00     0.001 A 
HETATM   11  C   UNL     1     -39.965  63.263 -64.087  1.00  0.00     0.002 A 
HETATM   12  C   UNL     1     -41.226  63.173 -63.484  1.00  0.00     0.031 A 
ENDROOT
BRANCH   4  13
HETATM   13  C   UNL     1     -41.699  63.037 -57.872  1.00  0.00     0.175 C 
BRANCH  13  14
HETATM   14  C   UNL     1     -42.097  61.640 -57.448  1.00  0.00    -0.040 A 
HETATM   15  C   UNL     1     -43.275  61.408 -56.725  1.00  0.00     0.010 A 
HETATM   16  C   UNL     1     -43.685  60.099 -56.432  1.00  0.00     0.017 A 
HETATM   17  C   UNL     1     -42.911  59.006 -56.847  1.00  0.00     0.032 A 
HETATM   18  C   UNL     1     -41.723  59.239 -57.548  1.00  0.00     0.017 A 
HETATM   19  C   UNL     1     -41.318  60.542 -57.840  1.00  0.00     0.010 A 
BRANCH  17  20
HETATM   20  C   UNL     1     -43.325  57.588 -56.640  1.00  0.00     0.251 C 
HETATM   21  N   UNL     1     -42.349  56.624 -56.753  1.00  0.00    -0.353 N 
HETATM   22  H   UNL     1     -41.431  56.861 -57.099  1.00  0.00     0.163 HD
HETATM   23  O   UNL     1     -44.498  57.326 -56.396  1.00  0.00    -0.268 OA
BRANCH  21  24
HETATM   24  C   UNL     1     -42.646  55.220 -56.568  1.00  0.00     0.161 C 
BRANCH  24  25
HETATM   25  C   UNL     1     -42.036  54.694 -55.293  1.00  0.00    -0.038 A 
HETATM   26  C   UNL     1     -42.747  54.761 -54.084  1.00  0.00     0.048 A 
HETATM   27  C   UNL     1     -42.156  54.243 -52.951  1.00  0.00     0.105 A 
HETATM   28  C   UNL     1     -40.905  53.674 -52.981  1.00  0.00     0.105 A 
HETATM   29  O   UNL     1     -42.707  54.223 -51.708  1.00  0.00    -0.323 OA
HETATM   30  O   UNL     1     -40.510  53.226 -51.759  1.00  0.00    -0.323 OA
HETATM   31  C   UNL     1     -40.175  53.587 -54.146  1.00  0.00     0.040 A 
HETATM   32  C   UNL     1     -41.665  53.560 -50.962  1.00  0.00     0.352 A 
HETATM   33  C   UNL     1     -40.752  54.099 -55.312  1.00  0.00     0.012 A 
ENDBRANCH  24  25
ENDBRANCH  21  24
ENDBRANCH  17  20
ENDBRANCH  13  14
ENDBRANCH   4  13
BRANCH   1  34
HETATM   34  C   UNL     1     -43.806  62.681 -62.194  1.00  0.00     0.237 C 
BRANCH  34  35
HETATM   35  C   UNL     1     -44.237  61.219 -62.078  1.00  0.00     0.240 C 
HETATM   36  N   UNL     1     -43.784  60.577 -60.943  1.00  0.00    -0.326 N 
HETATM   37  H   UNL     1     -43.229  61.133 -60.303  1.00  0.00     0.169 HD
HETATM   38  O   UNL     1     -44.840  60.699 -63.014  1.00  0.00    -0.271 OA
BRANCH  36  39
HETATM   39  C   UNL     1     -43.966  59.218 -60.606  1.00  0.00     0.034 A 
HETATM   40  C   UNL     1     -45.186  58.669 -60.208  1.00  0.00     0.030 A 
HETATM   41  C   UNL     1     -45.294  57.307 -59.904  1.00  0.00     0.009 A 
HETATM   42  C   UNL     1     -44.183  56.467 -59.997  1.00  0.00    -0.062 A 
HETATM   43  C   UNL     1     -44.293  55.011 -59.653  1.00  0.00     0.048 C 
HETATM   44  C   UNL     1     -42.954  57.017 -60.376  1.00  0.00     0.009 A 
HETATM   45  C   UNL     1     -42.849  58.379 -60.683  1.00  0.00     0.030 A 
ENDBRANCH  36  39
ENDBRANCH  34  35
ENDBRANCH   1  34
TORSDOF 8
ENDMDL
MODEL 7
REMARK VINA RESULT:      -8.8      4.246      7.745
REMARK  8 active torsions:
REMARK  status: ('A' for Active; 'I' for Inactive)
REMARK    1  A    between atoms: C_5  and  N_6 
REMARK       I    between atoms: N_6  and  C_7 
REMARK    2  A    between atoms: C_7  and  C_8 
REMARK    3  A    between atoms: C_8  and  N_9 
REMARK    4  A    between atoms: N_12  and  C_13 
REMARK    5  A    between atoms: C_13  and  C_14 
REMARK    6  A    between atoms: C_17  and  C_18 
REMARK       I    between atoms: C_18  and  N_19 
REMARK    7  A    between atoms: N_19  and  C_20 
REMARK    8  A    between atoms: C_20  and  C_21 
ROOT
HETATM    1  N   UNL     1     -45.213  61.400 -57.617  1.00  0.00    -0.290 N 
HETATM    2  C   UNL     1     -44.113  60.793 -58.210  1.00  0.00     0.332 C 
HETATM    3  O   UNL     1     -42.970  61.167 -57.940  1.00  0.00    -0.246 OA
HETATM    4  N   UNL     1     -44.366  59.747 -59.085  1.00  0.00    -0.261 N 
HETATM    5  C   UNL     1     -45.637  59.320 -59.448  1.00  0.00     0.264 C 
HETATM    6  O   UNL     1     -45.869  58.289 -60.075  1.00  0.00    -0.267 OA
HETATM    7  C   UNL     1     -46.767  60.146 -58.998  1.00  0.00     0.059 A 
HETATM    8  C   UNL     1     -46.541  61.146 -58.053  1.00  0.00     0.055 A 
HETATM    9  C   UNL     1     -48.060  59.864 -59.463  1.00  0.00     0.019 A 
HETATM   10  C   UNL     1     -49.145  60.593 -58.985  1.00  0.00     0.001 A 
HETATM   11  C   UNL     1     -48.938  61.590 -58.039  1.00  0.00     0.002 A 
HETATM   12  C   UNL     1     -47.646  61.864 -57.573  1.00  0.00     0.031 A 
ENDROOT
BRANCH   4  13
HETATM   13  C   UNL     1     -43.249  58.882 -59.444  1.00  0.00     0.175 C 
BRANCH  13  14
HETATM   14  C   UNL     1     -42.950  57.782 -58.449  1.00  0.00    -0.040 A 
HETATM   15  C   UNL     1     -42.438  58.072 -57.177  1.00  0.00     0.010 A 
HETATM   16  C   UNL     1     -42.267  57.053 -56.229  1.00  0.00     0.017 A 
HETATM   17  C   UNL     1     -42.593  55.727 -56.549  1.00  0.00     0.032 A 
HETATM   18  C   UNL     1     -43.081  55.435 -57.827  1.00  0.00     0.017 A 
HETATM   19  C   UNL     1     -43.252  56.450 -58.768  1.00  0.00     0.010 A 
BRANCH  17  20
HETATM   20  C   UNL     1     -42.511  54.607 -55.567  1.00  0.00     0.251 C 
HETATM   21  N   UNL     1     -41.299  54.399 -54.949  1.00  0.00    -0.353 N 
HETATM   22  H   UNL     1     -40.475  54.893 -55.255  1.00  0.00     0.163 HD
HETATM   23  O   UNL     1     -43.498  53.911 -55.355  1.00  0.00    -0.268 OA
BRANCH  21  24
HETATM   24  C   UNL     1     -41.117  53.341 -53.978  1.00  0.00     0.161 C 
BRANCH  24  25
HETATM   25  C   UNL     1     -41.140  53.879 -52.569  1.00  0.00    -0.038 A 
HETATM   26  C   UNL     1     -40.664  53.099 -51.504  1.00  0.00     0.048 A 
HETATM   27  C   UNL     1     -40.683  53.645 -50.238  1.00  0.00     0.105 A 
HETATM   28  C   UNL     1     -41.154  54.916 -50.002  1.00  0.00     0.105 A 
HETATM   29  O   UNL     1     -40.256  53.031 -49.103  1.00  0.00    -0.323 OA
HETATM   30  O   UNL     1     -41.083  55.260 -48.688  1.00  0.00    -0.323 OA
HETATM   31  C   UNL     1     -41.628  55.713 -51.020  1.00  0.00     0.040 A 
HETATM   32  C   UNL     1     -40.496  54.067 -48.127  1.00  0.00     0.352 A 
HETATM   33  C   UNL     1     -41.614  55.188 -52.316  1.00  0.00     0.012 A 
ENDBRANCH  24  25
ENDBRANCH  21  24
ENDBRANCH  17  20
ENDBRANCH  13  14
ENDBRANCH   4  13
BRANCH   1  34
HETATM   34  C   UNL     1     -44.984  62.196 -56.405  1.00  0.00     0.237 C 
BRANCH  34  35
HETATM   35  C   UNL     1     -44.633  61.434 -55.127  1.00  0.00     0.240 C 
HETATM   36  N   UNL     1     -43.311  61.541 -54.742  1.00  0.00    -0.326 N 
HETATM   37  H   UNL     1     -42.716  62.114 -55.329  1.00  0.00     0.169 HD
HETATM   38  O   UNL     1     -45.485  60.716 -54.607  1.00  0.00    -0.271 OA
BRANCH  36  39
HETATM   39  C   UNL     1     -42.690  60.894 -53.651  1.00  0.00     0.034 A 
HETATM   40  C   UNL     1     -41.772  59.850 -53.781  1.00  0.00     0.030 A 
HETATM   41  C   UNL     1     -41.184  59.267 -52.653  1.00  0.00     0.009 A 
HETATM   42  C   UNL     1     -41.501  59.721 -51.371  1.00  0.00    -0.062 A 
HETATM   43  C   UNL     1     -40.886  59.085 -50.160  1.00  0.00     0.048 C 
HETATM   44  C   UNL     1     -42.435  60.753 -51.235  1.00  0.00     0.009 A 
HETATM   45  C   UNL     1     -43.019  61.337 -52.365  1.00  0.00     0.030 A 
ENDBRANCH  36  39
ENDBRANCH  34  35
ENDBRANCH   1  34
TORSDOF 8
ENDMDL
MODEL 8
REMARK VINA RESULT:      -8.7      4.747     10.867
REMARK  8 active torsions:
REMARK  status: ('A' for Active; 'I' for Inactive)
REMARK    1  A    between atoms: C_5  and  N_6 
REMARK       I    between atoms: N_6  and  C_7 
REMARK    2  A    between atoms: C_7  and  C_8 
REMARK    3  A    between atoms: C_8  and  N_9 
REMARK    4  A    between atoms: N_12  and  C_13 
REMARK    5  A    between atoms: C_13  and  C_14 
REMARK    6  A    between atoms: C_17  and  C_18 
REMARK       I    between atoms: C_18  and  N_19 
REMARK    7  A    between atoms: N_19  and  C_20 
REMARK    8  A    between atoms: C_20  and  C_21 
ROOT
HETATM    1  N   UNL     1     -42.904  59.158 -55.848  1.00  0.00    -0.290 N 
HETATM    2  C   UNL     1     -42.229  59.685 -54.753  1.00  0.00     0.332 C 
HETATM    3  O   UNL     1     -42.151  60.904 -54.593  1.00  0.00    -0.246 OA
HETATM    4  N   UNL     1     -41.681  58.781 -53.855  1.00  0.00    -0.261 N 
HETATM    5  C   UNL     1     -41.710  57.402 -54.018  1.00  0.00     0.264 C 
HETATM    6  O   UNL     1     -41.391  56.595 -53.147  1.00  0.00    -0.267 OA
HETATM    7  C   UNL     1     -42.209  56.896 -55.305  1.00  0.00     0.059 A 
HETATM    8  C   UNL     1     -42.838  57.778 -56.181  1.00  0.00     0.055 A 
HETATM    9  C   UNL     1     -42.114  55.527 -55.596  1.00  0.00     0.019 A 
HETATM   10  C   UNL     1     -42.649  55.029 -56.779  1.00  0.00     0.001 A 
HETATM   11  C   UNL     1     -43.286  55.895 -57.662  1.00  0.00     0.002 A 
HETATM   12  C   UNL     1     -43.383  57.260 -57.365  1.00  0.00     0.031 A 
ENDROOT
BRANCH   4  13
HETATM   13  C   UNL     1     -41.281  59.286 -52.548  1.00  0.00     0.175 C 
BRANCH  13  14
HETATM   14  C   UNL     1     -42.419  59.768 -51.675  1.00  0.00    -0.040 A 
HETATM   15  C   UNL     1     -43.679  59.157 -51.722  1.00  0.00     0.010 A 
HETATM   16  C   UNL     1     -44.692  59.544 -50.833  1.00  0.00     0.017 A 
HETATM   17  C   UNL     1     -44.459  60.560 -49.895  1.00  0.00     0.032 A 
HETATM   18  C   UNL     1     -43.209  61.186 -49.865  1.00  0.00     0.017 A 
HETATM   19  C   UNL     1     -42.202  60.799 -50.749  1.00  0.00     0.010 A 
BRANCH  17  20
HETATM   20  C   UNL     1     -45.462  60.968 -48.868  1.00  0.00     0.251 C 
HETATM   21  N   UNL     1     -45.175  60.670 -47.555  1.00  0.00    -0.353 N 
HETATM   22  H   UNL     1     -44.392  60.080 -47.322  1.00  0.00     0.163 HD
HETATM   23  O   UNL     1     -46.494  61.530 -49.216  1.00  0.00    -0.268 OA
BRANCH  21  24
HETATM   24  C   UNL     1     -46.081  61.026 -46.484  1.00  0.00     0.161 C 
BRANCH  24  25
HETATM   25  C   UNL     1     -45.459  62.038 -45.554  1.00  0.00    -0.038 A 
HETATM   26  C   UNL     1     -44.566  61.627 -44.552  1.00  0.00     0.048 A 
HETATM   27  C   UNL     1     -44.005  62.593 -43.743  1.00  0.00     0.105 A 
HETATM   28  C   UNL     1     -44.300  63.928 -43.895  1.00  0.00     0.105 A 
HETATM   29  O   UNL     1     -43.122  62.368 -42.734  1.00  0.00    -0.323 OA
HETATM   30  O   UNL     1     -43.640  64.710 -42.999  1.00  0.00    -0.323 OA
HETATM   31  C   UNL     1     -45.170  64.372 -44.867  1.00  0.00     0.040 A 
HETATM   32  C   UNL     1     -42.882  63.716 -42.279  1.00  0.00     0.352 A 
HETATM   33  C   UNL     1     -45.749  63.415 -45.705  1.00  0.00     0.012 A 
ENDBRANCH  24  25
ENDBRANCH  21  24
ENDBRANCH  17  20
ENDBRANCH  13  14
ENDBRANCH   4  13
BRANCH   1  34
HETATM   34  C   UNL     1     -43.832  60.039 -56.567  1.00  0.00     0.237 C 
BRANCH  34  35
HETATM   35  C   UNL     1     -43.218  61.112 -57.467  1.00  0.00     0.240 C 
HETATM   36  N   UNL     1     -42.132  60.687 -58.206  1.00  0.00    -0.326 N 
HETATM   37  H   UNL     1     -41.861  59.717 -58.089  1.00  0.00     0.169 HD
HETATM   38  O   UNL     1     -43.642  62.264 -57.397  1.00  0.00    -0.271 OA
BRANCH  36  39
HETATM   39  C   UNL     1     -41.329  61.470 -59.064  1.00  0.00     0.034 A 
HETATM   40  C   UNL     1     -40.257  62.252 -58.631  1.00  0.00     0.030 A 
HETATM   41  C   UNL     1     -39.495  62.992 -59.543  1.00  0.00     0.009 A 
HETATM   42  C   UNL     1     -39.789  62.959 -60.907  1.00  0.00    -0.062 A 
HETATM   43  C   UNL     1     -38.986  63.765 -61.883  1.00  0.00     0.048 C 
HETATM   44  C   UNL     1     -40.875  62.192 -61.343  1.00  0.00     0.009 A 
HETATM   45  C   UNL     1     -41.634  61.451 -60.429  1.00  0.00     0.030 A 
ENDBRANCH  36  39
ENDBRANCH  34  35
ENDBRANCH   1  34
TORSDOF 8
ENDMDL
MODEL 9
REMARK VINA RESULT:      -8.7      3.562      6.372
REMARK  8 active torsions:
REMARK  status: ('A' for Active; 'I' for Inactive)
REMARK    1  A    between atoms: C_5  and  N_6 
REMARK       I    between atoms: N_6  and  C_7 
REMARK    2  A    between atoms: C_7  and  C_8 
REMARK    3  A    between atoms: C_8  and  N_9 
REMARK    4  A    between atoms: N_12  and  C_13 
REMARK    5  A    between atoms: C_13  and  C_14 
REMARK    6  A    between atoms: C_17  and  C_18 
REMARK       I    between atoms: C_18  and  N_19 
REMARK    7  A    between atoms: N_19  and  C_20 
REMARK    8  A    between atoms: C_20  and  C_21 
ROOT
HETATM    1  N   UNL     1     -44.313  61.326 -55.301  1.00  0.00    -0.290 N 
HETATM    2  C   UNL     1     -43.170  60.737 -54.775  1.00  0.00     0.332 C 
HETATM    3  O   UNL     1     -42.289  60.304 -55.520  1.00  0.00    -0.246 OA
HETATM    4  N   UNL     1     -43.066  60.686 -53.393  1.00  0.00    -0.261 N 
HETATM    5  C   UNL     1     -44.051  61.124 -52.518  1.00  0.00     0.264 C 
HETATM    6  O   UNL     1     -43.895  61.250 -51.305  1.00  0.00    -0.267 OA
HETATM    7  C   UNL     1     -45.341  61.507 -53.110  1.00  0.00     0.059 A 
HETATM    8  C   UNL     1     -45.438  61.644 -54.493  1.00  0.00     0.055 A 
HETATM    9  C   UNL     1     -46.428  61.802 -52.273  1.00  0.00     0.019 A 
HETATM   10  C   UNL     1     -47.630  62.236 -52.821  1.00  0.00     0.001 A 
HETATM   11  C   UNL     1     -47.742  62.384 -54.200  1.00  0.00     0.002 A 
HETATM   12  C   UNL     1     -46.653  62.094 -55.031  1.00  0.00     0.031 A 
ENDROOT
BRANCH   4  13
HETATM   13  C   UNL     1     -41.754  60.399 -52.825  1.00  0.00     0.175 C 
BRANCH  13  14
HETATM   14  C   UNL     1     -41.667  59.103 -52.049  1.00  0.00    -0.040 A 
HETATM   15  C   UNL     1     -41.773  57.862 -52.692  1.00  0.00     0.010 A 
HETATM   16  C   UNL     1     -41.583  56.671 -51.976  1.00  0.00     0.017 A 
HETATM   17  C   UNL     1     -41.299  56.708 -50.604  1.00  0.00     0.032 A 
HETATM   18  C   UNL     1     -41.217  57.946 -49.958  1.00  0.00     0.017 A 
HETATM   19  C   UNL     1     -41.405  59.130 -50.671  1.00  0.00     0.010 A 
BRANCH  17  20
HETATM   20  C   UNL     1     -41.008  55.486 -49.798  1.00  0.00     0.251 C 
HETATM   21  N   UNL     1     -40.800  54.313 -50.486  1.00  0.00    -0.353 N 
HETATM   22  H   UNL     1     -40.977  54.261 -51.477  1.00  0.00     0.163 HD
HETATM   23  O   UNL     1     -40.979  55.558 -48.574  1.00  0.00    -0.268 OA
BRANCH  21  24
HETATM   24  C   UNL     1     -40.508  53.074 -49.797  1.00  0.00     0.161 C 
BRANCH  24  25
HETATM   25  C   UNL     1     -40.207  51.963 -50.771  1.00  0.00    -0.038 A 
HETATM   26  C   UNL     1     -40.185  52.215 -52.152  1.00  0.00     0.048 A 
HETATM   27  C   UNL     1     -39.880  51.171 -53.000  1.00  0.00     0.105 A 
HETATM   28  C   UNL     1     -39.604  49.909 -52.528  1.00  0.00     0.105 A 
HETATM   29  O   UNL     1     -39.811  51.245 -54.356  1.00  0.00    -0.323 OA
HETATM   30  O   UNL     1     -39.328  49.030 -53.529  1.00  0.00    -0.323 OA
HETATM   31  C   UNL     1     -39.614  49.621 -51.181  1.00  0.00     0.040 A 
HETATM   32  C   UNL     1     -39.443  49.889 -54.683  1.00  0.00     0.352 A 
HETATM   33  C   UNL     1     -39.914  50.662 -50.297  1.00  0.00     0.012 A 
ENDBRANCH  24  25
ENDBRANCH  21  24
ENDBRANCH  17  20
ENDBRANCH  13  14
ENDBRANCH   4  13
BRANCH   1  34
HETATM   34  C   UNL     1     -44.271  61.771 -56.700  1.00  0.00     0.237 C 
BRANCH  34  35
HETATM   35  C   UNL     1     -44.223  60.685 -57.776  1.00  0.00     0.240 C 
HETATM   36  N   UNL     1     -44.808  59.490 -57.409  1.00  0.00    -0.326 N 
HETATM   37  H   UNL     1     -45.215  59.455 -56.481  1.00  0.00     0.169 HD
HETATM   38  O   UNL     1     -43.596  60.899 -58.812  1.00  0.00    -0.271 OA
BRANCH  36  39
HETATM   39  C   UNL     1     -44.852  58.298 -58.165  1.00  0.00     0.034 A 
HETATM   40  C   UNL     1     -45.908  57.945 -59.007  1.00  0.00     0.030 A 
HETATM   41  C   UNL     1     -45.874  56.752 -59.738  1.00  0.00     0.009 A 
HETATM   42  C   UNL     1     -44.779  55.891 -59.643  1.00  0.00    -0.062 A 
HETATM   43  C   UNL     1     -44.750  54.603 -60.412  1.00  0.00     0.048 C 
HETATM   44  C   UNL     1     -43.728  56.231 -58.786  1.00  0.00     0.009 A 
HETATM   45  C   UNL     1     -43.763  57.426 -58.058  1.00  0.00     0.030 A 
ENDBRANCH  36  39
ENDBRANCH  34  35
ENDBRANCH   1  34
TORSDOF 8
ENDMDL
MODEL 10
REMARK VINA RESULT:      -8.6      4.786      9.762
REMARK  8 active torsions:
REMARK  status: ('A' for Active; 'I' for Inactive)
REMARK    1  A    between atoms: C_5  and  N_6 
REMARK       I    between atoms: N_6  and  C_7 
REMARK    2  A    between atoms: C_7  and  C_8 
REMARK    3  A    between atoms: C_8  and  N_9 
REMARK    4  A    between atoms: N_12  and  C_13 
REMARK    5  A    between atoms: C_13  and  C_14 
REMARK    6  A    between atoms: C_17  and  C_18 
REMARK       I    between atoms: C_18  and  N_19 
REMARK    7  A    between atoms: N_19  and  C_20 
REMARK    8  A    between atoms: C_20  and  C_21 
ROOT
HETATM    1  N   UNL     1     -40.476  54.633 -53.644  1.00  0.00    -0.290 N 
HETATM    2  C   UNL     1     -40.721  55.700 -52.788  1.00  0.00     0.332 C 
HETATM    3  O   UNL     1     -40.722  56.857 -53.213  1.00  0.00    -0.246 OA
HETATM    4  N   UNL     1     -40.985  55.396 -51.461  1.00  0.00    -0.261 N 
HETATM    5  C   UNL     1     -40.954  54.112 -50.932  1.00  0.00     0.264 C 
HETATM    6  O   UNL     1     -41.359  53.815 -49.810  1.00  0.00    -0.267 OA
HETATM    7  C   UNL     1     -40.448  53.045 -51.809  1.00  0.00     0.059 A 
HETATM    8  C   UNL     1     -40.260  53.314 -53.163  1.00  0.00     0.055 A 
HETATM    9  C   UNL     1     -40.239  51.760 -51.287  1.00  0.00     0.019 A 
HETATM   10  C   UNL     1     -39.832  50.727 -52.125  1.00  0.00     0.001 A 
HETATM   11  C   UNL     1     -39.644  50.977 -53.480  1.00  0.00     0.002 A 
HETATM   12  C   UNL     1     -39.860  52.260 -53.998  1.00  0.00     0.031 A 
ENDROOT
BRANCH   4  13
HETATM   13  C   UNL     1     -41.575  56.440 -50.633  1.00  0.00     0.175 C 
BRANCH  13  14
HETATM   14  C   UNL     1     -42.406  57.456 -51.386  1.00  0.00    -0.040 A 
HETATM   15  C   UNL     1     -41.994  58.791 -51.500  1.00  0.00     0.010 A 
HETATM   16  C   UNL     1     -42.719  59.694 -52.290  1.00  0.00     0.017 A 
HETATM   17  C   UNL     1     -43.874  59.276 -52.965  1.00  0.00     0.032 A 
HETATM   18  C   UNL     1     -44.298  57.949 -52.831  1.00  0.00     0.017 A 
HETATM   19  C   UNL     1     -43.575  57.051 -52.046  1.00  0.00     0.010 A 
BRANCH  17  20
HETATM   20  C   UNL     1     -44.649  60.160 -53.884  1.00  0.00     0.251 C 
HETATM   21  N   UNL     1     -43.943  60.823 -54.862  1.00  0.00    -0.353 N 
HETATM   22  H   UNL     1     -42.935  60.816 -54.862  1.00  0.00     0.163 HD
HETATM   23  O   UNL     1     -45.859  60.280 -53.735  1.00  0.00    -0.268 OA
BRANCH  21  24
HETATM   24  C   UNL     1     -44.601  61.702 -55.806  1.00  0.00     0.161 C 
BRANCH  24  25
HETATM   25  C   UNL     1     -44.292  61.309 -57.229  1.00  0.00    -0.038 A 
HETATM   26  C   UNL     1     -43.106  60.623 -57.535  1.00  0.00     0.048 A 
HETATM   27  C   UNL     1     -42.882  60.264 -58.847  1.00  0.00     0.105 A 
HETATM   28  C   UNL     1     -43.780  60.562 -59.845  1.00  0.00     0.105 A 
HETATM   29  O   UNL     1     -41.792  59.596 -59.311  1.00  0.00    -0.323 OA
HETATM   30  O   UNL     1     -43.368  60.118 -61.063  1.00  0.00    -0.323 OA
HETATM   31  C   UNL     1     -44.955  61.231 -59.586  1.00  0.00     0.040 A 
HETATM   32  C   UNL     1     -42.116  59.491 -60.713  1.00  0.00     0.352 A 
HETATM   33  C   UNL     1     -45.213  61.602 -58.263  1.00  0.00     0.012 A 
ENDBRANCH  24  25
ENDBRANCH  21  24
ENDBRANCH  17  20
ENDBRANCH  13  14
ENDBRANCH   4  13
BRANCH   1  34
HETATM   34  C   UNL     1     -40.612  54.870 -55.087  1.00  0.00     0.237 C 
BRANCH  34  35
HETATM   35  C   UNL     1     -42.020  55.129 -55.622  1.00  0.00     0.240 C 
HETATM   36  N   UNL     1     -42.109  56.178 -56.516  1.00  0.00    -0.326 N 
HETATM   37  H   UNL     1     -41.244  56.657 -56.734  1.00  0.00     0.169 HD
HETATM   38  O   UNL     1     -42.962  54.488 -55.159  1.00  0.00    -0.271 OA
BRANCH  36  39
HETATM   39  C   UNL     1     -43.283  56.687 -57.114  1.00  0.00     0.034 A 
HETATM   40  C   UNL     1     -43.609  56.518 -58.461  1.00  0.00     0.030 A 
HETATM   41  C   UNL     1     -44.800  57.038 -58.981  1.00  0.00     0.009 A 
HETATM   42  C   UNL     1     -45.689  57.735 -58.161  1.00  0.00    -0.062 A 
HETATM   43  C   UNL     1     -46.956  58.310 -58.721  1.00  0.00     0.048 C 
HETATM   44  C   UNL     1     -45.357  57.924 -56.816  1.00  0.00     0.009 A 
HETATM   45  C   UNL     1     -44.167  57.400 -56.297  1.00  0.00     0.030 A 
ENDBRANCH  36  39
ENDBRANCH  34  35
ENDBRANCH   1  34
TORSDOF 8
ENDMDL
