MODEL 1
REMARK VINA RESULT:      -7.6      0.000      0.000
REMARK  7 active torsions:
REMARK  status: ('A' for Active; 'I' for Inactive)
REMARK    1  A    between atoms: N_3  and  C_4 
REMARK    2  A    between atoms: C_12  and  C_13 
REMARK       I    between atoms: C_13  and  N_14 
REMARK    3  A    between atoms: N_14  and  C_15 
REMARK    4  A    between atoms: C_15  and  C_16 
REMARK    5  A    between atoms: C_16  and  O_17 
REMARK    6  A    between atoms: C_16  and  C_18 
REMARK    7  A    between atoms: C_21  and  O_22 
ROOT
HETATM    1  C   UNL     1     -43.596  56.786 -52.669  1.00  0.00     0.255 C 
HETATM    2  N   UNL     1     -43.453  55.491 -52.235  1.00  0.00    -0.350 N 
HETATM    3  O   UNL     1     -43.569  57.738 -51.894  1.00  0.00    -0.268 OA
HETATM    4  H   UNL     1     -43.499  54.723 -52.888  1.00  0.00     0.163 HD
ENDROOT
BRANCH   2   5
HETATM    5  C   UNL     1     -43.353  55.159 -50.808  1.00  0.00     0.114 C 
HETATM    6  C   UNL     1     -44.211  53.925 -50.514  1.00  0.00     0.035 C 
BRANCH   5   7
HETATM    7  C   UNL     1     -41.862  54.985 -50.403  1.00  0.00     0.173 C 
BRANCH   7   8
HETATM    8  O   UNL     1     -41.142  56.212 -50.561  1.00  0.00    -0.389 OA
HETATM    9  H   UNL     1     -40.350  56.008 -51.088  1.00  0.00     0.210 HD
ENDBRANCH   7   8
BRANCH   7  10
HETATM   10  C   UNL     1     -41.171  53.838 -51.115  1.00  0.00    -0.028 A 
HETATM   11  C   UNL     1     -41.056  53.866 -52.512  1.00  0.00     0.012 A 
HETATM   12  C   UNL     1     -40.399  52.839 -53.193  1.00  0.00     0.037 A 
HETATM   13  C   UNL     1     -39.835  51.770 -52.497  1.00  0.00     0.068 A 
HETATM   14  C   UNL     1     -39.947  51.729 -51.107  1.00  0.00     0.037 A 
HETATM   15  C   UNL     1     -40.610  52.755 -50.422  1.00  0.00     0.012 A 
BRANCH  13  16
HETATM   16  O   UNL     1     -39.214  50.841 -53.285  1.00  0.00    -0.356 OA
HETATM   17  C   UNL     1     -40.007  50.206 -54.277  1.00  0.00     0.210 C 
ENDBRANCH  13  16
ENDBRANCH   7  10
ENDBRANCH   5   7
ENDBRANCH   2   5
BRANCH   1  18
HETATM   18  C   UNL     1     -43.724  56.996 -54.105  1.00  0.00     0.075 C 
HETATM   19  C   UNL     1     -42.901  56.685 -55.187  1.00  0.00     0.051 C 
HETATM   20  C   UNL     1     -41.627  55.920 -55.267  1.00  0.00     0.071 C 
HETATM   21  N   UNL     1     -43.526  57.224 -56.319  1.00  0.00    -0.220 N 
HETATM   22  N   UNL     1     -44.769  57.693 -56.021  1.00  0.00    -0.177 NA
HETATM   23  C   UNL     1     -44.863  57.576 -54.702  1.00  0.00     0.158 C 
BRANCH  21  24
HETATM   24  C   UNL     1     -43.024  57.336 -57.663  1.00  0.00     0.150 A 
HETATM   25  N   UNL     1     -42.523  58.526 -58.093  1.00  0.00    -0.241 NA
HETATM   26  C   UNL     1     -42.082  58.591 -59.369  1.00  0.00     0.119 A 
HETATM   27  C   UNL     1     -42.107  57.526 -60.252  1.00  0.00     0.019 A 
HETATM   28  C   UNL     1     -42.623  56.318 -59.805  1.00  0.00     0.005 A 
HETATM   29  C   UNL     1     -43.092  56.218 -58.497  1.00  0.00     0.052 A 
ENDBRANCH  21  24
ENDBRANCH   1  18
TORSDOF 7
ENDMDL
MODEL 2
REMARK VINA RESULT:      -7.5      3.680      5.834
REMARK  7 active torsions:
REMARK  status: ('A' for Active; 'I' for Inactive)
REMARK    1  A    between atoms: N_3  and  C_4 
REMARK    2  A    between atoms: C_12  and  C_13 
REMARK       I    between atoms: C_13  and  N_14 
REMARK    3  A    between atoms: N_14  and  C_15 
REMARK    4  A    between atoms: C_15  and  C_16 
REMARK    5  A    between atoms: C_16  and  O_17 
REMARK    6  A    between atoms: C_16  and  C_18 
REMARK    7  A    between atoms: C_21  and  O_22 
ROOT
HETATM    1  C   UNL     1     -43.141  56.455 -52.469  1.00  0.00     0.255 C 
HETATM    2  N   UNL     1     -42.899  56.164 -53.790  1.00  0.00    -0.350 N 
HETATM    3  O   UNL     1     -42.965  55.627 -51.579  1.00  0.00    -0.268 OA
HETATM    4  H   UNL     1     -43.072  56.853 -54.507  1.00  0.00     0.163 HD
ENDROOT
BRANCH   2   5
HETATM    5  C   UNL     1     -42.507  54.818 -54.228  1.00  0.00     0.114 C 
HETATM    6  C   UNL     1     -43.126  54.531 -55.599  1.00  0.00     0.035 C 
BRANCH   5   7
HETATM    7  C   UNL     1     -40.959  54.680 -54.209  1.00  0.00     0.173 C 
BRANCH   7   8
HETATM    8  O   UNL     1     -40.408  54.909 -55.510  1.00  0.00    -0.389 OA
HETATM    9  H   UNL     1     -40.158  55.849 -55.550  1.00  0.00     0.210 HD
ENDBRANCH   7   8
BRANCH   7  10
HETATM   10  C   UNL     1     -40.475  53.368 -53.622  1.00  0.00    -0.028 A 
HETATM   11  C   UNL     1     -40.309  53.255 -52.235  1.00  0.00     0.012 A 
HETATM   12  C   UNL     1     -39.892  52.051 -51.664  1.00  0.00     0.037 A 
HETATM   13  C   UNL     1     -39.642  50.933 -52.460  1.00  0.00     0.068 A 
HETATM   14  C   UNL     1     -39.800  51.035 -53.842  1.00  0.00     0.037 A 
HETATM   15  C   UNL     1     -40.212  52.244 -54.419  1.00  0.00     0.012 A 
BRANCH  13  16
HETATM   16  O   UNL     1     -39.252  49.819 -51.771  1.00  0.00    -0.356 OA
HETATM   17  C   UNL     1     -39.797  49.643 -50.471  1.00  0.00     0.210 C 
ENDBRANCH  13  16
ENDBRANCH   7  10
ENDBRANCH   5   7
ENDBRANCH   2   5
BRANCH   1  18
HETATM   18  C   UNL     1     -43.561  57.813 -52.153  1.00  0.00     0.075 C 
HETATM   19  C   UNL     1     -42.963  58.850 -51.440  1.00  0.00     0.051 C 
HETATM   20  C   UNL     1     -41.613  58.972 -50.827  1.00  0.00     0.071 C 
HETATM   21  N   UNL     1     -43.901  59.890 -51.403  1.00  0.00    -0.220 N 
HETATM   22  N   UNL     1     -44.970  59.619 -52.201  1.00  0.00    -0.177 NA
HETATM   23  C   UNL     1     -44.769  58.375 -52.619  1.00  0.00     0.158 C 
BRANCH  21  24
HETATM   24  C   UNL     1     -43.862  61.118 -50.655  1.00  0.00     0.150 A 
HETATM   25  N   UNL     1     -44.515  61.198 -49.464  1.00  0.00    -0.241 NA
HETATM   26  C   UNL     1     -44.469  62.378 -48.806  1.00  0.00     0.119 A 
HETATM   27  C   UNL     1     -43.799  63.497 -49.269  1.00  0.00     0.019 A 
HETATM   28  C   UNL     1     -43.139  63.407 -50.487  1.00  0.00     0.005 A 
HETATM   29  C   UNL     1     -43.171  62.206 -51.194  1.00  0.00     0.052 A 
ENDBRANCH  21  24
ENDBRANCH   1  18
TORSDOF 7
ENDMDL
MODEL 3
REMARK VINA RESULT:      -7.4      1.674      2.041
REMARK  7 active torsions:
REMARK  status: ('A' for Active; 'I' for Inactive)
REMARK    1  A    between atoms: N_3  and  C_4 
REMARK    2  A    between atoms: C_12  and  C_13 
REMARK       I    between atoms: C_13  and  N_14 
REMARK    3  A    between atoms: N_14  and  C_15 
REMARK    4  A    between atoms: C_15  and  C_16 
REMARK    5  A    between atoms: C_16  and  O_17 
REMARK    6  A    between atoms: C_16  and  C_18 
REMARK    7  A    between atoms: C_21  and  O_22 
ROOT
HETATM    1  C   UNL     1     -41.433  57.111 -53.817  1.00  0.00     0.255 C 
HETATM    2  N   UNL     1     -42.039  56.427 -52.792  1.00  0.00    -0.350 N 
HETATM    3  O   UNL     1     -40.264  57.481 -53.750  1.00  0.00    -0.268 OA
HETATM    4  H   UNL     1     -43.007  56.151 -52.861  1.00  0.00     0.163 HD
ENDROOT
BRANCH   2   5
HETATM    5  C   UNL     1     -41.356  56.179 -51.515  1.00  0.00     0.114 C 
HETATM    6  C   UNL     1     -41.679  57.314 -50.540  1.00  0.00     0.035 C 
BRANCH   5   7
HETATM    7  C   UNL     1     -41.732  54.772 -50.973  1.00  0.00     0.173 C 
BRANCH   7   8
HETATM    8  O   UNL     1     -41.547  54.704 -49.555  1.00  0.00    -0.389 OA
HETATM    9  H   UNL     1     -41.132  53.844 -49.366  1.00  0.00     0.210 HD
ENDBRANCH   7   8
BRANCH   7  10
HETATM   10  C   UNL     1     -41.017  53.638 -51.683  1.00  0.00    -0.028 A 
HETATM   11  C   UNL     1     -41.250  53.427 -53.048  1.00  0.00     0.012 A 
HETATM   12  C   UNL     1     -40.585  52.409 -53.736  1.00  0.00     0.037 A 
HETATM   13  C   UNL     1     -39.669  51.588 -53.079  1.00  0.00     0.068 A 
HETATM   14  C   UNL     1     -39.432  51.785 -51.719  1.00  0.00     0.037 A 
HETATM   15  C   UNL     1     -40.102  52.802 -51.026  1.00  0.00     0.012 A 
BRANCH  13  16
HETATM   16  O   UNL     1     -39.083  50.641 -53.872  1.00  0.00    -0.356 OA
HETATM   17  C   UNL     1     -39.952  49.802 -54.621  1.00  0.00     0.210 C 
ENDBRANCH  13  16
ENDBRANCH   7  10
ENDBRANCH   5   7
ENDBRANCH   2   5
BRANCH   1  18
HETATM   18  C   UNL     1     -42.217  57.332 -55.024  1.00  0.00     0.075 C 
HETATM   19  C   UNL     1     -42.841  56.468 -55.923  1.00  0.00     0.051 C 
HETATM   20  C   UNL     1     -43.018  54.991 -55.906  1.00  0.00     0.071 C 
HETATM   21  N   UNL     1     -43.366  57.276 -56.940  1.00  0.00    -0.220 N 
HETATM   22  N   UNL     1     -43.253  58.597 -56.629  1.00  0.00    -0.177 NA
HETATM   23  C   UNL     1     -42.548  58.617 -55.505  1.00  0.00     0.158 C 
BRANCH  21  24
HETATM   24  C   UNL     1     -43.956  56.885 -58.192  1.00  0.00     0.150 A 
HETATM   25  N   UNL     1     -45.202  57.330 -58.514  1.00  0.00    -0.241 NA
HETATM   26  C   UNL     1     -45.725  56.921 -59.691  1.00  0.00     0.119 A 
HETATM   27  C   UNL     1     -45.071  56.086 -60.580  1.00  0.00     0.019 A 
HETATM   28  C   UNL     1     -43.803  55.635 -60.243  1.00  0.00     0.005 A 
HETATM   29  C   UNL     1     -43.236  56.034 -59.033  1.00  0.00     0.052 A 
ENDBRANCH  21  24
ENDBRANCH   1  18
TORSDOF 7
ENDMDL
MODEL 4
REMARK VINA RESULT:      -7.4      4.158      9.234
REMARK  7 active torsions:
REMARK  status: ('A' for Active; 'I' for Inactive)
REMARK    1  A    between atoms: N_3  and  C_4 
REMARK    2  A    between atoms: C_12  and  C_13 
REMARK       I    between atoms: C_13  and  N_14 
REMARK    3  A    between atoms: N_14  and  C_15 
REMARK    4  A    between atoms: C_15  and  C_16 
REMARK    5  A    between atoms: C_16  and  O_17 
REMARK    6  A    between atoms: C_16  and  C_18 
REMARK    7  A    between atoms: C_21  and  O_22 
ROOT
HETATM    1  C   UNL     1     -43.126  56.076 -56.414  1.00  0.00     0.255 C 
HETATM    2  N   UNL     1     -43.354  55.393 -57.585  1.00  0.00    -0.350 N 
HETATM    3  O   UNL     1     -43.253  57.294 -56.337  1.00  0.00    -0.268 OA
HETATM    4  H   UNL     1     -43.223  54.394 -57.630  1.00  0.00     0.163 HD
ENDROOT
BRANCH   2   5
HETATM    5  C   UNL     1     -43.669  56.090 -58.839  1.00  0.00     0.114 C 
HETATM    6  C   UNL     1     -42.425  56.116 -59.730  1.00  0.00     0.035 C 
BRANCH   5   7
HETATM    7  C   UNL     1     -44.903  55.433 -59.519  1.00  0.00     0.173 C 
BRANCH   7   8
HETATM    8  O   UNL     1     -44.497  54.439 -60.465  1.00  0.00    -0.389 OA
HETATM    9  H   UNL     1     -43.620  54.124 -60.185  1.00  0.00     0.210 HD
ENDBRANCH   7   8
BRANCH   7  10
HETATM   10  C   UNL     1     -45.858  56.436 -60.139  1.00  0.00    -0.028 A 
HETATM   11  C   UNL     1     -46.894  55.977 -60.965  1.00  0.00     0.012 A 
HETATM   12  C   UNL     1     -47.806  56.873 -61.527  1.00  0.00     0.037 A 
HETATM   13  C   UNL     1     -47.711  58.241 -61.270  1.00  0.00     0.068 A 
HETATM   14  C   UNL     1     -46.681  58.709 -60.454  1.00  0.00     0.037 A 
HETATM   15  C   UNL     1     -45.761  57.813 -59.894  1.00  0.00     0.012 A 
BRANCH  13  16
HETATM   16  O   UNL     1     -48.673  59.002 -61.874  1.00  0.00    -0.356 OA
HETATM   17  C   UNL     1     -49.667  58.310 -62.618  1.00  0.00     0.210 C 
ENDBRANCH  13  16
ENDBRANCH   7  10
ENDBRANCH   5   7
ENDBRANCH   2   5
BRANCH   1  18
HETATM   18  C   UNL     1     -42.784  55.285 -55.240  1.00  0.00     0.075 C 
HETATM   19  C   UNL     1     -41.596  54.706 -54.798  1.00  0.00     0.051 C 
HETATM   20  C   UNL     1     -40.207  54.783 -55.327  1.00  0.00     0.071 C 
HETATM   21  N   UNL     1     -41.918  53.989 -53.639  1.00  0.00    -0.220 N 
HETATM   22  N   UNL     1     -43.198  54.236 -53.245  1.00  0.00    -0.177 NA
HETATM   23  C   UNL     1     -43.708  54.985 -54.216  1.00  0.00     0.158 C 
BRANCH  21  24
HETATM   24  C   UNL     1     -41.104  53.075 -52.883  1.00  0.00     0.150 A 
HETATM   25  N   UNL     1     -41.006  53.223 -51.534  1.00  0.00    -0.241 NA
HETATM   26  C   UNL     1     -40.213  52.355 -50.868  1.00  0.00     0.119 A 
HETATM   27  C   UNL     1     -39.504  51.332 -51.474  1.00  0.00     0.019 A 
HETATM   28  C   UNL     1     -39.608  51.191 -52.850  1.00  0.00     0.005 A 
HETATM   29  C   UNL     1     -40.413  52.073 -53.569  1.00  0.00     0.052 A 
ENDBRANCH  21  24
ENDBRANCH   1  18
TORSDOF 7
ENDMDL
MODEL 5
REMARK VINA RESULT:      -7.4      2.890      7.437
REMARK  7 active torsions:
REMARK  status: ('A' for Active; 'I' for Inactive)
REMARK    1  A    between atoms: N_3  and  C_4 
REMARK    2  A    between atoms: C_12  and  C_13 
REMARK       I    between atoms: C_13  and  N_14 
REMARK    3  A    between atoms: N_14  and  C_15 
REMARK    4  A    between atoms: C_15  and  C_16 
REMARK    5  A    between atoms: C_16  and  O_17 
REMARK    6  A    between atoms: C_16  and  C_18 
REMARK    7  A    between atoms: C_21  and  O_22 
ROOT
HETATM    1  C   UNL     1     -43.233  56.986 -54.432  1.00  0.00     0.255 C 
HETATM    2  N   UNL     1     -42.320  57.917 -54.864  1.00  0.00    -0.350 N 
HETATM    3  O   UNL     1     -44.440  57.132 -54.603  1.00  0.00    -0.268 OA
HETATM    4  H   UNL     1     -41.334  57.786 -54.694  1.00  0.00     0.163 HD
ENDROOT
BRANCH   2   5
HETATM    5  C   UNL     1     -42.737  59.187 -55.472  1.00  0.00     0.114 C 
HETATM    6  C   UNL     1     -42.456  60.332 -54.496  1.00  0.00     0.035 C 
BRANCH   5   7
HETATM    7  C   UNL     1     -42.047  59.370 -56.854  1.00  0.00     0.173 C 
BRANCH   7   8
HETATM    8  O   UNL     1     -42.042  60.747 -57.245  1.00  0.00    -0.389 OA
HETATM    9  H   UNL     1     -42.855  61.145 -56.888  1.00  0.00     0.210 HD
ENDBRANCH   7   8
BRANCH   7  10
HETATM   10  C   UNL     1     -42.624  58.484 -57.941  1.00  0.00    -0.028 A 
HETATM   11  C   UNL     1     -41.786  58.016 -58.963  1.00  0.00     0.012 A 
HETATM   12  C   UNL     1     -42.282  57.175 -59.961  1.00  0.00     0.037 A 
HETATM   13  C   UNL     1     -43.619  56.776 -59.957  1.00  0.00     0.068 A 
HETATM   14  C   UNL     1     -44.463  57.239 -58.948  1.00  0.00     0.037 A 
HETATM   15  C   UNL     1     -43.970  58.087 -57.949  1.00  0.00     0.012 A 
BRANCH  13  16
HETATM   16  O   UNL     1     -43.968  55.945 -60.985  1.00  0.00    -0.356 OA
HETATM   17  C   UNL     1     -45.192  55.237 -60.852  1.00  0.00     0.210 C 
ENDBRANCH  13  16
ENDBRANCH   7  10
ENDBRANCH   5   7
ENDBRANCH   2   5
BRANCH   1  18
HETATM   18  C   UNL     1     -42.708  55.779 -53.810  1.00  0.00     0.075 C 
HETATM   19  C   UNL     1     -41.609  54.967 -54.089  1.00  0.00     0.051 C 
HETATM   20  C   UNL     1     -40.505  55.111 -55.076  1.00  0.00     0.071 C 
HETATM   21  N   UNL     1     -41.678  53.894 -53.190  1.00  0.00    -0.220 N 
HETATM   22  N   UNL     1     -42.654  54.091 -52.261  1.00  0.00    -0.177 NA
HETATM   23  C   UNL     1     -43.273  55.198 -52.655  1.00  0.00     0.158 C 
BRANCH  21  24
HETATM   24  C   UNL     1     -40.892  52.690 -53.156  1.00  0.00     0.150 A 
HETATM   25  N   UNL     1     -40.124  52.421 -52.065  1.00  0.00    -0.241 NA
HETATM   26  C   UNL     1     -39.387  51.289 -52.085  1.00  0.00     0.119 A 
HETATM   27  C   UNL     1     -39.370  50.395 -53.142  1.00  0.00     0.019 A 
HETATM   28  C   UNL     1     -40.154  50.679 -54.252  1.00  0.00     0.005 A 
HETATM   29  C   UNL     1     -40.923  51.841 -54.265  1.00  0.00     0.052 A 
ENDBRANCH  21  24
ENDBRANCH   1  18
TORSDOF 7
ENDMDL
MODEL 6
REMARK VINA RESULT:      -7.3      2.849      3.593
REMARK  7 active torsions:
REMARK  status: ('A' for Active; 'I' for Inactive)
REMARK    1  A    between atoms: N_3  and  C_4 
REMARK    2  A    between atoms: C_12  and  C_13 
REMARK       I    between atoms: C_13  and  N_14 
REMARK    3  A    between atoms: N_14  and  C_15 
REMARK    4  A    between atoms: C_15  and  C_16 
REMARK    5  A    between atoms: C_16  and  O_17 
REMARK    6  A    between atoms: C_16  and  C_18 
REMARK    7  A    between atoms: C_21  and  O_22 
ROOT
HETATM    1  C   UNL     1     -42.922  56.797 -56.058  1.00  0.00     0.255 C 
HETATM    2  N   UNL     1     -43.683  56.394 -54.987  1.00  0.00    -0.350 N 
HETATM    3  O   UNL     1     -41.728  57.058 -55.945  1.00  0.00    -0.268 OA
HETATM    4  H   UNL     1     -44.667  56.206 -55.099  1.00  0.00     0.163 HD
ENDROOT
BRANCH   2   5
HETATM    5  C   UNL     1     -43.136  56.341 -53.625  1.00  0.00     0.114 C 
HETATM    6  C   UNL     1     -43.667  57.530 -52.819  1.00  0.00     0.035 C 
BRANCH   5   7
HETATM    7  C   UNL     1     -43.452  54.965 -52.975  1.00  0.00     0.173 C 
BRANCH   7   8
HETATM    8  O   UNL     1     -43.923  55.128 -51.633  1.00  0.00    -0.389 OA
HETATM    9  H   UNL     1     -44.260  54.261 -51.346  1.00  0.00     0.210 HD
ENDBRANCH   7   8
BRANCH   7  10
HETATM   10  C   UNL     1     -42.298  53.983 -53.045  1.00  0.00    -0.028 A 
HETATM   11  C   UNL     1     -42.031  53.319 -54.250  1.00  0.00     0.012 A 
HETATM   12  C   UNL     1     -40.958  52.432 -54.353  1.00  0.00     0.037 A 
HETATM   13  C   UNL     1     -40.124  52.194 -53.260  1.00  0.00     0.068 A 
HETATM   14  C   UNL     1     -40.382  52.845 -52.054  1.00  0.00     0.037 A 
HETATM   15  C   UNL     1     -41.461  53.732 -51.947  1.00  0.00     0.012 A 
BRANCH  13  16
HETATM   16  O   UNL     1     -39.107  51.312 -53.502  1.00  0.00    -0.356 OA
HETATM   17  C   UNL     1     -39.438  50.128 -54.213  1.00  0.00     0.210 C 
ENDBRANCH  13  16
ENDBRANCH   7  10
ENDBRANCH   5   7
ENDBRANCH   2   5
BRANCH   1  18
HETATM   18  C   UNL     1     -43.578  56.848 -57.357  1.00  0.00     0.075 C 
HETATM   19  C   UNL     1     -44.677  57.558 -57.840  1.00  0.00     0.051 C 
HETATM   20  C   UNL     1     -45.517  58.615 -57.214  1.00  0.00     0.071 C 
HETATM   21  N   UNL     1     -44.883  57.114 -59.152  1.00  0.00    -0.220 N 
HETATM   22  N   UNL     1     -43.869  56.302 -59.563  1.00  0.00    -0.177 NA
HETATM   23  C   UNL     1     -43.117  56.132 -58.482  1.00  0.00     0.158 C 
BRANCH  21  24
HETATM   24  C   UNL     1     -45.978  57.394 -60.041  1.00  0.00     0.150 A 
HETATM   25  N   UNL     1     -46.294  58.687 -60.329  1.00  0.00    -0.241 NA
HETATM   26  C   UNL     1     -47.343  58.903 -61.152  1.00  0.00     0.119 A 
HETATM   27  C   UNL     1     -48.105  57.895 -61.716  1.00  0.00     0.019 A 
HETATM   28  C   UNL     1     -47.778  56.581 -61.415  1.00  0.00     0.005 A 
HETATM   29  C   UNL     1     -46.704  56.322 -60.565  1.00  0.00     0.052 A 
ENDBRANCH  21  24
ENDBRANCH   1  18
TORSDOF 7
ENDMDL
MODEL 7
REMARK VINA RESULT:      -7.0      2.934      6.770
REMARK  7 active torsions:
REMARK  status: ('A' for Active; 'I' for Inactive)
REMARK    1  A    between atoms: N_3  and  C_4 
REMARK    2  A    between atoms: C_12  and  C_13 
REMARK       I    between atoms: C_13  and  N_14 
REMARK    3  A    between atoms: N_14  and  C_15 
REMARK    4  A    between atoms: C_15  and  C_16 
REMARK    5  A    between atoms: C_16  and  O_17 
REMARK    6  A    between atoms: C_16  and  C_18 
REMARK    7  A    between atoms: C_21  and  O_22 
ROOT
HETATM    1  C   UNL     1     -43.801  57.147 -51.073  1.00  0.00     0.255 C 
HETATM    2  N   UNL     1     -43.567  58.429 -51.509  1.00  0.00    -0.350 N 
HETATM    3  O   UNL     1     -44.895  56.799 -50.637  1.00  0.00    -0.268 OA
HETATM    4  H   UNL     1     -42.654  58.699 -51.843  1.00  0.00     0.163 HD
ENDROOT
BRANCH   2   5
HETATM    5  C   UNL     1     -44.582  59.485 -51.392  1.00  0.00     0.114 C 
HETATM    6  C   UNL     1     -44.110  60.532 -50.380  1.00  0.00     0.035 C 
BRANCH   5   7
HETATM    7  C   UNL     1     -44.899  60.079 -52.793  1.00  0.00     0.173 C 
BRANCH   7   8
HETATM    8  O   UNL     1     -46.310  60.236 -52.976  1.00  0.00    -0.389 OA
HETATM    9  H   UNL     1     -46.456  61.154 -53.264  1.00  0.00     0.210 HD
ENDBRANCH   7   8
BRANCH   7  10
HETATM   10  C   UNL     1     -44.272  59.302 -53.936  1.00  0.00    -0.028 A 
HETATM   11  C   UNL     1     -43.003  59.671 -54.403  1.00  0.00     0.012 A 
HETATM   12  C   UNL     1     -42.389  58.957 -55.434  1.00  0.00     0.037 A 
HETATM   13  C   UNL     1     -43.021  57.857 -56.014  1.00  0.00     0.068 A 
HETATM   14  C   UNL     1     -44.287  57.484 -55.561  1.00  0.00     0.037 A 
HETATM   15  C   UNL     1     -44.908  58.202 -54.530  1.00  0.00     0.012 A 
BRANCH  13  16
HETATM   16  O   UNL     1     -42.304  57.244 -57.003  1.00  0.00    -0.356 OA
HETATM   17  C   UNL     1     -43.045  56.586 -58.021  1.00  0.00     0.210 C 
ENDBRANCH  13  16
ENDBRANCH   7  10
ENDBRANCH   5   7
ENDBRANCH   2   5
BRANCH   1  18
HETATM   18  C   UNL     1     -42.711  56.192 -51.203  1.00  0.00     0.075 C 
HETATM   19  C   UNL     1     -42.446  55.171 -52.116  1.00  0.00     0.051 C 
HETATM   20  C   UNL     1     -43.145  54.760 -53.363  1.00  0.00     0.071 C 
HETATM   21  N   UNL     1     -41.282  54.536 -51.663  1.00  0.00    -0.220 N 
HETATM   22  N   UNL     1     -40.719  55.216 -50.627  1.00  0.00    -0.177 NA
HETATM   23  C   UNL     1     -41.589  56.180 -50.347  1.00  0.00     0.158 C 
BRANCH  21  24
HETATM   24  C   UNL     1     -40.671  53.322 -52.136  1.00  0.00     0.150 A 
HETATM   25  N   UNL     1     -40.218  52.406 -51.237  1.00  0.00    -0.241 NA
HETATM   26  C   UNL     1     -39.633  51.291 -51.726  1.00  0.00     0.119 A 
HETATM   27  C   UNL     1     -39.472  51.029 -53.076  1.00  0.00     0.019 A 
HETATM   28  C   UNL     1     -39.934  51.970 -53.985  1.00  0.00     0.005 A 
HETATM   29  C   UNL     1     -40.538  53.134 -53.514  1.00  0.00     0.052 A 
ENDBRANCH  21  24
ENDBRANCH   1  18
TORSDOF 7
ENDMDL
MODEL 8
REMARK VINA RESULT:      -6.9     14.891     18.236
REMARK  7 active torsions:
REMARK  status: ('A' for Active; 'I' for Inactive)
REMARK    1  A    between atoms: N_3  and  C_4 
REMARK    2  A    between atoms: C_12  and  C_13 
REMARK       I    between atoms: C_13  and  N_14 
REMARK    3  A    between atoms: N_14  and  C_15 
REMARK    4  A    between atoms: C_15  and  C_16 
REMARK    5  A    between atoms: C_16  and  O_17 
REMARK    6  A    between atoms: C_16  and  C_18 
REMARK    7  A    between atoms: C_21  and  O_22 
ROOT
HETATM    1  C   UNL     1     -35.929  41.773 -52.982  1.00  0.00     0.255 C 
HETATM    2  N   UNL     1     -36.217  41.250 -54.219  1.00  0.00    -0.350 N 
HETATM    3  O   UNL     1     -35.636  42.955 -52.828  1.00  0.00    -0.268 OA
HETATM    4  H   UNL     1     -36.434  40.271 -54.324  1.00  0.00     0.163 HD
ENDROOT
BRANCH   2   5
HETATM    5  C   UNL     1     -36.097  42.050 -55.445  1.00  0.00     0.114 C 
HETATM    6  C   UNL     1     -35.004  41.453 -56.336  1.00  0.00     0.035 C 
BRANCH   5   7
HETATM    7  C   UNL     1     -37.479  42.156 -56.150  1.00  0.00     0.173 C 
BRANCH   7   8
HETATM    8  O   UNL     1     -38.531  41.722 -55.282  1.00  0.00    -0.389 OA
HETATM    9  H   UNL     1     -38.111  41.238 -54.550  1.00  0.00     0.210 HD
ENDBRANCH   7   8
BRANCH   7  10
HETATM   10  C   UNL     1     -37.532  41.445 -57.489  1.00  0.00    -0.028 A 
HETATM   11  C   UNL     1     -37.164  42.138 -58.650  1.00  0.00     0.012 A 
HETATM   12  C   UNL     1     -37.175  41.501 -59.893  1.00  0.00     0.037 A 
HETATM   13  C   UNL     1     -37.544  40.161 -60.003  1.00  0.00     0.068 A 
HETATM   14  C   UNL     1     -37.917  39.462 -58.855  1.00  0.00     0.037 A 
HETATM   15  C   UNL     1     -37.913  40.100 -57.608  1.00  0.00     0.012 A 
BRANCH  13  16
HETATM   16  O   UNL     1     -37.500  39.661 -61.275  1.00  0.00    -0.356 OA
HETATM   17  C   UNL     1     -38.422  38.627 -61.591  1.00  0.00     0.210 C 
ENDBRANCH  13  16
ENDBRANCH   7  10
ENDBRANCH   5   7
ENDBRANCH   2   5
BRANCH   1  18
HETATM   18  C   UNL     1     -36.045  40.878 -51.839  1.00  0.00     0.075 C 
HETATM   19  C   UNL     1     -35.137  40.449 -50.872  1.00  0.00     0.051 C 
HETATM   20  C   UNL     1     -33.728  40.844 -50.602  1.00  0.00     0.071 C 
HETATM   21  N   UNL     1     -35.819  39.513 -50.083  1.00  0.00    -0.220 N 
HETATM   22  N   UNL     1     -37.143  39.473 -50.399  1.00  0.00    -0.177 NA
HETATM   23  C   UNL     1     -37.259  40.267 -51.457  1.00  0.00     0.158 C 
BRANCH  21  24
HETATM   24  C   UNL     1     -35.303  38.645 -49.059  1.00  0.00     0.150 A 
HETATM   25  N   UNL     1     -34.167  37.932 -49.294  1.00  0.00    -0.241 NA
HETATM   26  C   UNL     1     -33.731  37.114 -48.312  1.00  0.00     0.119 A 
HETATM   27  C   UNL     1     -34.365  36.963 -47.091  1.00  0.00     0.019 A 
HETATM   28  C   UNL     1     -35.524  37.691 -46.861  1.00  0.00     0.005 A 
HETATM   29  C   UNL     1     -36.004  38.541 -47.856  1.00  0.00     0.052 A 
ENDBRANCH  21  24
ENDBRANCH   1  18
TORSDOF 7
ENDMDL
MODEL 9
REMARK VINA RESULT:      -6.9      1.743      2.422
REMARK  7 active torsions:
REMARK  status: ('A' for Active; 'I' for Inactive)
REMARK    1  A    between atoms: N_3  and  C_4 
REMARK    2  A    between atoms: C_12  and  C_13 
REMARK       I    between atoms: C_13  and  N_14 
REMARK    3  A    between atoms: N_14  and  C_15 
REMARK    4  A    between atoms: C_15  and  C_16 
REMARK    5  A    between atoms: C_16  and  O_17 
REMARK    6  A    between atoms: C_16  and  C_18 
REMARK    7  A    between atoms: C_21  and  O_22 
ROOT
HETATM    1  C   UNL     1     -43.416  56.757 -53.574  1.00  0.00     0.255 C 
HETATM    2  N   UNL     1     -43.295  55.474 -53.097  1.00  0.00    -0.350 N 
HETATM    3  O   UNL     1     -43.305  57.736 -52.842  1.00  0.00    -0.268 OA
HETATM    4  H   UNL     1     -43.411  54.685 -53.714  1.00  0.00     0.163 HD
ENDROOT
BRANCH   2   5
HETATM    5  C   UNL     1     -43.122  55.194 -51.666  1.00  0.00     0.114 C 
HETATM    6  C   UNL     1     -43.933  53.950 -51.291  1.00  0.00     0.035 C 
BRANCH   5   7
HETATM    7  C   UNL     1     -41.610  55.070 -51.326  1.00  0.00     0.173 C 
BRANCH   7   8
HETATM    8  O   UNL     1     -40.929  56.308 -51.560  1.00  0.00    -0.389 OA
HETATM    9  H   UNL     1     -41.615  56.989 -51.678  1.00  0.00     0.210 HD
ENDBRANCH   7   8
BRANCH   7  10
HETATM   10  C   UNL     1     -40.922  53.916 -52.029  1.00  0.00    -0.028 A 
HETATM   11  C   UNL     1     -40.377  52.873 -51.267  1.00  0.00     0.012 A 
HETATM   12  C   UNL     1     -39.764  51.783 -51.888  1.00  0.00     0.037 A 
HETATM   13  C   UNL     1     -39.690  51.704 -53.279  1.00  0.00     0.068 A 
HETATM   14  C   UNL     1     -40.225  52.737 -54.047  1.00  0.00     0.037 A 
HETATM   15  C   UNL     1     -40.836  53.835 -53.427  1.00  0.00     0.012 A 
BRANCH  13  16
HETATM   16  O   UNL     1     -39.074  50.579 -53.753  1.00  0.00    -0.356 OA
HETATM   17  C   UNL     1     -39.816  49.772 -54.657  1.00  0.00     0.210 C 
ENDBRANCH  13  16
ENDBRANCH   7  10
ENDBRANCH   5   7
ENDBRANCH   2   5
BRANCH   1  18
HETATM   18  C   UNL     1     -43.622  56.916 -55.007  1.00  0.00     0.075 C 
HETATM   19  C   UNL     1     -44.371  57.816 -55.765  1.00  0.00     0.051 C 
HETATM   20  C   UNL     1     -45.153  59.020 -55.373  1.00  0.00     0.071 C 
HETATM   21  N   UNL     1     -44.244  57.404 -57.098  1.00  0.00    -0.220 N 
HETATM   22  N   UNL     1     -43.321  56.410 -57.221  1.00  0.00    -0.177 NA
HETATM   23  C   UNL     1     -42.979  56.113 -55.973  1.00  0.00     0.158 C 
BRANCH  21  24
HETATM   24  C   UNL     1     -44.944  57.877 -58.262  1.00  0.00     0.150 A 
HETATM   25  N   UNL     1     -46.188  57.398 -58.536  1.00  0.00    -0.241 NA
HETATM   26  C   UNL     1     -46.800  57.854 -59.651  1.00  0.00     0.119 A 
HETATM   27  C   UNL     1     -46.240  58.774 -60.520  1.00  0.00     0.019 A 
HETATM   28  C   UNL     1     -44.970  59.254 -60.234  1.00  0.00     0.005 A 
HETATM   29  C   UNL     1     -44.308  58.800 -59.095  1.00  0.00     0.052 A 
ENDBRANCH  21  24
ENDBRANCH   1  18
TORSDOF 7
ENDMDL
MODEL 10
REMARK VINA RESULT:      -6.9      2.875      5.233
REMARK  7 active torsions:
REMARK  status: ('A' for Active; 'I' for Inactive)
REMARK    1  A    between atoms: N_3  and  C_4 
REMARK    2  A    between atoms: C_12  and  C_13 
REMARK       I    between atoms: C_13  and  N_14 
REMARK    3  A    between atoms: N_14  and  C_15 
REMARK    4  A    between atoms: C_15  and  C_16 
REMARK    5  A    between atoms: C_16  and  O_17 
REMARK    6  A    between atoms: C_16  and  C_18 
REMARK    7  A    between atoms: C_21  and  O_22 
ROOT
HETATM    1  C   UNL     1     -42.586  56.716 -56.716  1.00  0.00     0.255 C 
HETATM    2  N   UNL     1     -41.766  56.104 -55.799  1.00  0.00    -0.350 N 
HETATM    3  O   UNL     1     -43.578  56.157 -57.175  1.00  0.00    -0.268 OA
HETATM    4  H   UNL     1     -40.944  56.575 -55.450  1.00  0.00     0.163 HD
ENDROOT
BRANCH   2   5
HETATM    5  C   UNL     1     -41.972  54.710 -55.385  1.00  0.00     0.114 C 
HETATM    6  C   UNL     1     -40.612  54.030 -55.199  1.00  0.00     0.035 C 
BRANCH   5   7
HETATM    7  C   UNL     1     -42.867  54.657 -54.115  1.00  0.00     0.173 C 
BRANCH   7   8
HETATM    8  O   UNL     1     -44.255  54.685 -54.465  1.00  0.00    -0.389 OA
HETATM    9  H   UNL     1     -44.475  55.610 -54.671  1.00  0.00     0.210 HD
ENDBRANCH   7   8
BRANCH   7  10
HETATM   10  C   UNL     1     -42.530  55.724 -53.091  1.00  0.00    -0.028 A 
HETATM   11  C   UNL     1     -41.473  55.508 -52.196  1.00  0.00     0.012 A 
HETATM   12  C   UNL     1     -41.121  56.484 -51.262  1.00  0.00     0.037 A 
HETATM   13  C   UNL     1     -41.807  57.697 -51.205  1.00  0.00     0.068 A 
HETATM   14  C   UNL     1     -42.864  57.921 -52.087  1.00  0.00     0.037 A 
HETATM   15  C   UNL     1     -43.224  56.941 -53.022  1.00  0.00     0.012 A 
BRANCH  13  16
HETATM   16  O   UNL     1     -41.352  58.565 -50.252  1.00  0.00    -0.356 OA
HETATM   17  C   UNL     1     -40.284  59.425 -50.622  1.00  0.00     0.210 C 
ENDBRANCH  13  16
ENDBRANCH   7  10
ENDBRANCH   5   7
ENDBRANCH   2   5
BRANCH   1  18
HETATM   18  C   UNL     1     -42.265  58.089 -57.081  1.00  0.00     0.075 C 
HETATM   19  C   UNL     1     -41.984  58.707 -58.299  1.00  0.00     0.051 C 
HETATM   20  C   UNL     1     -42.016  58.191 -59.694  1.00  0.00     0.071 C 
HETATM   21  N   UNL     1     -41.663  60.037 -57.997  1.00  0.00    -0.220 N 
HETATM   22  N   UNL     1     -41.901  60.316 -56.685  1.00  0.00    -0.177 NA
HETATM   23  C   UNL     1     -42.233  59.148 -56.149  1.00  0.00     0.158 C 
BRANCH  21  24
HETATM   24  C   UNL     1     -41.134  61.059 -58.860  1.00  0.00     0.150 A 
HETATM   25  N   UNL     1     -40.146  61.876 -58.403  1.00  0.00    -0.241 NA
HETATM   26  C   UNL     1     -39.694  62.835 -59.241  1.00  0.00     0.119 A 
HETATM   27  C   UNL     1     -40.173  63.030 -60.525  1.00  0.00     0.019 A 
HETATM   28  C   UNL     1     -41.183  62.194 -60.981  1.00  0.00     0.005 A 
HETATM   29  C   UNL     1     -41.675  61.197 -60.140  1.00  0.00     0.052 A 
ENDBRANCH  21  24
ENDBRANCH   1  18
TORSDOF 7
ENDMDL
