MODEL 1
REMARK VINA RESULT:      -8.7      0.000      0.000
REMARK  7 active torsions:
REMARK  status: ('A' for Active; 'I' for Inactive)
REMARK    1  A    between atoms: C_2  and  C_3 
REMARK    2  A    between atoms: C_6  and  C_7 
REMARK    3  A    between atoms: N_8  and  N_9 
REMARK    4  A    between atoms: C_20  and  C_21 
REMARK       I    between atoms: C_21  and  N_22 
REMARK    5  A    between atoms: N_22  and  C_23 
REMARK    6  A    between atoms: C_23  and  C_24 
REMARK    7  A    between atoms: C_30  and  N_31 
ROOT
HETATM    1  N   UNL     1     -43.325  55.637 -55.164  1.00  0.00    -0.202 N 
HETATM    2  C   UNL     1     -42.514  54.760 -54.470  1.00  0.00     0.183 A 
HETATM    3  C   UNL     1     -42.584  55.118 -53.123  1.00  0.00     0.124 A 
HETATM    4  N   UNL     1     -41.812  54.494 -52.197  1.00  0.00    -0.242 NA
HETATM    5  C   UNL     1     -41.060  53.488 -52.663  1.00  0.00     0.086 A 
HETATM    6  C   UNL     1     -41.033  53.121 -54.035  1.00  0.00     0.088 A 
HETATM    7  N   UNL     1     -41.742  53.768 -54.977  1.00  0.00    -0.225 NA
HETATM    8  C   UNL     1     -40.279  52.779 -51.760  1.00  0.00     0.034 A 
HETATM    9  C   UNL     1     -39.484  51.706 -52.166  1.00  0.00     0.002 A 
HETATM   10  C   UNL     1     -39.469  51.336 -53.503  1.00  0.00     0.002 A 
HETATM   11  C   UNL     1     -40.240  52.049 -54.423  1.00  0.00     0.034 A 
HETATM   12  C   UNL     1     -43.490  56.208 -52.996  1.00  0.00     0.104 C 
HETATM   13  C   UNL     1     -44.088  56.341 -54.240  1.00  0.00     0.123 C 
ENDROOT
BRANCH   1  14
HETATM   14  N   UNL     1     -43.390  56.004 -56.481  1.00  0.00    -0.176 NA
HETATM   15  C   UNL     1     -42.507  56.856 -56.884  1.00  0.00     0.150 C 
BRANCH  15  16
HETATM   16  C   UNL     1     -42.771  57.635 -58.117  1.00  0.00    -0.017 A 
HETATM   17  C   UNL     1     -44.062  57.678 -58.647  1.00  0.00     0.013 A 
HETATM   18  C   UNL     1     -44.392  58.619 -59.624  1.00  0.00     0.009 A 
HETATM   19  C   UNL     1     -43.443  59.541 -60.093  1.00  0.00    -0.051 A 
HETATM   20  C   UNL     1     -42.126  59.424 -59.600  1.00  0.00     0.009 A 
HETATM   21  C   UNL     1     -41.790  58.490 -58.612  1.00  0.00     0.013 A 
BRANCH  19  22
HETATM   22  C   UNL     1     -43.811  60.657 -61.088  1.00  0.00    -0.024 C 
HETATM   23  C   UNL     1     -45.189  60.456 -61.765  1.00  0.00     0.019 C 
HETATM   24  C   UNL     1     -42.745  60.714 -62.197  1.00  0.00     0.019 C 
HETATM   25  C   UNL     1     -43.874  62.022 -60.366  1.00  0.00     0.019 C 
ENDBRANCH  19  22
ENDBRANCH  15  16
ENDBRANCH   1  14
BRANCH  13  26
HETATM   26  N   UNL     1     -45.117  57.141 -54.663  1.00  0.00    -0.286 NA
HETATM   27  H   UNL     1     -44.985  57.536 -55.600  1.00  0.00     0.125 HD
HETATM   28  H   UNL     1     -46.062  56.762 -54.572  1.00  0.00     0.125 HD
ENDBRANCH  13  26
BRANCH  12  29
HETATM   29  C   UNL     1     -43.703  57.084 -51.848  1.00  0.00     0.257 C 
HETATM   30  N   UNL     1     -43.570  58.420 -52.173  1.00  0.00    -0.354 N 
HETATM   31  H   UNL     1     -43.348  58.621 -53.144  1.00  0.00     0.162 HD
HETATM   32  O   UNL     1     -43.893  56.680 -50.709  1.00  0.00    -0.267 OA
BRANCH  30  33
HETATM   33  C   UNL     1     -43.386  59.490 -51.213  1.00  0.00     0.155 C 
BRANCH  33  34
HETATM   34  C   UNL     1     -41.955  60.050 -51.132  1.00  0.00     0.139 C 
HETATM   35  O   UNL     1     -41.278  59.825 -52.383  1.00  0.00    -0.384 OA
HETATM   36  C   UNL     1     -40.109  59.036 -52.148  1.00  0.00     0.168 C 
HETATM   37  C   UNL     1     -40.272  58.411 -50.782  1.00  0.00     0.029 C 
HETATM   38  C   UNL     1     -41.065  59.461 -50.042  1.00  0.00     0.035 C 
ENDBRANCH  33  34
ENDBRANCH  30  33
ENDBRANCH  12  29
TORSDOF 7
ENDMDL
MODEL 2
REMARK VINA RESULT:      -8.7      2.824      8.679
REMARK  7 active torsions:
REMARK  status: ('A' for Active; 'I' for Inactive)
REMARK    1  A    between atoms: C_2  and  C_3 
REMARK    2  A    between atoms: C_6  and  C_7 
REMARK    3  A    between atoms: N_8  and  N_9 
REMARK    4  A    between atoms: C_20  and  C_21 
REMARK       I    between atoms: C_21  and  N_22 
REMARK    5  A    between atoms: N_22  and  C_23 
REMARK    6  A    between atoms: C_23  and  C_24 
REMARK    7  A    between atoms: C_30  and  N_31 
ROOT
HETATM    1  N   UNL     1     -43.618  57.318 -53.106  1.00  0.00    -0.202 N 
HETATM    2  C   UNL     1     -43.621  58.649 -52.736  1.00  0.00     0.183 A 
HETATM    3  C   UNL     1     -44.320  59.345 -53.722  1.00  0.00     0.124 A 
HETATM    4  N   UNL     1     -44.409  60.700 -53.686  1.00  0.00    -0.242 NA
HETATM    5  C   UNL     1     -43.850  61.281 -52.616  1.00  0.00     0.086 A 
HETATM    6  C   UNL     1     -43.174  60.544 -51.608  1.00  0.00     0.088 A 
HETATM    7  N   UNL     1     -43.020  59.210 -51.659  1.00  0.00    -0.225 NA
HETATM    8  C   UNL     1     -43.945  62.661 -52.495  1.00  0.00     0.034 A 
HETATM    9  C   UNL     1     -43.405  63.337 -51.400  1.00  0.00     0.002 A 
HETATM   10  C   UNL     1     -42.757  62.618 -50.406  1.00  0.00     0.002 A 
HETATM   11  C   UNL     1     -42.645  61.231 -50.521  1.00  0.00     0.034 A 
HETATM   12  C   UNL     1     -44.787  58.409 -54.686  1.00  0.00     0.104 C 
HETATM   13  C   UNL     1     -44.526  57.159 -54.147  1.00  0.00     0.123 C 
ENDROOT
BRANCH   1  14
HETATM   14  N   UNL     1     -42.834  56.253 -52.754  1.00  0.00    -0.176 NA
HETATM   15  C   UNL     1     -41.667  56.193 -53.303  1.00  0.00     0.150 C 
BRANCH  15  16
HETATM   16  C   UNL     1     -40.958  54.892 -53.346  1.00  0.00    -0.017 A 
HETATM   17  C   UNL     1     -40.836  54.131 -52.181  1.00  0.00     0.013 A 
HETATM   18  C   UNL     1     -40.434  52.796 -52.250  1.00  0.00     0.009 A 
HETATM   19  C   UNL     1     -40.146  52.188 -53.482  1.00  0.00    -0.051 A 
HETATM   20  C   UNL     1     -40.200  53.001 -54.635  1.00  0.00     0.009 A 
HETATM   21  C   UNL     1     -40.613  54.338 -54.574  1.00  0.00     0.013 A 
BRANCH  19  22
HETATM   22  C   UNL     1     -39.808  50.690 -53.595  1.00  0.00    -0.024 C 
HETATM   23  C   UNL     1     -38.474  50.408 -54.327  1.00  0.00     0.019 C 
HETATM   24  C   UNL     1     -40.931  49.978 -54.369  1.00  0.00     0.019 C 
HETATM   25  C   UNL     1     -39.677  50.062 -52.188  1.00  0.00     0.019 C 
ENDBRANCH  19  22
ENDBRANCH  15  16
ENDBRANCH   1  14
BRANCH  13  26
HETATM   26  N   UNL     1     -44.868  55.903 -54.578  1.00  0.00    -0.286 NA
HETATM   27  H   UNL     1     -44.923  55.203 -53.831  1.00  0.00     0.125 HD
HETATM   28  H   UNL     1     -45.685  55.832 -55.186  1.00  0.00     0.125 HD
ENDBRANCH  13  26
BRANCH  12  29
HETATM   29  C   UNL     1     -45.340  58.668 -56.013  1.00  0.00     0.257 C 
HETATM   30  N   UNL     1     -44.988  57.696 -56.929  1.00  0.00    -0.354 N 
HETATM   31  H   UNL     1     -44.406  56.942 -56.576  1.00  0.00     0.162 HD
HETATM   32  O   UNL     1     -45.971  59.675 -56.302  1.00  0.00    -0.267 OA
BRANCH  30  33
HETATM   33  C   UNL     1     -45.089  57.841 -58.367  1.00  0.00     0.155 C 
BRANCH  33  34
HETATM   34  C   UNL     1     -44.006  57.099 -59.171  1.00  0.00     0.139 C 
HETATM   35  O   UNL     1     -44.500  56.812 -60.493  1.00  0.00    -0.384 OA
HETATM   36  C   UNL     1     -44.472  55.398 -60.706  1.00  0.00     0.168 C 
HETATM   37  C   UNL     1     -44.340  54.754 -59.346  1.00  0.00     0.029 C 
HETATM   38  C   UNL     1     -43.527  55.775 -58.586  1.00  0.00     0.035 C 
ENDBRANCH  33  34
ENDBRANCH  30  33
ENDBRANCH  12  29
TORSDOF 7
ENDMDL
MODEL 3
REMARK VINA RESULT:      -8.6      2.608      7.209
REMARK  7 active torsions:
REMARK  status: ('A' for Active; 'I' for Inactive)
REMARK    1  A    between atoms: C_2  and  C_3 
REMARK    2  A    between atoms: C_6  and  C_7 
REMARK    3  A    between atoms: N_8  and  N_9 
REMARK    4  A    between atoms: C_20  and  C_21 
REMARK       I    between atoms: C_21  and  N_22 
REMARK    5  A    between atoms: N_22  and  C_23 
REMARK    6  A    between atoms: C_23  and  C_24 
REMARK    7  A    between atoms: C_30  and  N_31 
ROOT
HETATM    1  N   UNL     1     -41.707  56.917 -53.330  1.00  0.00    -0.202 N 
HETATM    2  C   UNL     1     -41.253  55.613 -53.352  1.00  0.00     0.183 A 
HETATM    3  C   UNL     1     -41.409  55.148 -54.658  1.00  0.00     0.124 A 
HETATM    4  N   UNL     1     -41.138  53.856 -54.973  1.00  0.00    -0.242 NA
HETATM    5  C   UNL     1     -40.653  53.112 -53.970  1.00  0.00     0.086 A 
HETATM    6  C   UNL     1     -40.472  53.620 -52.656  1.00  0.00     0.088 A 
HETATM    7  N   UNL     1     -40.794  54.878 -52.310  1.00  0.00    -0.225 NA
HETATM    8  C   UNL     1     -40.313  51.792 -54.236  1.00  0.00     0.034 A 
HETATM    9  C   UNL     1     -39.784  50.960 -53.248  1.00  0.00     0.002 A 
HETATM   10  C   UNL     1     -39.592  51.458 -51.968  1.00  0.00     0.002 A 
HETATM   11  C   UNL     1     -39.940  52.780 -51.684  1.00  0.00     0.034 A 
HETATM   12  C   UNL     1     -41.926  56.209 -55.452  1.00  0.00     0.104 C 
HETATM   13  C   UNL     1     -41.879  57.335 -54.644  1.00  0.00     0.123 C 
ENDROOT
BRANCH   1  14
HETATM   14  N   UNL     1     -42.121  57.745 -52.321  1.00  0.00    -0.176 NA
HETATM   15  C   UNL     1     -43.397  57.834 -52.139  1.00  0.00     0.150 C 
BRANCH  15  16
HETATM   16  C   UNL     1     -43.939  59.008 -51.414  1.00  0.00    -0.017 A 
HETATM   17  C   UNL     1     -45.198  58.933 -50.816  1.00  0.00     0.013 A 
HETATM   18  C   UNL     1     -45.603  59.905 -49.900  1.00  0.00     0.009 A 
HETATM   19  C   UNL     1     -44.760  60.974 -49.557  1.00  0.00    -0.051 A 
HETATM   20  C   UNL     1     -43.526  61.071 -50.235  1.00  0.00     0.009 A 
HETATM   21  C   UNL     1     -43.109  60.093 -51.147  1.00  0.00     0.013 A 
BRANCH  19  22
HETATM   22  C   UNL     1     -45.139  61.996 -48.470  1.00  0.00    -0.024 C 
HETATM   23  C   UNL     1     -44.344  63.321 -48.558  1.00  0.00     0.019 C 
HETATM   24  C   UNL     1     -44.874  61.378 -47.085  1.00  0.00     0.019 C 
HETATM   25  C   UNL     1     -46.634  62.375 -48.585  1.00  0.00     0.019 C 
ENDBRANCH  19  22
ENDBRANCH  15  16
ENDBRANCH   1  14
BRANCH  13  26
HETATM   26  N   UNL     1     -42.135  58.653 -54.920  1.00  0.00    -0.286 NA
HETATM   27  H   UNL     1     -43.026  58.816 -55.403  1.00  0.00     0.125 HD
HETATM   28  H   UNL     1     -42.028  59.315 -54.149  1.00  0.00     0.125 HD
ENDBRANCH  13  26
BRANCH  12  29
HETATM   29  C   UNL     1     -42.488  56.148 -56.799  1.00  0.00     0.257 C 
HETATM   30  N   UNL     1     -42.115  57.228 -57.574  1.00  0.00    -0.354 N 
HETATM   31  H   UNL     1     -41.511  57.912 -57.125  1.00  0.00     0.162 HD
HETATM   32  O   UNL     1     -43.269  55.284 -57.171  1.00  0.00    -0.267 OA
BRANCH  30  33
HETATM   33  C   UNL     1     -42.765  57.624 -58.807  1.00  0.00     0.155 C 
BRANCH  33  34
HETATM   34  C   UNL     1     -43.792  58.762 -58.661  1.00  0.00     0.139 C 
HETATM   35  O   UNL     1     -43.866  59.170 -57.282  1.00  0.00    -0.384 OA
HETATM   36  C   UNL     1     -45.208  59.000 -56.816  1.00  0.00     0.168 C 
HETATM   37  C   UNL     1     -45.899  58.086 -57.799  1.00  0.00     0.029 C 
HETATM   38  C   UNL     1     -45.217  58.439 -59.099  1.00  0.00     0.035 C 
ENDBRANCH  33  34
ENDBRANCH  30  33
ENDBRANCH  12  29
TORSDOF 7
ENDMDL
MODEL 4
REMARK VINA RESULT:      -8.0      2.600      7.751
REMARK  7 active torsions:
REMARK  status: ('A' for Active; 'I' for Inactive)
REMARK    1  A    between atoms: C_2  and  C_3 
REMARK    2  A    between atoms: C_6  and  C_7 
REMARK    3  A    between atoms: N_8  and  N_9 
REMARK    4  A    between atoms: C_20  and  C_21 
REMARK       I    between atoms: C_21  and  N_22 
REMARK    5  A    between atoms: N_22  and  C_23 
REMARK    6  A    between atoms: C_23  and  C_24 
REMARK    7  A    between atoms: C_30  and  N_31 
ROOT
HETATM    1  N   UNL     1     -44.322  57.400 -54.099  1.00  0.00    -0.202 N 
HETATM    2  C   UNL     1     -44.155  57.252 -55.463  1.00  0.00     0.183 A 
HETATM    3  C   UNL     1     -43.167  56.285 -55.650  1.00  0.00     0.124 A 
HETATM    4  N   UNL     1     -42.712  55.989 -56.895  1.00  0.00    -0.242 NA
HETATM    5  C   UNL     1     -43.327  56.631 -57.896  1.00  0.00     0.086 A 
HETATM    6  C   UNL     1     -44.355  57.586 -57.680  1.00  0.00     0.088 A 
HETATM    7  N   UNL     1     -44.776  57.939 -56.453  1.00  0.00    -0.225 NA
HETATM    8  C   UNL     1     -42.939  56.341 -59.198  1.00  0.00     0.034 A 
HETATM    9  C   UNL     1     -43.545  56.954 -60.295  1.00  0.00     0.002 A 
HETATM   10  C   UNL     1     -44.560  57.876 -60.086  1.00  0.00     0.002 A 
HETATM   11  C   UNL     1     -44.952  58.185 -58.783  1.00  0.00     0.034 A 
HETATM   12  C   UNL     1     -42.760  55.808 -54.374  1.00  0.00     0.104 C 
HETATM   13  C   UNL     1     -43.654  56.358 -53.468  1.00  0.00     0.123 C 
ENDROOT
BRANCH   1  14
HETATM   14  N   UNL     1     -44.860  58.395 -53.328  1.00  0.00    -0.176 NA
HETATM   15  C   UNL     1     -44.146  59.462 -53.188  1.00  0.00     0.150 C 
BRANCH  15  16
HETATM   16  C   UNL     1     -44.419  60.365 -52.044  1.00  0.00    -0.017 A 
HETATM   17  C   UNL     1     -45.734  60.734 -51.752  1.00  0.00     0.013 A 
HETATM   18  C   UNL     1     -46.042  61.338 -50.531  1.00  0.00     0.009 A 
HETATM   19  C   UNL     1     -45.045  61.586 -49.573  1.00  0.00    -0.051 A 
HETATM   20  C   UNL     1     -43.715  61.276 -49.926  1.00  0.00     0.009 A 
HETATM   21  C   UNL     1     -43.400  60.660 -51.144  1.00  0.00     0.013 A 
BRANCH  19  22
HETATM   22  C   UNL     1     -45.376  62.150 -48.179  1.00  0.00    -0.024 C 
HETATM   23  C   UNL     1     -46.887  62.389 -47.948  1.00  0.00     0.019 C 
HETATM   24  C   UNL     1     -44.651  63.495 -47.997  1.00  0.00     0.019 C 
HETATM   25  C   UNL     1     -44.916  61.166 -47.078  1.00  0.00     0.019 C 
ENDBRANCH  19  22
ENDBRANCH  15  16
ENDBRANCH   1  14
BRANCH  13  26
HETATM   26  N   UNL     1     -43.817  56.150 -52.123  1.00  0.00    -0.286 NA
HETATM   27  H   UNL     1     -44.083  56.989 -51.597  1.00  0.00     0.125 HD
HETATM   28  H   UNL     1     -44.405  55.362 -51.847  1.00  0.00     0.125 HD
ENDBRANCH  13  26
BRANCH  12  29
HETATM   29  C   UNL     1     -41.597  54.991 -54.036  1.00  0.00     0.257 C 
HETATM   30  N   UNL     1     -41.920  53.929 -53.215  1.00  0.00    -0.354 N 
HETATM   31  H   UNL     1     -42.900  53.848 -52.957  1.00  0.00     0.162 HD
HETATM   32  O   UNL     1     -40.453  55.266 -54.370  1.00  0.00    -0.267 OA
BRANCH  30  33
HETATM   33  C   UNL     1     -40.964  53.157 -52.447  1.00  0.00     0.155 C 
BRANCH  33  34
HETATM   34  C   UNL     1     -41.193  53.171 -50.925  1.00  0.00     0.139 C 
HETATM   35  O   UNL     1     -42.207  54.141 -50.600  1.00  0.00    -0.384 OA
HETATM   36  C   UNL     1     -41.658  55.110 -49.703  1.00  0.00     0.168 C 
HETATM   37  C   UNL     1     -40.155  54.979 -49.786  1.00  0.00     0.029 C 
HETATM   38  C   UNL     1     -39.978  53.506 -50.067  1.00  0.00     0.035 C 
ENDBRANCH  33  34
ENDBRANCH  30  33
ENDBRANCH  12  29
TORSDOF 7
ENDMDL
MODEL 5
REMARK VINA RESULT:      -8.0      3.342      8.198
REMARK  7 active torsions:
REMARK  status: ('A' for Active; 'I' for Inactive)
REMARK    1  A    between atoms: C_2  and  C_3 
REMARK    2  A    between atoms: C_6  and  C_7 
REMARK    3  A    between atoms: N_8  and  N_9 
REMARK    4  A    between atoms: C_20  and  C_21 
REMARK       I    between atoms: C_21  and  N_22 
REMARK    5  A    between atoms: N_22  and  C_23 
REMARK    6  A    between atoms: C_23  and  C_24 
REMARK    7  A    between atoms: C_30  and  N_31 
ROOT
HETATM    1  N   UNL     1     -41.896  58.951 -52.642  1.00  0.00    -0.202 N 
HETATM    2  C   UNL     1     -41.595  57.611 -52.796  1.00  0.00     0.183 A 
HETATM    3  C   UNL     1     -41.686  57.327 -54.159  1.00  0.00     0.124 A 
HETATM    4  N   UNL     1     -41.538  56.057 -54.616  1.00  0.00    -0.242 NA
HETATM    5  C   UNL     1     -41.233  55.146 -53.682  1.00  0.00     0.086 A 
HETATM    6  C   UNL     1     -41.113  55.468 -52.304  1.00  0.00     0.088 A 
HETATM    7  N   UNL     1     -41.318  56.708 -51.825  1.00  0.00    -0.225 NA
HETATM    8  C   UNL     1     -41.025  53.834 -54.088  1.00  0.00     0.034 A 
HETATM    9  C   UNL     1     -40.686  52.832 -53.178  1.00  0.00     0.002 A 
HETATM   10  C   UNL     1     -40.552  53.148 -51.835  1.00  0.00     0.002 A 
HETATM   11  C   UNL     1     -40.770  54.460 -51.411  1.00  0.00     0.034 A 
HETATM   12  C   UNL     1     -42.005  58.530 -54.847  1.00  0.00     0.104 C 
HETATM   13  C   UNL     1     -41.901  59.539 -53.901  1.00  0.00     0.123 C 
ENDROOT
BRANCH   1  14
HETATM   14  N   UNL     1     -42.300  59.699 -51.569  1.00  0.00    -0.176 NA
HETATM   15  C   UNL     1     -43.543  59.593 -51.232  1.00  0.00     0.150 C 
BRANCH  15  16
HETATM   16  C   UNL     1     -44.160  60.666 -50.416  1.00  0.00    -0.017 A 
HETATM   17  C   UNL     1     -45.266  60.378 -49.614  1.00  0.00     0.013 A 
HETATM   18  C   UNL     1     -45.681  61.283 -48.635  1.00  0.00     0.009 A 
HETATM   19  C   UNL     1     -45.002  62.494 -48.432  1.00  0.00    -0.051 A 
HETATM   20  C   UNL     1     -43.938  62.796 -49.308  1.00  0.00     0.009 A 
HETATM   21  C   UNL     1     -43.509  61.889 -50.285  1.00  0.00     0.013 A 
BRANCH  19  22
HETATM   22  C   UNL     1     -45.372  63.456 -47.288  1.00  0.00    -0.024 C 
HETATM   23  C   UNL     1     -44.500  64.734 -47.243  1.00  0.00     0.019 C 
HETATM   24  C   UNL     1     -45.209  62.725 -45.943  1.00  0.00     0.019 C 
HETATM   25  C   UNL     1     -46.836  63.931 -47.438  1.00  0.00     0.019 C 
ENDBRANCH  19  22
ENDBRANCH  15  16
ENDBRANCH   1  14
BRANCH  13  26
HETATM   26  N   UNL     1     -41.979  60.901 -54.025  1.00  0.00    -0.286 NA
HETATM   27  H   UNL     1     -42.681  61.223 -54.700  1.00  0.00     0.125 HD
HETATM   28  H   UNL     1     -42.052  61.439 -53.160  1.00  0.00     0.125 HD
ENDBRANCH  13  26
BRANCH  12  29
HETATM   29  C   UNL     1     -42.448  58.699 -56.229  1.00  0.00     0.257 C 
HETATM   30  N   UNL     1     -43.269  57.670 -56.648  1.00  0.00    -0.354 N 
HETATM   31  H   UNL     1     -43.461  56.946 -55.961  1.00  0.00     0.162 HD
HETATM   32  O   UNL     1     -42.065  59.601 -56.960  1.00  0.00    -0.267 OA
BRANCH  30  33
HETATM   33  C   UNL     1     -43.585  57.376 -58.031  1.00  0.00     0.155 C 
BRANCH  33  34
HETATM   34  C   UNL     1     -44.704  58.241 -58.639  1.00  0.00     0.139 C 
HETATM   35  O   UNL     1     -45.778  58.375 -57.690  1.00  0.00    -0.384 OA
HETATM   36  C   UNL     1     -46.981  57.860 -58.268  1.00  0.00     0.168 C 
HETATM   37  C   UNL     1     -46.569  57.015 -59.450  1.00  0.00     0.029 C 
HETATM   38  C   UNL     1     -45.325  57.722 -59.931  1.00  0.00     0.035 C 
ENDBRANCH  33  34
ENDBRANCH  30  33
ENDBRANCH  12  29
TORSDOF 7
ENDMDL
MODEL 6
REMARK VINA RESULT:      -7.9      2.454      7.727
REMARK  7 active torsions:
REMARK  status: ('A' for Active; 'I' for Inactive)
REMARK    1  A    between atoms: C_2  and  C_3 
REMARK    2  A    between atoms: C_6  and  C_7 
REMARK    3  A    between atoms: N_8  and  N_9 
REMARK    4  A    between atoms: C_20  and  C_21 
REMARK       I    between atoms: C_21  and  N_22 
REMARK    5  A    between atoms: N_22  and  C_23 
REMARK    6  A    between atoms: C_23  and  C_24 
REMARK    7  A    between atoms: C_30  and  N_31 
ROOT
HETATM    1  N   UNL     1     -43.390  57.329 -53.038  1.00  0.00    -0.202 N 
HETATM    2  C   UNL     1     -43.835  57.908 -54.211  1.00  0.00     0.183 A 
HETATM    3  C   UNL     1     -44.767  58.883 -53.857  1.00  0.00     0.124 A 
HETATM    4  N   UNL     1     -45.457  59.564 -54.808  1.00  0.00    -0.242 NA
HETATM    5  C   UNL     1     -45.119  59.278 -56.073  1.00  0.00     0.086 A 
HETATM    6  C   UNL     1     -44.141  58.305 -56.406  1.00  0.00     0.088 A 
HETATM    7  N   UNL     1     -43.493  57.576 -55.480  1.00  0.00    -0.225 NA
HETATM    8  C   UNL     1     -45.755  59.972 -57.095  1.00  0.00     0.034 A 
HETATM    9  C   UNL     1     -45.444  59.744 -58.436  1.00  0.00     0.002 A 
HETATM   10  C   UNL     1     -44.478  58.805 -58.762  1.00  0.00     0.002 A 
HETATM   11  C   UNL     1     -43.839  58.093 -57.746  1.00  0.00     0.034 A 
HETATM   12  C   UNL     1     -44.856  58.924 -52.438  1.00  0.00     0.104 C 
HETATM   13  C   UNL     1     -43.830  58.112 -51.978  1.00  0.00     0.123 C 
ENDROOT
BRANCH   1  14
HETATM   14  N   UNL     1     -42.773  56.139 -52.760  1.00  0.00    -0.176 NA
HETATM   15  C   UNL     1     -41.498  56.092 -52.964  1.00  0.00     0.150 C 
BRANCH  15  16
HETATM   16  C   UNL     1     -40.845  54.772 -53.132  1.00  0.00    -0.017 A 
HETATM   17  C   UNL     1     -40.678  53.936 -52.026  1.00  0.00     0.013 A 
HETATM   18  C   UNL     1     -40.334  52.594 -52.202  1.00  0.00     0.009 A 
HETATM   19  C   UNL     1     -40.151  52.055 -53.485  1.00  0.00    -0.051 A 
HETATM   20  C   UNL     1     -40.248  52.939 -54.580  1.00  0.00     0.009 A 
HETATM   21  C   UNL     1     -40.603  54.284 -54.412  1.00  0.00     0.013 A 
BRANCH  19  22
HETATM   22  C   UNL     1     -39.880  50.556 -53.709  1.00  0.00    -0.024 C 
HETATM   23  C   UNL     1     -41.040  49.813 -54.415  1.00  0.00     0.019 C 
HETATM   24  C   UNL     1     -39.645  49.879 -52.347  1.00  0.00     0.019 C 
HETATM   25  C   UNL     1     -38.631  50.363 -54.600  1.00  0.00     0.019 C 
ENDBRANCH  19  22
ENDBRANCH  15  16
ENDBRANCH   1  14
BRANCH  13  26
HETATM   26  N   UNL     1     -43.368  57.877 -50.709  1.00  0.00    -0.286 NA
HETATM   27  H   UNL     1     -44.050  57.426 -50.090  1.00  0.00     0.125 HD
HETATM   28  H   UNL     1     -42.461  57.414 -50.627  1.00  0.00     0.125 HD
ENDBRANCH  13  26
BRANCH  12  29
HETATM   29  C   UNL     1     -45.857  59.588 -51.607  1.00  0.00     0.257 C 
HETATM   30  N   UNL     1     -46.127  60.874 -52.034  1.00  0.00    -0.354 N 
HETATM   31  H   UNL     1     -45.612  61.188 -52.852  1.00  0.00     0.162 HD
HETATM   32  O   UNL     1     -46.337  59.095 -50.597  1.00  0.00    -0.267 OA
BRANCH  30  33
HETATM   33  C   UNL     1     -46.798  61.884 -51.242  1.00  0.00     0.155 C 
BRANCH  33  34
HETATM   34  C   UNL     1     -45.864  62.779 -50.407  1.00  0.00     0.139 C 
HETATM   35  O   UNL     1     -44.536  62.737 -50.961  1.00  0.00    -0.384 OA
HETATM   36  C   UNL     1     -43.628  62.259 -49.964  1.00  0.00     0.168 C 
HETATM   37  C   UNL     1     -44.465  61.603 -48.891  1.00  0.00     0.029 C 
HETATM   38  C   UNL     1     -45.734  62.420 -48.931  1.00  0.00     0.035 C 
ENDBRANCH  33  34
ENDBRANCH  30  33
ENDBRANCH  12  29
TORSDOF 7
ENDMDL
MODEL 7
REMARK VINA RESULT:      -7.9      2.737      8.128
REMARK  7 active torsions:
REMARK  status: ('A' for Active; 'I' for Inactive)
REMARK    1  A    between atoms: C_2  and  C_3 
REMARK    2  A    between atoms: C_6  and  C_7 
REMARK    3  A    between atoms: N_8  and  N_9 
REMARK    4  A    between atoms: C_20  and  C_21 
REMARK       I    between atoms: C_21  and  N_22 
REMARK    5  A    between atoms: N_22  and  C_23 
REMARK    6  A    between atoms: C_23  and  C_24 
REMARK    7  A    between atoms: C_30  and  N_31 
ROOT
HETATM    1  N   UNL     1     -44.315  57.290 -54.122  1.00  0.00    -0.202 N 
HETATM    2  C   UNL     1     -44.135  57.160 -55.485  1.00  0.00     0.183 A 
HETATM    3  C   UNL     1     -43.128  56.212 -55.675  1.00  0.00     0.124 A 
HETATM    4  N   UNL     1     -42.657  55.937 -56.918  1.00  0.00    -0.242 NA
HETATM    5  C   UNL     1     -43.276  56.580 -57.918  1.00  0.00     0.086 A 
HETATM    6  C   UNL     1     -44.321  57.515 -57.700  1.00  0.00     0.088 A 
HETATM    7  N   UNL     1     -44.758  57.847 -56.472  1.00  0.00    -0.225 NA
HETATM    8  C   UNL     1     -42.872  56.311 -59.220  1.00  0.00     0.034 A 
HETATM    9  C   UNL     1     -43.480  56.926 -60.315  1.00  0.00     0.002 A 
HETATM   10  C   UNL     1     -44.512  57.828 -60.105  1.00  0.00     0.002 A 
HETATM   11  C   UNL     1     -44.920  58.116 -58.801  1.00  0.00     0.034 A 
HETATM   12  C   UNL     1     -42.723  55.727 -54.400  1.00  0.00     0.104 C 
HETATM   13  C   UNL     1     -43.635  56.252 -53.496  1.00  0.00     0.123 C 
ENDROOT
BRANCH   1  14
HETATM   14  N   UNL     1     -44.876  58.267 -53.344  1.00  0.00    -0.176 NA
HETATM   15  C   UNL     1     -44.252  59.397 -53.303  1.00  0.00     0.150 C 
BRANCH  15  16
HETATM   16  C   UNL     1     -44.513  60.321 -52.173  1.00  0.00    -0.017 A 
HETATM   17  C   UNL     1     -45.818  60.737 -51.905  1.00  0.00     0.013 A 
HETATM   18  C   UNL     1     -46.124  61.365 -50.696  1.00  0.00     0.009 A 
HETATM   19  C   UNL     1     -45.134  61.590 -49.726  1.00  0.00    -0.051 A 
HETATM   20  C   UNL     1     -43.810  61.233 -50.054  1.00  0.00     0.009 A 
HETATM   21  C   UNL     1     -43.498  60.593 -51.261  1.00  0.00     0.013 A 
BRANCH  19  22
HETATM   22  C   UNL     1     -45.467  62.180 -48.343  1.00  0.00    -0.024 C 
HETATM   23  C   UNL     1     -45.221  61.198 -47.173  1.00  0.00     0.019 C 
HETATM   24  C   UNL     1     -46.951  62.587 -48.314  1.00  0.00     0.019 C 
HETATM   25  C   UNL     1     -44.589  63.422 -48.063  1.00  0.00     0.019 C 
ENDBRANCH  19  22
ENDBRANCH  15  16
ENDBRANCH   1  14
BRANCH  13  26
HETATM   26  N   UNL     1     -43.805  56.026 -52.155  1.00  0.00    -0.286 NA
HETATM   27  H   UNL     1     -43.738  56.869 -51.575  1.00  0.00     0.125 HD
HETATM   28  H   UNL     1     -44.620  55.475 -51.881  1.00  0.00     0.125 HD
ENDBRANCH  13  26
BRANCH  12  29
HETATM   29  C   UNL     1     -41.550  54.927 -54.062  1.00  0.00     0.257 C 
HETATM   30  N   UNL     1     -41.880  53.762 -53.397  1.00  0.00    -0.354 N 
HETATM   31  H   UNL     1     -42.872  53.610 -53.233  1.00  0.00     0.162 HD
HETATM   32  O   UNL     1     -40.399  55.288 -54.266  1.00  0.00    -0.267 OA
BRANCH  30  33
HETATM   33  C   UNL     1     -40.948  52.947 -52.644  1.00  0.00     0.155 C 
BRANCH  33  34
HETATM   34  C   UNL     1     -39.939  52.160 -53.499  1.00  0.00     0.139 C 
HETATM   35  O   UNL     1     -40.644  51.401 -54.499  1.00  0.00    -0.384 OA
HETATM   36  C   UNL     1     -40.344  50.013 -54.331  1.00  0.00     0.168 C 
HETATM   37  C   UNL     1     -39.762  49.857 -52.946  1.00  0.00     0.029 C 
HETATM   38  C   UNL     1     -39.051  51.174 -52.748  1.00  0.00     0.035 C 
ENDBRANCH  33  34
ENDBRANCH  30  33
ENDBRANCH  12  29
TORSDOF 7
ENDMDL
MODEL 8
REMARK VINA RESULT:      -7.7     16.755     21.164
REMARK  7 active torsions:
REMARK  status: ('A' for Active; 'I' for Inactive)
REMARK    1  A    between atoms: C_2  and  C_3 
REMARK    2  A    between atoms: C_6  and  C_7 
REMARK    3  A    between atoms: N_8  and  N_9 
REMARK    4  A    between atoms: C_20  and  C_21 
REMARK       I    between atoms: C_21  and  N_22 
REMARK    5  A    between atoms: N_22  and  C_23 
REMARK    6  A    between atoms: C_23  and  C_24 
REMARK    7  A    between atoms: C_30  and  N_31 
ROOT
HETATM    1  N   UNL     1     -34.991  39.790 -50.920  1.00  0.00    -0.202 N 
HETATM    2  C   UNL     1     -36.266  39.289 -50.738  1.00  0.00     0.183 A 
HETATM    3  C   UNL     1     -37.060  39.809 -51.760  1.00  0.00     0.124 A 
HETATM    4  N   UNL     1     -38.396  39.572 -51.792  1.00  0.00    -0.242 NA
HETATM    5  C   UNL     1     -38.855  38.759 -50.830  1.00  0.00     0.086 A 
HETATM    6  C   UNL     1     -38.018  38.215 -49.820  1.00  0.00     0.088 A 
HETATM    7  N   UNL     1     -36.705  38.490 -49.735  1.00  0.00    -0.225 NA
HETATM    8  C   UNL     1     -40.207  38.439 -50.831  1.00  0.00     0.034 A 
HETATM    9  C   UNL     1     -40.756  37.585 -49.874  1.00  0.00     0.002 A 
HETATM   10  C   UNL     1     -39.938  37.040 -48.896  1.00  0.00     0.002 A 
HETATM   11  C   UNL     1     -38.580  37.362 -48.877  1.00  0.00     0.034 A 
HETATM   12  C   UNL     1     -36.238  40.607 -52.603  1.00  0.00     0.104 C 
HETATM   13  C   UNL     1     -34.937  40.381 -52.177  1.00  0.00     0.123 C 
ENDROOT
BRANCH   1  14
HETATM   14  N   UNL     1     -33.913  39.924 -50.088  1.00  0.00    -0.176 NA
HETATM   15  C   UNL     1     -33.234  38.851 -49.851  1.00  0.00     0.150 C 
BRANCH  15  16
HETATM   16  C   UNL     1     -32.369  38.799 -48.648  1.00  0.00    -0.017 A 
HETATM   17  C   UNL     1     -31.423  39.802 -48.432  1.00  0.00     0.013 A 
HETATM   18  C   UNL     1     -30.805  39.932 -47.186  1.00  0.00     0.009 A 
HETATM   19  C   UNL     1     -31.119  39.065 -46.128  1.00  0.00    -0.051 A 
HETATM   20  C   UNL     1     -32.018  38.011 -46.396  1.00  0.00     0.009 A 
HETATM   21  C   UNL     1     -32.649  37.882 -47.640  1.00  0.00     0.013 A 
BRANCH  19  22
HETATM   22  C   UNL     1     -30.533  39.255 -44.716  1.00  0.00    -0.024 C 
HETATM   23  C   UNL     1     -29.363  38.295 -44.394  1.00  0.00     0.019 C 
HETATM   24  C   UNL     1     -31.642  39.013 -43.676  1.00  0.00     0.019 C 
HETATM   25  C   UNL     1     -29.980  40.690 -44.552  1.00  0.00     0.019 C 
ENDBRANCH  19  22
ENDBRANCH  15  16
ENDBRANCH   1  14
BRANCH  13  26
HETATM   26  N   UNL     1     -33.736  40.788 -52.697  1.00  0.00    -0.286 NA
HETATM   27  H   UNL     1     -33.768  41.023 -53.694  1.00  0.00     0.125 HD
HETATM   28  H   UNL     1     -33.233  41.513 -52.181  1.00  0.00     0.125 HD
ENDBRANCH  13  26
BRANCH  12  29
HETATM   29  C   UNL     1     -36.644  41.549 -53.643  1.00  0.00     0.257 C 
HETATM   30  N   UNL     1     -37.587  41.015 -54.499  1.00  0.00    -0.354 N 
HETATM   31  H   UNL     1     -37.875  40.060 -54.303  1.00  0.00     0.162 HD
HETATM   32  O   UNL     1     -36.143  42.655 -53.791  1.00  0.00    -0.267 OA
BRANCH  30  33
HETATM   33  C   UNL     1     -37.927  41.559 -55.798  1.00  0.00     0.155 C 
BRANCH  33  34
HETATM   34  C   UNL     1     -37.080  41.024 -56.966  1.00  0.00     0.139 C 
HETATM   35  O   UNL     1     -36.300  39.899 -56.520  1.00  0.00    -0.384 OA
HETATM   36  C   UNL     1     -34.912  40.184 -56.716  1.00  0.00     0.168 C 
HETATM   37  C   UNL     1     -34.797  41.677 -56.911  1.00  0.00     0.029 C 
HETATM   38  C   UNL     1     -36.102  42.012 -57.593  1.00  0.00     0.035 C 
ENDBRANCH  33  34
ENDBRANCH  30  33
ENDBRANCH  12  29
TORSDOF 7
ENDMDL
MODEL 9
REMARK VINA RESULT:      -7.4      2.866      8.120
REMARK  7 active torsions:
REMARK  status: ('A' for Active; 'I' for Inactive)
REMARK    1  A    between atoms: C_2  and  C_3 
REMARK    2  A    between atoms: C_6  and  C_7 
REMARK    3  A    between atoms: N_8  and  N_9 
REMARK    4  A    between atoms: C_20  and  C_21 
REMARK       I    between atoms: C_21  and  N_22 
REMARK    5  A    between atoms: N_22  and  C_23 
REMARK    6  A    between atoms: C_23  and  C_24 
REMARK    7  A    between atoms: C_30  and  N_31 
ROOT
HETATM    1  N   UNL     1     -41.131  58.537 -53.597  1.00  0.00    -0.202 N 
HETATM    2  C   UNL     1     -41.721  59.507 -54.385  1.00  0.00     0.183 A 
HETATM    3  C   UNL     1     -42.205  60.493 -53.524  1.00  0.00     0.124 A 
HETATM    4  N   UNL     1     -42.927  61.539 -54.001  1.00  0.00    -0.242 NA
HETATM    5  C   UNL     1     -43.064  61.579 -55.333  1.00  0.00     0.086 A 
HETATM    6  C   UNL     1     -42.532  60.579 -56.190  1.00  0.00     0.088 A 
HETATM    7  N   UNL     1     -41.868  59.503 -55.732  1.00  0.00    -0.225 NA
HETATM    8  C   UNL     1     -43.755  62.647 -55.891  1.00  0.00     0.034 A 
HETATM    9  C   UNL     1     -43.923  62.769 -57.271  1.00  0.00     0.002 A 
HETATM   10  C   UNL     1     -43.390  61.802 -58.110  1.00  0.00     0.002 A 
HETATM   11  C   UNL     1     -42.704  60.717 -57.563  1.00  0.00     0.034 A 
HETATM   12  C   UNL     1     -41.862  60.132 -52.192  1.00  0.00     0.104 C 
HETATM   13  C   UNL     1     -41.010  59.044 -52.309  1.00  0.00     0.123 C 
ENDROOT
BRANCH   1  14
HETATM   14  N   UNL     1     -40.811  57.225 -53.817  1.00  0.00    -0.176 NA
HETATM   15  C   UNL     1     -41.796  56.389 -53.832  1.00  0.00     0.150 C 
BRANCH  15  16
HETATM   16  C   UNL     1     -41.520  54.950 -53.605  1.00  0.00    -0.017 A 
HETATM   17  C   UNL     1     -41.822  54.021 -54.603  1.00  0.00     0.013 A 
HETATM   18  C   UNL     1     -41.317  52.721 -54.532  1.00  0.00     0.009 A 
HETATM   19  C   UNL     1     -40.498  52.319 -53.465  1.00  0.00    -0.051 A 
HETATM   20  C   UNL     1     -40.274  53.252 -52.431  1.00  0.00     0.009 A 
HETATM   21  C   UNL     1     -40.768  54.561 -52.501  1.00  0.00     0.013 A 
BRANCH  19  22
HETATM   22  C   UNL     1     -39.841  50.927 -53.420  1.00  0.00    -0.024 C 
HETATM   23  C   UNL     1     -39.736  50.334 -51.994  1.00  0.00     0.019 C 
HETATM   24  C   UNL     1     -38.416  51.025 -53.996  1.00  0.00     0.019 C 
HETATM   25  C   UNL     1     -40.662  49.917 -54.254  1.00  0.00     0.019 C 
ENDBRANCH  19  22
ENDBRANCH  15  16
ENDBRANCH   1  14
BRANCH  13  26
HETATM   26  N   UNL     1     -40.282  58.365 -51.367  1.00  0.00    -0.286 NA
HETATM   27  H   UNL     1     -39.379  58.797 -51.142  1.00  0.00     0.125 HD
HETATM   28  H   UNL     1     -40.769  58.104 -50.508  1.00  0.00     0.125 HD
ENDBRANCH  13  26
BRANCH  12  29
HETATM   29  C   UNL     1     -42.355  60.699 -50.940  1.00  0.00     0.257 C 
HETATM   30  N   UNL     1     -43.060  61.871 -51.134  1.00  0.00    -0.354 N 
HETATM   31  H   UNL     1     -43.148  62.183 -52.097  1.00  0.00     0.162 HD
HETATM   32  O   UNL     1     -42.099  60.237 -49.837  1.00  0.00    -0.267 OA
BRANCH  30  33
HETATM   33  C   UNL     1     -43.373  62.829 -50.093  1.00  0.00     0.155 C 
BRANCH  33  34
HETATM   34  C   UNL     1     -44.795  62.717 -49.514  1.00  0.00     0.139 C 
HETATM   35  O   UNL     1     -44.721  62.362 -48.121  1.00  0.00    -0.384 OA
HETATM   36  C   UNL     1     -45.420  61.132 -47.912  1.00  0.00     0.168 C 
HETATM   37  C   UNL     1     -45.589  60.491 -49.270  1.00  0.00     0.029 C 
HETATM   38  C   UNL     1     -45.710  61.692 -50.177  1.00  0.00     0.035 C 
ENDBRANCH  33  34
ENDBRANCH  30  33
ENDBRANCH  12  29
TORSDOF 7
ENDMDL
MODEL 10
REMARK VINA RESULT:      -7.3      3.149      8.265
REMARK  7 active torsions:
REMARK  status: ('A' for Active; 'I' for Inactive)
REMARK    1  A    between atoms: C_2  and  C_3 
REMARK    2  A    between atoms: C_6  and  C_7 
REMARK    3  A    between atoms: N_8  and  N_9 
REMARK    4  A    between atoms: C_20  and  C_21 
REMARK       I    between atoms: C_21  and  N_22 
REMARK    5  A    between atoms: N_22  and  C_23 
REMARK    6  A    between atoms: C_23  and  C_24 
REMARK    7  A    between atoms: C_30  and  N_31 
ROOT
HETATM    1  N   UNL     1     -42.671  58.114 -52.085  1.00  0.00    -0.202 N 
HETATM    2  C   UNL     1     -43.428  58.771 -53.036  1.00  0.00     0.183 A 
HETATM    3  C   UNL     1     -43.729  60.031 -52.519  1.00  0.00     0.124 A 
HETATM    4  N   UNL     1     -44.549  60.881 -53.190  1.00  0.00    -0.242 NA
HETATM    5  C   UNL     1     -44.968  60.445 -54.386  1.00  0.00     0.086 A 
HETATM    6  C   UNL     1     -44.618  59.170 -54.905  1.00  0.00     0.088 A 
HETATM    7  N   UNL     1     -43.859  58.291 -54.228  1.00  0.00    -0.225 NA
HETATM    8  C   UNL     1     -45.775  61.284 -55.144  1.00  0.00     0.034 A 
HETATM    9  C   UNL     1     -46.235  60.909 -56.407  1.00  0.00     0.002 A 
HETATM   10  C   UNL     1     -45.882  59.671 -56.922  1.00  0.00     0.002 A 
HETATM   11  C   UNL     1     -45.081  58.814 -56.166  1.00  0.00     0.034 A 
HETATM   12  C   UNL     1     -43.105  60.154 -51.247  1.00  0.00     0.104 C 
HETATM   13  C   UNL     1     -42.284  59.042 -51.126  1.00  0.00     0.123 C 
ENDROOT
BRANCH   1  14
HETATM   14  N   UNL     1     -42.389  56.793 -51.867  1.00  0.00    -0.176 NA
HETATM   15  C   UNL     1     -41.326  56.331 -52.437  1.00  0.00     0.150 C 
BRANCH  15  16
HETATM   16  C   UNL     1     -41.195  54.868 -52.636  1.00  0.00    -0.017 A 
HETATM   17  C   UNL     1     -41.415  54.318 -53.901  1.00  0.00     0.013 A 
HETATM   18  C   UNL     1     -41.025  53.006 -54.178  1.00  0.00     0.009 A 
HETATM   19  C   UNL     1     -40.404  52.214 -53.199  1.00  0.00    -0.051 A 
HETATM   20  C   UNL     1     -40.266  52.765 -51.908  1.00  0.00     0.009 A 
HETATM   21  C   UNL     1     -40.645  54.084 -51.627  1.00  0.00     0.013 A 
BRANCH  19  22
HETATM   22  C   UNL     1     -39.867  50.805 -53.512  1.00  0.00    -0.024 C 
HETATM   23  C   UNL     1     -39.669  49.923 -52.255  1.00  0.00     0.019 C 
HETATM   24  C   UNL     1     -38.505  50.931 -54.218  1.00  0.00     0.019 C 
HETATM   25  C   UNL     1     -40.852  50.045 -54.429  1.00  0.00     0.019 C 
ENDBRANCH  19  22
ENDBRANCH  15  16
ENDBRANCH   1  14
BRANCH  13  26
HETATM   26  N   UNL     1     -41.363  58.703 -50.170  1.00  0.00    -0.286 NA
HETATM   27  H   UNL     1     -40.897  59.504 -49.732  1.00  0.00     0.125 HD
HETATM   28  H   UNL     1     -41.666  58.039 -49.455  1.00  0.00     0.125 HD
ENDBRANCH  13  26
BRANCH  12  29
HETATM   29  C   UNL     1     -43.326  61.167 -50.218  1.00  0.00     0.257 C 
HETATM   30  N   UNL     1     -43.926  60.648 -49.088  1.00  0.00    -0.354 N 
HETATM   31  H   UNL     1     -44.132  59.652 -49.111  1.00  0.00     0.162 HD
HETATM   32  O   UNL     1     -43.087  62.357 -50.373  1.00  0.00    -0.267 OA
BRANCH  30  33
HETATM   33  C   UNL     1     -44.572  61.437 -48.059  1.00  0.00     0.155 C 
BRANCH  33  34
HETATM   34  C   UNL     1     -46.106  61.512 -48.166  1.00  0.00     0.139 C 
HETATM   35  O   UNL     1     -46.478  61.855 -49.514  1.00  0.00    -0.384 OA
HETATM   36  C   UNL     1     -47.236  63.067 -49.496  1.00  0.00     0.168 C 
HETATM   37  C   UNL     1     -46.989  63.716 -48.155  1.00  0.00     0.029 C 
HETATM   38  C   UNL     1     -46.793  62.522 -47.253  1.00  0.00     0.035 C 
ENDBRANCH  33  34
ENDBRANCH  30  33
ENDBRANCH  12  29
TORSDOF 7
ENDMDL
