MODEL 1
REMARK VINA RESULT:      -7.8      0.000      0.000
REMARK  6 active torsions:
REMARK  status: ('A' for Active; 'I' for Inactive)
REMARK    1  A    between atoms: C_2  and  N_3 
REMARK    2  A    between atoms: C_2  and  C_24 
REMARK       I    between atoms: N_3  and  C_4 
REMARK    3  A    between atoms: C_4  and  C_5 
REMARK    4  A    between atoms: C_5  and  N_6 
REMARK    5  A    between atoms: C_10  and  N_11 
REMARK       I    between atoms: N_11  and  C_12 
REMARK       I    between atoms: C_12  and  N_13 
REMARK    6  A    between atoms: N_13  and  C_14 
ROOT
HETATM    1  N   UNL     1     -41.737  56.769 -51.420  1.00  0.00    -0.063 N 
HETATM    2  H   UNL     1     -41.696  56.321 -52.350  1.00  0.00     0.280 HD
HETATM    3  C   UNL     1     -43.146  56.580 -50.911  1.00  0.00     0.237 C 
HETATM    4  C   UNL     1     -44.131  57.538 -51.554  1.00  0.00     0.053 C 
HETATM    5  C   UNL     1     -43.668  58.992 -51.626  1.00  0.00     0.089 C 
HETATM    6  C   UNL     1     -42.258  59.091 -52.198  1.00  0.00     0.053 C 
HETATM    7  C   UNL     1     -41.251  58.186 -51.520  1.00  0.00     0.237 C 
ENDROOT
BRANCH   1   8
HETATM    8  C   UNL     1     -40.751  55.953 -50.553  1.00  0.00     0.337 C 
BRANCH   8   9
HETATM    9  C   UNL     1     -41.289  54.553 -50.274  1.00  0.00     0.244 C 
HETATM   10  N   UNL     1     -41.211  53.550 -51.182  1.00  0.00    -0.351 N 
HETATM   11  H   UNL     1     -41.675  52.710 -50.847  1.00  0.00     0.163 HD
HETATM   12  O   UNL     1     -41.790  54.324 -49.168  1.00  0.00    -0.272 OA
BRANCH  10  13
HETATM   13  C   UNL     1     -40.819  53.488 -52.593  1.00  0.00     0.120 C 
HETATM   14  C   UNL     1     -41.821  54.044 -53.601  1.00  0.00     0.038 C 
BRANCH  13  15
HETATM   15  C   UNL     1     -40.321  52.117 -52.979  1.00  0.00     0.005 A 
HETATM   16  S   UNL     1     -39.650  51.016 -51.848  1.00  0.00    -0.104 SA
HETATM   17  C   UNL     1     -39.413  49.816 -53.038  1.00  0.00     0.050 A 
HETATM   18  C   UNL     1     -39.850  50.226 -54.275  1.00  0.00     0.008 A 
HETATM   19  C   UNL     1     -40.372  51.551 -54.242  1.00  0.00     0.017 A 
ENDBRANCH  13  15
ENDBRANCH  10  13
ENDBRANCH   8   9
ENDBRANCH   1   8
BRANCH   5  20
HETATM   20  N   UNL     1     -43.883  59.774 -50.408  1.00  0.00    -0.338 N 
HETATM   21  C   UNL     1     -45.073  60.025 -49.785  1.00  0.00     0.316 C 
HETATM   22  N   UNL     1     -44.912  60.741 -48.633  1.00  0.00    -0.339 N 
HETATM   23  O   UNL     1     -46.156  59.636 -50.200  1.00  0.00    -0.247 OA
HETATM   24  H   UNL     1     -44.078  61.308 -48.567  1.00  0.00     0.164 HD
HETATM   25  H   UNL     1     -43.067  59.929 -49.829  1.00  0.00     0.164 HD
BRANCH  22  26
HETATM   26  C   UNL     1     -46.068  61.191 -47.858  1.00  0.00     0.086 C 
HETATM   27  C   UNL     1     -46.038  60.606 -46.441  1.00  0.00     0.025 C 
HETATM   28  C   UNL     1     -44.976  61.251 -45.552  1.00  0.00     0.002 C 
HETATM   29  C   UNL     1     -45.101  62.772 -45.536  1.00  0.00     0.000 C 
HETATM   30  C   UNL     1     -45.082  63.356 -46.944  1.00  0.00     0.002 C 
HETATM   31  C   UNL     1     -46.156  62.723 -47.830  1.00  0.00     0.025 C 
ENDBRANCH  22  26
ENDBRANCH   5  20
TORSDOF 6
ENDMDL
MODEL 2
REMARK VINA RESULT:      -7.7      4.245      7.599
REMARK  6 active torsions:
REMARK  status: ('A' for Active; 'I' for Inactive)
REMARK    1  A    between atoms: C_2  and  N_3 
REMARK    2  A    between atoms: C_2  and  C_24 
REMARK       I    between atoms: N_3  and  C_4 
REMARK    3  A    between atoms: C_4  and  C_5 
REMARK    4  A    between atoms: C_5  and  N_6 
REMARK    5  A    between atoms: C_10  and  N_11 
REMARK       I    between atoms: N_11  and  C_12 
REMARK       I    between atoms: C_12  and  N_13 
REMARK    6  A    between atoms: N_13  and  C_14 
ROOT
HETATM    1  N   UNL     1     -42.274  57.516 -51.824  1.00  0.00    -0.063 N 
HETATM    2  H   UNL     1     -42.072  58.272 -51.149  1.00  0.00     0.280 HD
HETATM    3  C   UNL     1     -41.249  57.635 -52.927  1.00  0.00     0.237 C 
HETATM    4  C   UNL     1     -41.568  58.756 -53.898  1.00  0.00     0.053 C 
HETATM    5  C   UNL     1     -43.020  58.813 -54.368  1.00  0.00     0.089 C 
HETATM    6  C   UNL     1     -43.982  58.737 -53.186  1.00  0.00     0.053 C 
HETATM    7  C   UNL     1     -43.713  57.584 -52.243  1.00  0.00     0.237 C 
ENDROOT
BRANCH   1   8
HETATM    8  C   UNL     1     -42.037  56.212 -51.026  1.00  0.00     0.337 C 
BRANCH   8   9
HETATM    9  C   UNL     1     -43.102  55.168 -51.344  1.00  0.00     0.244 C 
HETATM   10  N   UNL     1     -43.002  54.324 -52.399  1.00  0.00    -0.351 N 
HETATM   11  H   UNL     1     -43.831  53.744 -52.490  1.00  0.00     0.163 HD
HETATM   12  O   UNL     1     -44.081  55.078 -50.594  1.00  0.00    -0.272 OA
BRANCH  10  13
HETATM   13  C   UNL     1     -42.085  54.231 -53.539  1.00  0.00     0.120 C 
HETATM   14  C   UNL     1     -42.723  54.240 -54.925  1.00  0.00     0.038 C 
BRANCH  13  15
HETATM   15  C   UNL     1     -41.094  53.105 -53.373  1.00  0.00     0.005 A 
HETATM   16  S   UNL     1     -40.224  52.836 -51.920  1.00  0.00    -0.104 SA
HETATM   17  C   UNL     1     -39.436  51.461 -52.555  1.00  0.00     0.050 A 
HETATM   18  C   UNL     1     -39.833  51.190 -53.843  1.00  0.00     0.008 A 
HETATM   19  C   UNL     1     -40.787  52.137 -54.315  1.00  0.00     0.017 A 
ENDBRANCH  13  15
ENDBRANCH  10  13
ENDBRANCH   8   9
ENDBRANCH   1   8
BRANCH   5  20
HETATM   20  N   UNL     1     -43.353  57.917 -55.475  1.00  0.00    -0.338 N 
HETATM   21  C   UNL     1     -43.084  58.106 -56.801  1.00  0.00     0.316 C 
HETATM   22  N   UNL     1     -43.478  57.044 -57.565  1.00  0.00    -0.339 N 
HETATM   23  O   UNL     1     -42.536  59.103 -57.252  1.00  0.00    -0.247 OA
HETATM   24  H   UNL     1     -44.215  56.465 -57.188  1.00  0.00     0.164 HD
HETATM   25  H   UNL     1     -43.567  56.959 -55.224  1.00  0.00     0.164 HD
BRANCH  22  26
HETATM   26  C   UNL     1     -43.361  57.080 -59.023  1.00  0.00     0.086 C 
HETATM   27  C   UNL     1     -43.038  55.689 -59.580  1.00  0.00     0.025 C 
HETATM   28  C   UNL     1     -44.230  54.734 -59.529  1.00  0.00     0.002 C 
HETATM   29  C   UNL     1     -45.466  55.337 -60.190  1.00  0.00     0.000 C 
HETATM   30  C   UNL     1     -45.813  56.700 -59.601  1.00  0.00     0.002 C 
HETATM   31  C   UNL     1     -44.627  57.662 -59.668  1.00  0.00     0.025 C 
ENDBRANCH  22  26
ENDBRANCH   5  20
TORSDOF 6
ENDMDL
MODEL 3
REMARK VINA RESULT:      -7.5      4.508      7.984
REMARK  6 active torsions:
REMARK  status: ('A' for Active; 'I' for Inactive)
REMARK    1  A    between atoms: C_2  and  N_3 
REMARK    2  A    between atoms: C_2  and  C_24 
REMARK       I    between atoms: N_3  and  C_4 
REMARK    3  A    between atoms: C_4  and  C_5 
REMARK    4  A    between atoms: C_5  and  N_6 
REMARK    5  A    between atoms: C_10  and  N_11 
REMARK       I    between atoms: N_11  and  C_12 
REMARK       I    between atoms: C_12  and  N_13 
REMARK    6  A    between atoms: N_13  and  C_14 
ROOT
HETATM    1  N   UNL     1     -43.338  57.764 -51.978  1.00  0.00    -0.063 N 
HETATM    2  H   UNL     1     -43.168  58.537 -51.314  1.00  0.00     0.280 HD
HETATM    3  C   UNL     1     -42.250  57.843 -53.022  1.00  0.00     0.237 C 
HETATM    4  C   UNL     1     -42.500  58.939 -54.041  1.00  0.00     0.053 C 
HETATM    5  C   UNL     1     -43.922  58.996 -54.596  1.00  0.00     0.089 C 
HETATM    6  C   UNL     1     -44.951  58.963 -53.471  1.00  0.00     0.053 C 
HETATM    7  C   UNL     1     -44.750  57.833 -52.482  1.00  0.00     0.237 C 
ENDROOT
BRANCH   1   8
HETATM    8  C   UNL     1     -43.163  56.481 -51.132  1.00  0.00     0.337 C 
BRANCH   8   9
HETATM    9  C   UNL     1     -41.697  56.251 -50.776  1.00  0.00     0.244 C 
HETATM   10  N   UNL     1     -40.988  55.201 -51.257  1.00  0.00    -0.351 N 
HETATM   11  H   UNL     1     -40.051  55.176 -50.864  1.00  0.00     0.163 HD
HETATM   12  O   UNL     1     -41.134  57.070 -50.041  1.00  0.00    -0.272 OA
BRANCH  10  13
HETATM   13  C   UNL     1     -41.344  54.000 -52.019  1.00  0.00     0.120 C 
HETATM   14  C   UNL     1     -40.364  52.834 -51.943  1.00  0.00     0.038 C 
BRANCH  13  15
HETATM   15  C   UNL     1     -41.732  54.330 -53.438  1.00  0.00     0.005 A 
HETATM   16  S   UNL     1     -40.592  54.798 -54.632  1.00  0.00    -0.104 SA
HETATM   17  C   UNL     1     -41.792  54.929 -55.839  1.00  0.00     0.050 A 
HETATM   18  C   UNL     1     -43.039  54.606 -55.360  1.00  0.00     0.008 A 
HETATM   19  C   UNL     1     -43.006  54.262 -53.978  1.00  0.00     0.017 A 
ENDBRANCH  13  15
ENDBRANCH  10  13
ENDBRANCH   8   9
ENDBRANCH   1   8
BRANCH   5  20
HETATM   20  N   UNL     1     -44.199  58.072 -55.696  1.00  0.00    -0.338 N 
HETATM   21  C   UNL     1     -43.759  58.167 -56.986  1.00  0.00     0.316 C 
HETATM   22  N   UNL     1     -44.152  57.102 -57.745  1.00  0.00    -0.339 N 
HETATM   23  O   UNL     1     -43.075  59.089 -57.408  1.00  0.00    -0.247 OA
HETATM   24  H   UNL     1     -44.977  56.607 -57.436  1.00  0.00     0.164 HD
HETATM   25  H   UNL     1     -44.525  57.151 -55.432  1.00  0.00     0.164 HD
BRANCH  22  26
HETATM   26  C   UNL     1     -43.861  57.049 -59.178  1.00  0.00     0.086 C 
HETATM   27  C   UNL     1     -43.264  55.691 -59.565  1.00  0.00     0.025 C 
HETATM   28  C   UNL     1     -44.294  54.563 -59.560  1.00  0.00     0.002 C 
HETATM   29  C   UNL     1     -45.515  54.909 -60.408  1.00  0.00     0.000 C 
HETATM   30  C   UNL     1     -46.136  56.237 -59.989  1.00  0.00     0.002 C 
HETATM   31  C   UNL     1     -45.109  57.370 -60.011  1.00  0.00     0.025 C 
ENDBRANCH  22  26
ENDBRANCH   5  20
TORSDOF 6
ENDMDL
MODEL 4
REMARK VINA RESULT:      -7.4      1.439      1.787
REMARK  6 active torsions:
REMARK  status: ('A' for Active; 'I' for Inactive)
REMARK    1  A    between atoms: C_2  and  N_3 
REMARK    2  A    between atoms: C_2  and  C_24 
REMARK       I    between atoms: N_3  and  C_4 
REMARK    3  A    between atoms: C_4  and  C_5 
REMARK    4  A    between atoms: C_5  and  N_6 
REMARK    5  A    between atoms: C_10  and  N_11 
REMARK       I    between atoms: N_11  and  C_12 
REMARK       I    between atoms: C_12  and  N_13 
REMARK    6  A    between atoms: N_13  and  C_14 
ROOT
HETATM    1  N   UNL     1     -42.174  58.546 -52.807  1.00  0.00    -0.063 N 
HETATM    2  H   UNL     1     -42.246  58.627 -53.834  1.00  0.00     0.280 HD
HETATM    3  C   UNL     1     -43.507  58.034 -52.318  1.00  0.00     0.237 C 
HETATM    4  C   UNL     1     -44.569  59.117 -52.283  1.00  0.00     0.053 C 
HETATM    5  C   UNL     1     -44.126  60.439 -51.658  1.00  0.00     0.089 C 
HETATM    6  C   UNL     1     -42.798  60.904 -52.246  1.00  0.00     0.053 C 
HETATM    7  C   UNL     1     -41.710  59.852 -52.228  1.00  0.00     0.237 C 
ENDROOT
BRANCH   1   8
HETATM    8  C   UNL     1     -41.083  57.473 -52.579  1.00  0.00     0.337 C 
BRANCH   8   9
HETATM    9  C   UNL     1     -41.209  56.843 -51.195  1.00  0.00     0.244 C 
HETATM   10  N   UNL     1     -41.604  55.559 -51.013  1.00  0.00    -0.351 N 
HETATM   11  H   UNL     1     -41.689  55.335 -50.026  1.00  0.00     0.163 HD
HETATM   12  O   UNL     1     -40.914  57.526 -50.208  1.00  0.00    -0.272 OA
BRANCH  10  13
HETATM   13  C   UNL     1     -42.141  54.528 -51.906  1.00  0.00     0.120 C 
HETATM   14  C   UNL     1     -43.506  53.955 -51.536  1.00  0.00     0.038 C 
BRANCH  13  15
HETATM   15  C   UNL     1     -41.127  53.449 -52.192  1.00  0.00     0.005 A 
HETATM   16  S   UNL     1     -40.227  52.664 -50.961  1.00  0.00    -0.104 SA
HETATM   17  C   UNL     1     -39.425  51.656 -52.080  1.00  0.00     0.050 A 
HETATM   18  C   UNL     1     -39.839  51.890 -53.370  1.00  0.00     0.008 A 
HETATM   19  C   UNL     1     -40.818  52.922 -53.435  1.00  0.00     0.017 A 
ENDBRANCH  13  15
ENDBRANCH  10  13
ENDBRANCH   8   9
ENDBRANCH   1   8
BRANCH   5  20
HETATM   20  N   UNL     1     -44.191  60.490 -50.198  1.00  0.00    -0.338 N 
HETATM   21  C   UNL     1     -45.297  60.711 -49.427  1.00  0.00     0.316 C 
HETATM   22  N   UNL     1     -45.020  60.635 -48.091  1.00  0.00    -0.339 N 
HETATM   23  O   UNL     1     -46.412  60.931 -49.879  1.00  0.00    -0.247 OA
HETATM   24  H   UNL     1     -44.064  60.813 -47.818  1.00  0.00     0.164 HD
HETATM   25  H   UNL     1     -43.412  60.075 -49.702  1.00  0.00     0.164 HD
BRANCH  22  26
HETATM   26  C   UNL     1     -46.047  60.925 -47.090  1.00  0.00     0.086 C 
HETATM   27  C   UNL     1     -45.687  60.297 -45.739  1.00  0.00     0.025 C 
HETATM   28  C   UNL     1     -44.547  61.024 -45.028  1.00  0.00     0.002 C 
HETATM   29  C   UNL     1     -44.821  62.520 -44.904  1.00  0.00     0.000 C 
HETATM   30  C   UNL     1     -45.132  63.152 -46.256  1.00  0.00     0.002 C 
HETATM   31  C   UNL     1     -46.284  62.436 -46.961  1.00  0.00     0.025 C 
ENDBRANCH  22  26
ENDBRANCH   5  20
TORSDOF 6
ENDMDL
MODEL 5
REMARK VINA RESULT:      -6.9      3.588      6.437
REMARK  6 active torsions:
REMARK  status: ('A' for Active; 'I' for Inactive)
REMARK    1  A    between atoms: C_2  and  N_3 
REMARK    2  A    between atoms: C_2  and  C_24 
REMARK       I    between atoms: N_3  and  C_4 
REMARK    3  A    between atoms: C_4  and  C_5 
REMARK    4  A    between atoms: C_5  and  N_6 
REMARK    5  A    between atoms: C_10  and  N_11 
REMARK       I    between atoms: N_11  and  C_12 
REMARK       I    between atoms: C_12  and  N_13 
REMARK    6  A    between atoms: N_13  and  C_14 
ROOT
HETATM    1  N   UNL     1     -41.804  56.775 -50.324  1.00  0.00    -0.063 N 
HETATM    2  H   UNL     1     -42.127  56.986 -49.366  1.00  0.00     0.280 HD
HETATM    3  C   UNL     1     -41.313  58.077 -50.912  1.00  0.00     0.237 C 
HETATM    4  C   UNL     1     -42.448  58.978 -51.359  1.00  0.00     0.053 C 
HETATM    5  C   UNL     1     -43.544  58.286 -52.167  1.00  0.00     0.089 C 
HETATM    6  C   UNL     1     -44.014  57.011 -51.475  1.00  0.00     0.053 C 
HETATM    7  C   UNL     1     -42.893  56.073 -51.081  1.00  0.00     0.237 C 
ENDROOT
BRANCH   1   8
HETATM    8  C   UNL     1     -40.614  55.806 -50.127  1.00  0.00     0.337 C 
BRANCH   8   9
HETATM    9  C   UNL     1     -41.097  54.407 -49.760  1.00  0.00     0.244 C 
HETATM   10  N   UNL     1     -40.828  53.320 -50.524  1.00  0.00    -0.351 N 
HETATM   11  H   UNL     1     -41.281  52.488 -50.157  1.00  0.00     0.163 HD
HETATM   12  O   UNL     1     -41.735  54.261 -48.711  1.00  0.00    -0.272 OA
BRANCH  10  13
HETATM   13  C   UNL     1     -40.234  53.136 -51.851  1.00  0.00     0.120 C 
HETATM   14  C   UNL     1     -40.935  53.839 -53.010  1.00  0.00     0.038 C 
BRANCH  13  15
HETATM   15  C   UNL     1     -39.958  51.684 -52.147  1.00  0.00     0.005 A 
HETATM   16  S   UNL     1     -39.807  51.069 -53.742  1.00  0.00    -0.104 SA
HETATM   17  C   UNL     1     -39.491  49.486 -53.186  1.00  0.00     0.050 A 
HETATM   18  C   UNL     1     -39.479  49.417 -51.813  1.00  0.00     0.008 A 
HETATM   19  C   UNL     1     -39.749  50.681 -51.215  1.00  0.00     0.017 A 
ENDBRANCH  13  15
ENDBRANCH  10  13
ENDBRANCH   8   9
ENDBRANCH   1   8
BRANCH   5  20
HETATM   20  N   UNL     1     -43.262  58.131 -53.594  1.00  0.00    -0.338 N 
HETATM   21  C   UNL     1     -43.664  58.950 -54.611  1.00  0.00     0.316 C 
HETATM   22  N   UNL     1     -43.175  58.549 -55.822  1.00  0.00    -0.339 N 
HETATM   23  O   UNL     1     -44.363  59.941 -54.453  1.00  0.00    -0.247 OA
HETATM   24  H   UNL     1     -42.934  57.571 -55.910  1.00  0.00     0.164 HD
HETATM   25  H   UNL     1     -42.493  57.516 -53.831  1.00  0.00     0.164 HD
BRANCH  22  26
HETATM   26  C   UNL     1     -43.557  59.238 -57.055  1.00  0.00     0.086 C 
HETATM   27  C   UNL     1     -42.361  59.361 -58.005  1.00  0.00     0.025 C 
HETATM   28  C   UNL     1     -41.982  58.035 -58.663  1.00  0.00     0.002 C 
HETATM   29  C   UNL     1     -43.180  57.378 -59.341  1.00  0.00     0.000 C 
HETATM   30  C   UNL     1     -44.353  57.213 -58.380  1.00  0.00     0.002 C 
HETATM   31  C   UNL     1     -44.744  58.542 -57.735  1.00  0.00     0.025 C 
ENDBRANCH  22  26
ENDBRANCH   5  20
TORSDOF 6
ENDMDL
MODEL 6
REMARK VINA RESULT:      -6.8      4.567      7.546
REMARK  6 active torsions:
REMARK  status: ('A' for Active; 'I' for Inactive)
REMARK    1  A    between atoms: C_2  and  N_3 
REMARK    2  A    between atoms: C_2  and  C_24 
REMARK       I    between atoms: N_3  and  C_4 
REMARK    3  A    between atoms: C_4  and  C_5 
REMARK    4  A    between atoms: C_5  and  N_6 
REMARK    5  A    between atoms: C_10  and  N_11 
REMARK       I    between atoms: N_11  and  C_12 
REMARK       I    between atoms: C_12  and  N_13 
REMARK    6  A    between atoms: N_13  and  C_14 
ROOT
HETATM    1  N   UNL     1     -43.907  60.543 -55.295  1.00  0.00    -0.063 N 
HETATM    2  H   UNL     1     -44.426  61.433 -55.218  1.00  0.00     0.280 HD
HETATM    3  C   UNL     1     -44.834  59.457 -54.803  1.00  0.00     0.237 C 
HETATM    4  C   UNL     1     -44.929  59.415 -53.289  1.00  0.00     0.053 C 
HETATM    5  C   UNL     1     -43.592  59.494 -52.554  1.00  0.00     0.089 C 
HETATM    6  C   UNL     1     -42.744  60.647 -53.081  1.00  0.00     0.053 C 
HETATM    7  C   UNL     1     -42.589  60.663 -54.587  1.00  0.00     0.237 C 
ENDROOT
BRANCH   1   8
HETATM    8  C   UNL     1     -43.656  60.371 -56.812  1.00  0.00     0.337 C 
BRANCH   8   9
HETATM    9  C   UNL     1     -42.335  59.656 -57.075  1.00  0.00     0.244 C 
HETATM   10  N   UNL     1     -42.247  58.308 -57.186  1.00  0.00    -0.351 N 
HETATM   11  H   UNL     1     -41.283  58.008 -57.298  1.00  0.00     0.163 HD
HETATM   12  O   UNL     1     -41.314  60.338 -57.218  1.00  0.00    -0.272 OA
BRANCH  10  13
HETATM   13  C   UNL     1     -43.187  57.208 -56.953  1.00  0.00     0.120 C 
HETATM   14  C   UNL     1     -42.755  56.149 -55.943  1.00  0.00     0.038 C 
BRANCH  13  15
HETATM   15  C   UNL     1     -43.674  56.601 -58.245  1.00  0.00     0.005 A 
HETATM   16  S   UNL     1     -44.503  57.504 -59.446  1.00  0.00    -0.104 SA
HETATM   17  C   UNL     1     -44.632  56.154 -60.483  1.00  0.00     0.050 A 
HETATM   18  C   UNL     1     -44.043  55.035 -59.944  1.00  0.00     0.008 A 
HETATM   19  C   UNL     1     -43.492  55.291 -58.656  1.00  0.00     0.017 A 
ENDBRANCH  13  15
ENDBRANCH  10  13
ENDBRANCH   8   9
ENDBRANCH   1   8
BRANCH   5  20
HETATM   20  N   UNL     1     -42.874  58.225 -52.428  1.00  0.00    -0.338 N 
HETATM   21  C   UNL     1     -43.248  57.133 -51.697  1.00  0.00     0.316 C 
HETATM   22  N   UNL     1     -42.379  56.090 -51.846  1.00  0.00    -0.339 N 
HETATM   23  O   UNL     1     -44.255  57.087 -51.004  1.00  0.00    -0.247 OA
HETATM   24  H   UNL     1     -41.435  56.324 -52.119  1.00  0.00     0.164 HD
HETATM   25  H   UNL     1     -42.178  58.035 -53.138  1.00  0.00     0.164 HD
BRANCH  22  26
HETATM   26  C   UNL     1     -42.548  54.853 -51.082  1.00  0.00     0.086 C 
HETATM   27  C   UNL     1     -42.109  53.637 -51.905  1.00  0.00     0.025 C 
HETATM   28  C   UNL     1     -40.593  53.536 -52.060  1.00  0.00     0.002 C 
HETATM   29  C   UNL     1     -39.883  53.593 -50.710  1.00  0.00     0.000 C 
HETATM   30  C   UNL     1     -40.284  54.829 -49.913  1.00  0.00     0.002 C 
HETATM   31  C   UNL     1     -41.800  54.922 -49.743  1.00  0.00     0.025 C 
ENDBRANCH  22  26
ENDBRANCH   5  20
TORSDOF 6
ENDMDL
MODEL 7
REMARK VINA RESULT:      -6.8     18.280     20.966
REMARK  6 active torsions:
REMARK  status: ('A' for Active; 'I' for Inactive)
REMARK    1  A    between atoms: C_2  and  N_3 
REMARK    2  A    between atoms: C_2  and  C_24 
REMARK       I    between atoms: N_3  and  C_4 
REMARK    3  A    between atoms: C_4  and  C_5 
REMARK    4  A    between atoms: C_5  and  N_6 
REMARK    5  A    between atoms: C_10  and  N_11 
REMARK       I    between atoms: N_11  and  C_12 
REMARK       I    between atoms: C_12  and  N_13 
REMARK    6  A    between atoms: N_13  and  C_14 
ROOT
HETATM    1  N   UNL     1     -34.378  41.243 -53.889  1.00  0.00    -0.063 N 
HETATM    2  H   UNL     1     -33.754  41.996 -53.556  1.00  0.00     0.280 HD
HETATM    3  C   UNL     1     -33.537  40.333 -54.752  1.00  0.00     0.237 C 
HETATM    4  C   UNL     1     -33.289  40.907 -56.134  1.00  0.00     0.053 C 
HETATM    5  C   UNL     1     -34.522  41.483 -56.827  1.00  0.00     0.089 C 
HETATM    6  C   UNL     1     -35.280  42.428 -55.901  1.00  0.00     0.053 C 
HETATM    7  C   UNL     1     -35.591  41.843 -54.539  1.00  0.00     0.237 C 
ENDROOT
BRANCH   1   8
HETATM    8  C   UNL     1     -34.807  40.499 -52.602  1.00  0.00     0.337 C 
BRANCH   8   9
HETATM    9  C   UNL     1     -34.377  41.262 -51.354  1.00  0.00     0.244 C 
HETATM   10  N   UNL     1     -33.855  40.644 -50.266  1.00  0.00    -0.351 N 
HETATM   11  H   UNL     1     -33.686  41.303 -49.511  1.00  0.00     0.163 HD
HETATM   12  O   UNL     1     -34.487  42.494 -51.349  1.00  0.00    -0.272 OA
BRANCH  10  13
HETATM   13  C   UNL     1     -33.704  39.240 -49.874  1.00  0.00     0.120 C 
HETATM   14  C   UNL     1     -34.993  38.456 -49.648  1.00  0.00     0.038 C 
BRANCH  13  15
HETATM   15  C   UNL     1     -32.729  39.076 -48.735  1.00  0.00     0.005 A 
HETATM   16  S   UNL     1     -32.771  37.744 -47.655  1.00  0.00    -0.104 SA
HETATM   17  C   UNL     1     -31.412  38.303 -46.787  1.00  0.00     0.050 A 
HETATM   18  C   UNL     1     -30.914  39.473 -47.311  1.00  0.00     0.008 A 
HETATM   19  C   UNL     1     -31.673  39.919 -48.431  1.00  0.00     0.017 A 
ENDBRANCH  13  15
ENDBRANCH  10  13
ENDBRANCH   8   9
ENDBRANCH   1   8
BRANCH   5  20
HETATM   20  N   UNL     1     -35.365  40.505 -57.514  1.00  0.00    -0.338 N 
HETATM   21  C   UNL     1     -36.322  40.754 -58.456  1.00  0.00     0.316 C 
HETATM   22  N   UNL     1     -36.883  39.606 -58.939  1.00  0.00    -0.339 N 
HETATM   23  O   UNL     1     -36.628  41.875 -58.839  1.00  0.00    -0.247 OA
HETATM   24  H   UNL     1     -36.843  38.796 -58.337  1.00  0.00     0.164 HD
HETATM   25  H   UNL     1     -35.044  39.545 -57.487  1.00  0.00     0.164 HD
BRANCH  22  26
HETATM   26  C   UNL     1     -37.990  39.653 -59.894  1.00  0.00     0.086 C 
HETATM   27  C   UNL     1     -37.479  39.505 -61.332  1.00  0.00     0.025 C 
HETATM   28  C   UNL     1     -37.029  38.083 -61.663  1.00  0.00     0.002 C 
HETATM   29  C   UNL     1     -38.112  37.058 -61.338  1.00  0.00     0.000 C 
HETATM   30  C   UNL     1     -38.585  37.175 -59.893  1.00  0.00     0.002 C 
HETATM   31  C   UNL     1     -39.052  38.593 -59.566  1.00  0.00     0.025 C 
ENDBRANCH  22  26
ENDBRANCH   5  20
TORSDOF 6
ENDMDL
MODEL 8
REMARK VINA RESULT:      -6.8     17.723     20.235
REMARK  6 active torsions:
REMARK  status: ('A' for Active; 'I' for Inactive)
REMARK    1  A    between atoms: C_2  and  N_3 
REMARK    2  A    between atoms: C_2  and  C_24 
REMARK       I    between atoms: N_3  and  C_4 
REMARK    3  A    between atoms: C_4  and  C_5 
REMARK    4  A    between atoms: C_5  and  N_6 
REMARK    5  A    between atoms: C_10  and  N_11 
REMARK       I    between atoms: N_11  and  C_12 
REMARK       I    between atoms: C_12  and  N_13 
REMARK    6  A    between atoms: N_13  and  C_14 
ROOT
HETATM    1  N   UNL     1     -36.642  41.488 -57.701  1.00  0.00    -0.063 N 
HETATM    2  H   UNL     1     -36.961  42.335 -58.201  1.00  0.00     0.280 HD
HETATM    3  C   UNL     1     -37.624  41.254 -56.578  1.00  0.00     0.237 C 
HETATM    4  C   UNL     1     -37.397  42.185 -55.403  1.00  0.00     0.053 C 
HETATM    5  C   UNL     1     -35.942  42.325 -54.959  1.00  0.00     0.089 C 
HETATM    6  C   UNL     1     -35.032  42.610 -56.149  1.00  0.00     0.053 C 
HETATM    7  C   UNL     1     -35.204  41.647 -57.304  1.00  0.00     0.237 C 
ENDROOT
BRANCH   1   8
HETATM    8  C   UNL     1     -36.759  40.354 -58.747  1.00  0.00     0.337 C 
BRANCH   8   9
HETATM    9  C   UNL     1     -37.206  40.895 -60.101  1.00  0.00     0.244 C 
HETATM   10  N   UNL     1     -37.516  40.085 -61.142  1.00  0.00    -0.351 N 
HETATM   11  H   UNL     1     -37.731  40.622 -61.978  1.00  0.00     0.163 HD
HETATM   12  O   UNL     1     -37.313  42.119 -60.240  1.00  0.00    -0.272 OA
BRANCH  10  13
HETATM   13  C   UNL     1     -37.386  38.645 -61.379  1.00  0.00     0.120 C 
HETATM   14  C   UNL     1     -36.603  38.230 -62.621  1.00  0.00     0.038 C 
BRANCH  13  15
HETATM   15  C   UNL     1     -38.714  37.936 -61.279  1.00  0.00     0.005 A 
HETATM   16  S   UNL     1     -39.199  37.058 -59.888  1.00  0.00    -0.104 SA
HETATM   17  C   UNL     1     -40.711  36.658 -60.571  1.00  0.00     0.050 A 
HETATM   18  C   UNL     1     -40.864  37.193 -61.828  1.00  0.00     0.008 A 
HETATM   19  C   UNL     1     -39.714  37.928 -62.236  1.00  0.00     0.017 A 
ENDBRANCH  13  15
ENDBRANCH  10  13
ENDBRANCH   8   9
ENDBRANCH   1   8
BRANCH   5  20
HETATM   20  N   UNL     1     -35.459  41.271 -54.067  1.00  0.00    -0.338 N 
HETATM   21  C   UNL     1     -35.199  41.375 -52.730  1.00  0.00     0.316 C 
HETATM   22  N   UNL     1     -34.817  40.182 -52.184  1.00  0.00    -0.339 N 
HETATM   23  O   UNL     1     -35.313  42.411 -52.090  1.00  0.00    -0.247 OA
HETATM   24  H   UNL     1     -34.410  39.506 -52.815  1.00  0.00     0.164 HD
HETATM   25  H   UNL     1     -35.570  40.321 -54.399  1.00  0.00     0.164 HD
BRANCH  22  26
HETATM   26  C   UNL     1     -34.408  40.091 -50.782  1.00  0.00     0.086 C 
HETATM   27  C   UNL     1     -34.788  38.730 -50.188  1.00  0.00     0.025 C 
HETATM   28  C   UNL     1     -33.906  37.590 -50.696  1.00  0.00     0.002 C 
HETATM   29  C   UNL     1     -32.423  37.897 -50.510  1.00  0.00     0.000 C 
HETATM   30  C   UNL     1     -32.037  39.230 -51.143  1.00  0.00     0.002 C 
HETATM   31  C   UNL     1     -32.907  40.373 -50.622  1.00  0.00     0.025 C 
ENDBRANCH  22  26
ENDBRANCH   5  20
TORSDOF 6
ENDMDL
MODEL 9
REMARK VINA RESULT:      -6.8      4.200      7.014
REMARK  6 active torsions:
REMARK  status: ('A' for Active; 'I' for Inactive)
REMARK    1  A    between atoms: C_2  and  N_3 
REMARK    2  A    between atoms: C_2  and  C_24 
REMARK       I    between atoms: N_3  and  C_4 
REMARK    3  A    between atoms: C_4  and  C_5 
REMARK    4  A    between atoms: C_5  and  N_6 
REMARK    5  A    between atoms: C_10  and  N_11 
REMARK       I    between atoms: N_11  and  C_12 
REMARK       I    between atoms: C_12  and  N_13 
REMARK    6  A    between atoms: N_13  and  C_14 
ROOT
HETATM    1  N   UNL     1     -43.783  60.033 -55.478  1.00  0.00    -0.063 N 
HETATM    2  H   UNL     1     -44.406  60.850 -55.588  1.00  0.00     0.280 HD
HETATM    3  C   UNL     1     -44.643  58.895 -54.982  1.00  0.00     0.237 C 
HETATM    4  C   UNL     1     -44.962  59.008 -53.504  1.00  0.00     0.053 C 
HETATM    5  C   UNL     1     -43.771  59.344 -52.608  1.00  0.00     0.089 C 
HETATM    6  C   UNL     1     -42.991  60.534 -53.157  1.00  0.00     0.053 C 
HETATM    7  C   UNL     1     -42.611  60.405 -54.617  1.00  0.00     0.237 C 
ENDROOT
BRANCH   1   8
HETATM    8  C   UNL     1     -43.285  59.730 -56.911  1.00  0.00     0.337 C 
BRANCH   8   9
HETATM    9  C   UNL     1     -44.326  58.944 -57.702  1.00  0.00     0.244 C 
HETATM   10  N   UNL     1     -44.106  57.680 -58.139  1.00  0.00    -0.351 N 
HETATM   11  H   UNL     1     -44.883  57.342 -58.699  1.00  0.00     0.163 HD
HETATM   12  O   UNL     1     -45.419  59.476 -57.928  1.00  0.00    -0.272 OA
BRANCH  10  13
HETATM   13  C   UNL     1     -42.927  56.810 -58.173  1.00  0.00     0.120 C 
HETATM   14  C   UNL     1     -42.738  55.972 -59.433  1.00  0.00     0.038 C 
BRANCH  13  15
HETATM   15  C   UNL     1     -42.800  55.988 -56.915  1.00  0.00     0.005 A 
HETATM   16  S   UNL     1     -41.975  56.542 -55.517  1.00  0.00    -0.104 SA
HETATM   17  C   UNL     1     -42.326  55.116 -54.647  1.00  0.00     0.050 A 
HETATM   18  C   UNL     1     -43.074  54.233 -55.391  1.00  0.00     0.008 A 
HETATM   19  C   UNL     1     -43.345  54.734 -56.696  1.00  0.00     0.017 A 
ENDBRANCH  13  15
ENDBRANCH  10  13
ENDBRANCH   8   9
ENDBRANCH   1   8
BRANCH   5  20
HETATM   20  N   UNL     1     -42.940  58.203 -52.222  1.00  0.00    -0.338 N 
HETATM   21  C   UNL     1     -43.294  57.157 -51.418  1.00  0.00     0.316 C 
HETATM   22  N   UNL     1     -42.297  56.229 -51.310  1.00  0.00    -0.339 N 
HETATM   23  O   UNL     1     -44.384  57.053 -50.873  1.00  0.00    -0.247 OA
HETATM   24  H   UNL     1     -41.356  56.555 -51.476  1.00  0.00     0.164 HD
HETATM   25  H   UNL     1     -42.125  58.032 -52.798  1.00  0.00     0.164 HD
BRANCH  22  26
HETATM   26  C   UNL     1     -42.438  55.071 -50.426  1.00  0.00     0.086 C 
HETATM   27  C   UNL     1     -42.325  53.763 -51.216  1.00  0.00     0.025 C 
HETATM   28  C   UNL     1     -40.898  53.459 -51.667  1.00  0.00     0.002 C 
HETATM   29  C   UNL     1     -39.915  53.504 -50.500  1.00  0.00     0.000 C 
HETATM   30  C   UNL     1     -39.995  54.826 -49.745  1.00  0.00     0.002 C 
HETATM   31  C   UNL     1     -41.420  55.123 -49.278  1.00  0.00     0.025 C 
ENDBRANCH  22  26
ENDBRANCH   5  20
TORSDOF 6
ENDMDL
MODEL 10
REMARK VINA RESULT:      -6.6      4.600      5.880
REMARK  6 active torsions:
REMARK  status: ('A' for Active; 'I' for Inactive)
REMARK    1  A    between atoms: C_2  and  N_3 
REMARK    2  A    between atoms: C_2  and  C_24 
REMARK       I    between atoms: N_3  and  C_4 
REMARK    3  A    between atoms: C_4  and  C_5 
REMARK    4  A    between atoms: C_5  and  N_6 
REMARK    5  A    between atoms: C_10  and  N_11 
REMARK       I    between atoms: N_11  and  C_12 
REMARK       I    between atoms: C_12  and  N_13 
REMARK    6  A    between atoms: N_13  and  C_14 
ROOT
HETATM    1  N   UNL     1     -43.528  59.554 -52.576  1.00  0.00    -0.063 N 
HETATM    2  H   UNL     1     -42.848  59.489 -51.801  1.00  0.00     0.280 HD
HETATM    3  C   UNL     1     -43.820  61.022 -52.774  1.00  0.00     0.237 C 
HETATM    4  C   UNL     1     -44.770  61.573 -51.727  1.00  0.00     0.053 C 
HETATM    5  C   UNL     1     -46.000  60.710 -51.451  1.00  0.00     0.089 C 
HETATM    6  C   UNL     1     -45.606  59.256 -51.213  1.00  0.00     0.053 C 
HETATM    7  C   UNL     1     -44.709  58.674 -52.286  1.00  0.00     0.237 C 
ENDROOT
BRANCH   1   8
HETATM    8  C   UNL     1     -42.770  58.999 -53.805  1.00  0.00     0.337 C 
BRANCH   8   9
HETATM    9  C   UNL     1     -41.359  58.558 -53.430  1.00  0.00     0.244 C 
HETATM   10  N   UNL     1     -41.073  57.297 -53.024  1.00  0.00    -0.351 N 
HETATM   11  H   UNL     1     -40.097  57.206 -52.758  1.00  0.00     0.163 HD
HETATM   12  O   UNL     1     -40.440  59.381 -53.527  1.00  0.00    -0.272 OA
BRANCH  10  13
HETATM   13  C   UNL     1     -41.895  56.134 -52.675  1.00  0.00     0.120 C 
HETATM   14  C   UNL     1     -42.357  56.042 -51.224  1.00  0.00     0.038 C 
BRANCH  13  15
HETATM   15  C   UNL     1     -41.281  54.846 -53.163  1.00  0.00     0.005 A 
HETATM   16  S   UNL     1     -41.060  54.489 -54.826  1.00  0.00    -0.104 SA
HETATM   17  C   UNL     1     -40.334  52.982 -54.487  1.00  0.00     0.050 A 
HETATM   18  C   UNL     1     -40.240  52.750 -53.135  1.00  0.00     0.008 A 
HETATM   19  C   UNL     1     -40.785  53.823 -52.373  1.00  0.00     0.017 A 
ENDBRANCH  13  15
ENDBRANCH  10  13
ENDBRANCH   8   9
ENDBRANCH   1   8
BRANCH   5  20
HETATM   20  N   UNL     1     -47.111  60.891 -52.385  1.00  0.00    -0.338 N 
HETATM   21  C   UNL     1     -47.925  61.981 -52.501  1.00  0.00     0.316 C 
HETATM   22  N   UNL     1     -48.827  61.848 -53.518  1.00  0.00    -0.339 N 
HETATM   23  O   UNL     1     -47.844  62.973 -51.788  1.00  0.00    -0.247 OA
HETATM   24  H   UNL     1     -49.060  60.904 -53.794  1.00  0.00     0.164 HD
HETATM   25  H   UNL     1     -47.122  60.273 -53.188  1.00  0.00     0.164 HD
BRANCH  22  26
HETATM   26  C   UNL     1     -49.850  62.866 -53.757  1.00  0.00     0.086 C 
HETATM   27  C   UNL     1     -50.320  62.837 -55.216  1.00  0.00     0.025 C 
HETATM   28  C   UNL     1     -51.203  61.631 -55.534  1.00  0.00     0.002 C 
HETATM   29  C   UNL     1     -52.371  61.513 -54.559  1.00  0.00     0.000 C 
HETATM   30  C   UNL     1     -51.897  61.494 -53.109  1.00  0.00     0.002 C 
HETATM   31  C   UNL     1     -51.028  62.709 -52.785  1.00  0.00     0.025 C 
ENDBRANCH  22  26
ENDBRANCH   5  20
TORSDOF 6
ENDMDL
