MODEL 1
REMARK VINA RESULT:      -8.4      0.000      0.000
REMARK  3 active torsions:
REMARK  status: ('A' for Active; 'I' for Inactive)
REMARK    1  A    between atoms: C_3  and  N_4 
REMARK       I    between atoms: N_4  and  C_5 
REMARK    2  A    between atoms: C_5  and  C_6 
REMARK    3  A    between atoms: C_7  and  C_8 
ROOT
HETATM    1  C   UNL     1     -42.113  55.843 -54.555  1.00  0.00     0.063 A 
HETATM    2  C   UNL     1     -42.209  56.844 -53.410  1.00  0.00     0.216 A 
HETATM    3  N   UNL     1     -43.385  57.698 -53.542  1.00  0.00    -0.091 N 
HETATM    4  C   UNL     1     -44.235  57.679 -54.611  1.00  0.00     0.735 A 
HETATM    5  N   UNL     1     -44.030  56.787 -55.599  1.00  0.00    -0.191 N 
HETATM    6  N   UNL     1     -43.709  58.701 -52.711  1.00  0.00     0.012 NA
HETATM    7  N   UNL     1     -44.798  59.242 -53.251  1.00  0.00     0.033 NA
HETATM    8  N   UNL     1     -45.133  58.617 -54.436  1.00  0.00     0.030 NA
HETATM    9  C   UNL     1     -43.001  55.850 -55.580  1.00  0.00     0.037 A 
HETATM   10  C   UNL     1     -42.959  54.901 -56.753  1.00  0.00     0.070 C 
HETATM   11  H   UNL     1     -44.681  56.754 -56.380  1.00  0.00     0.184 HD
ENDROOT
BRANCH   1  12
HETATM   12  C   UNL     1     -41.091  54.763 -54.446  1.00  0.00     0.256 C 
HETATM   13  N   UNL     1     -41.579  53.594 -53.907  1.00  0.00    -0.323 N 
HETATM   14  H   UNL     1     -42.553  53.572 -53.647  1.00  0.00     0.169 HD
HETATM   15  O   UNL     1     -39.949  54.993 -54.826  1.00  0.00    -0.267 OA
BRANCH  13  16
HETATM   16  C   UNL     1     -40.882  52.373 -53.717  1.00  0.00     0.041 A 
HETATM   17  C   UNL     1     -40.074  52.225 -52.567  1.00  0.00    -0.035 A 
HETATM   18  C   UNL     1     -39.929  53.310 -51.534  1.00  0.00     0.050 C 
HETATM   19  C   UNL     1     -39.381  51.018 -52.359  1.00  0.00     0.009 A 
HETATM   20  C   UNL     1     -39.479  49.970 -53.271  1.00  0.00     0.001 A 
HETATM   21  C   UNL     1     -40.273  50.116 -54.401  1.00  0.00     0.002 A 
HETATM   22  C   UNL     1     -40.968  51.308 -54.622  1.00  0.00     0.030 A 
ENDBRANCH  13  16
ENDBRANCH   1  12
BRANCH   2  23
HETATM   23  C   UNL     1     -42.152  56.193 -52.040  1.00  0.00     0.064 A 
HETATM   24  N   UNL     1     -43.098  55.245 -51.796  1.00  0.00    -0.263 NA
HETATM   25  C   UNL     1     -43.119  54.685 -50.567  1.00  0.00     0.117 A 
HETATM   26  C   UNL     1     -42.242  55.023 -49.553  1.00  0.00     0.019 A 
HETATM   27  C   UNL     1     -41.286  55.997 -49.810  1.00  0.00     0.003 A 
HETATM   28  C   UNL     1     -41.238  56.597 -51.065  1.00  0.00     0.030 A 
ENDBRANCH   2  23
TORSDOF 3
ENDMDL
MODEL 2
REMARK VINA RESULT:      -8.3      1.756      3.979
REMARK  3 active torsions:
REMARK  status: ('A' for Active; 'I' for Inactive)
REMARK    1  A    between atoms: C_3  and  N_4 
REMARK       I    between atoms: N_4  and  C_5 
REMARK    2  A    between atoms: C_5  and  C_6 
REMARK    3  A    between atoms: C_7  and  C_8 
ROOT
HETATM    1  C   UNL     1     -42.225  55.515 -51.287  1.00  0.00     0.063 A 
HETATM    2  C   UNL     1     -43.103  56.259 -52.286  1.00  0.00     0.216 A 
HETATM    3  N   UNL     1     -42.981  57.705 -52.134  1.00  0.00    -0.091 N 
HETATM    4  C   UNL     1     -42.257  58.318 -51.150  1.00  0.00     0.735 A 
HETATM    5  N   UNL     1     -41.556  57.564 -50.283  1.00  0.00    -0.191 N 
HETATM    6  N   UNL     1     -43.666  58.618 -52.841  1.00  0.00     0.012 NA
HETATM    7  N   UNL     1     -43.298  59.785 -52.322  1.00  0.00     0.033 NA
HETATM    8  N   UNL     1     -42.423  59.612 -51.267  1.00  0.00     0.030 NA
HETATM    9  C   UNL     1     -41.504  56.175 -50.347  1.00  0.00     0.037 A 
HETATM   10  C   UNL     1     -40.627  55.505 -49.317  1.00  0.00     0.070 C 
HETATM   11  H   UNL     1     -40.993  58.023 -49.570  1.00  0.00     0.184 HD
ENDROOT
BRANCH   1  12
HETATM   12  C   UNL     1     -42.075  54.041 -51.460  1.00  0.00     0.256 C 
HETATM   13  N   UNL     1     -40.810  53.657 -51.845  1.00  0.00    -0.323 N 
HETATM   14  H   UNL     1     -40.120  54.383 -51.967  1.00  0.00     0.169 HD
HETATM   15  O   UNL     1     -43.047  53.323 -51.258  1.00  0.00    -0.267 OA
BRANCH  13  16
HETATM   16  C   UNL     1     -40.332  52.337 -52.044  1.00  0.00     0.041 A 
HETATM   17  C   UNL     1     -40.126  51.882 -53.367  1.00  0.00    -0.035 A 
HETATM   18  C   UNL     1     -40.391  52.745 -54.571  1.00  0.00     0.050 C 
HETATM   19  C   UNL     1     -39.645  50.577 -53.582  1.00  0.00     0.009 A 
HETATM   20  C   UNL     1     -39.371  49.729 -52.511  1.00  0.00     0.001 A 
HETATM   21  C   UNL     1     -39.573  50.177 -51.213  1.00  0.00     0.002 A 
HETATM   22  C   UNL     1     -40.050  51.470 -50.982  1.00  0.00     0.030 A 
ENDBRANCH  13  16
ENDBRANCH   1  12
BRANCH   2  23
HETATM   23  C   UNL     1     -42.866  55.834 -53.723  1.00  0.00     0.064 A 
HETATM   24  N   UNL     1     -41.831  56.451 -54.358  1.00  0.00    -0.263 NA
HETATM   25  C   UNL     1     -41.624  56.145 -55.658  1.00  0.00     0.117 A 
HETATM   26  C   UNL     1     -42.402  55.252 -56.371  1.00  0.00     0.019 A 
HETATM   27  C   UNL     1     -43.460  54.634 -55.715  1.00  0.00     0.003 A 
HETATM   28  C   UNL     1     -43.703  54.929 -54.377  1.00  0.00     0.030 A 
ENDBRANCH   2  23
TORSDOF 3
ENDMDL
MODEL 3
REMARK VINA RESULT:      -8.0      1.579      3.803
REMARK  3 active torsions:
REMARK  status: ('A' for Active; 'I' for Inactive)
REMARK    1  A    between atoms: C_3  and  N_4 
REMARK       I    between atoms: N_4  and  C_5 
REMARK    2  A    between atoms: C_5  and  C_6 
REMARK    3  A    between atoms: C_7  and  C_8 
ROOT
HETATM    1  C   UNL     1     -42.383  56.988 -52.522  1.00  0.00     0.063 A 
HETATM    2  C   UNL     1     -43.574  57.346 -53.404  1.00  0.00     0.216 A 
HETATM    3  N   UNL     1     -44.281  58.518 -52.899  1.00  0.00    -0.091 N 
HETATM    4  C   UNL     1     -43.984  59.152 -51.725  1.00  0.00     0.735 A 
HETATM    5  N   UNL     1     -42.940  58.721 -50.992  1.00  0.00    -0.191 N 
HETATM    6  N   UNL     1     -45.394  59.041 -53.437  1.00  0.00     0.012 NA
HETATM    7  N   UNL     1     -45.725  60.035 -52.618  1.00  0.00     0.033 NA
HETATM    8  N   UNL     1     -44.857  60.112 -51.547  1.00  0.00     0.030 NA
HETATM    9  C   UNL     1     -42.116  57.668 -51.380  1.00  0.00     0.037 A 
HETATM   10  C   UNL     1     -40.967  57.361 -50.451  1.00  0.00     0.070 C 
HETATM   11  H   UNL     1     -42.701  59.213 -50.133  1.00  0.00     0.184 HD
ENDROOT
BRANCH   1  12
HETATM   12  C   UNL     1     -41.437  55.951 -53.025  1.00  0.00     0.256 C 
HETATM   13  N   UNL     1     -41.697  54.688 -52.543  1.00  0.00    -0.323 N 
HETATM   14  H   UNL     1     -42.481  54.580 -51.918  1.00  0.00     0.169 HD
HETATM   15  O   UNL     1     -40.542  56.292 -53.790  1.00  0.00    -0.267 OA
BRANCH  13  16
HETATM   16  C   UNL     1     -41.018  53.485 -52.865  1.00  0.00     0.041 A 
HETATM   17  C   UNL     1     -40.155  52.914 -51.902  1.00  0.00    -0.035 A 
HETATM   18  C   UNL     1     -39.933  53.530 -50.547  1.00  0.00     0.050 C 
HETATM   19  C   UNL     1     -39.480  51.716 -52.202  1.00  0.00     0.009 A 
HETATM   20  C   UNL     1     -39.648  51.088 -53.433  1.00  0.00     0.001 A 
HETATM   21  C   UNL     1     -40.496  51.649 -54.379  1.00  0.00     0.002 A 
HETATM   22  C   UNL     1     -41.175  52.838 -54.097  1.00  0.00     0.030 A 
ENDBRANCH  13  16
ENDBRANCH   1  12
BRANCH   2  23
HETATM   23  C   UNL     1     -43.206  57.512 -54.866  1.00  0.00     0.064 A 
HETATM   24  N   UNL     1     -43.480  56.447 -55.669  1.00  0.00    -0.263 NA
HETATM   25  C   UNL     1     -43.112  56.532 -56.967  1.00  0.00     0.117 A 
HETATM   26  C   UNL     1     -42.474  57.629 -57.515  1.00  0.00     0.019 A 
HETATM   27  C   UNL     1     -42.192  58.706 -56.685  1.00  0.00     0.003 A 
HETATM   28  C   UNL     1     -42.555  58.652 -55.343  1.00  0.00     0.030 A 
ENDBRANCH   2  23
TORSDOF 3
ENDMDL
MODEL 4
REMARK VINA RESULT:      -7.9      2.433      5.596
REMARK  3 active torsions:
REMARK  status: ('A' for Active; 'I' for Inactive)
REMARK    1  A    between atoms: C_3  and  N_4 
REMARK       I    between atoms: N_4  and  C_5 
REMARK    2  A    between atoms: C_5  and  C_6 
REMARK    3  A    between atoms: C_7  and  C_8 
ROOT
HETATM    1  C   UNL     1     -42.275  54.250 -52.883  1.00  0.00     0.063 A 
HETATM    2  C   UNL     1     -42.698  54.789 -51.522  1.00  0.00     0.216 A 
HETATM    3  N   UNL     1     -41.806  54.330 -50.463  1.00  0.00    -0.091 N 
HETATM    4  C   UNL     1     -40.784  53.441 -50.646  1.00  0.00     0.735 A 
HETATM    5  N   UNL     1     -40.526  52.984 -51.886  1.00  0.00    -0.191 N 
HETATM    6  N   UNL     1     -41.952  54.603 -49.156  1.00  0.00     0.012 NA
HETATM    7  N   UNL     1     -40.971  53.928 -48.564  1.00  0.00     0.033 NA
HETATM    8  N   UNL     1     -40.239  53.199 -49.480  1.00  0.00     0.030 NA
HETATM    9  C   UNL     1     -41.234  53.391 -53.013  1.00  0.00     0.037 A 
HETATM   10  C   UNL     1     -40.768  52.805 -54.324  1.00  0.00     0.070 C 
HETATM   11  H   UNL     1     -39.745  52.346 -52.026  1.00  0.00     0.184 HD
ENDROOT
BRANCH   1  12
HETATM   12  C   UNL     1     -42.955  54.804 -54.089  1.00  0.00     0.256 C 
HETATM   13  N   UNL     1     -42.151  55.624 -54.848  1.00  0.00    -0.323 N 
HETATM   14  H   UNL     1     -41.204  55.768 -54.533  1.00  0.00     0.169 HD
HETATM   15  O   UNL     1     -44.124  54.499 -54.297  1.00  0.00    -0.267 OA
BRANCH  13  16
HETATM   16  C   UNL     1     -42.478  56.262 -56.072  1.00  0.00     0.041 A 
HETATM   17  C   UNL     1     -42.459  57.674 -56.127  1.00  0.00    -0.035 A 
HETATM   18  C   UNL     1     -42.098  58.527 -54.940  1.00  0.00     0.050 C 
HETATM   19  C   UNL     1     -42.774  58.323 -57.335  1.00  0.00     0.009 A 
HETATM   20  C   UNL     1     -43.106  57.594 -58.474  1.00  0.00     0.001 A 
HETATM   21  C   UNL     1     -43.126  56.207 -58.419  1.00  0.00     0.002 A 
HETATM   22  C   UNL     1     -42.815  55.547 -57.227  1.00  0.00     0.030 A 
ENDBRANCH  13  16
ENDBRANCH   1  12
BRANCH   2  23
HETATM   23  C   UNL     1     -42.852  56.298 -51.498  1.00  0.00     0.064 A 
HETATM   24  N   UNL     1     -41.691  57.009 -51.459  1.00  0.00    -0.263 NA
HETATM   25  C   UNL     1     -41.785  58.355 -51.375  1.00  0.00     0.117 A 
HETATM   26  C   UNL     1     -42.985  59.039 -51.323  1.00  0.00     0.019 A 
HETATM   27  C   UNL     1     -44.163  58.303 -51.355  1.00  0.00     0.003 A 
HETATM   28  C   UNL     1     -44.102  56.916 -51.438  1.00  0.00     0.030 A 
ENDBRANCH   2  23
TORSDOF 3
ENDMDL
MODEL 5
REMARK VINA RESULT:      -7.8      2.451      3.951
REMARK  3 active torsions:
REMARK  status: ('A' for Active; 'I' for Inactive)
REMARK    1  A    between atoms: C_3  and  N_4 
REMARK       I    between atoms: N_4  and  C_5 
REMARK    2  A    between atoms: C_5  and  C_6 
REMARK    3  A    between atoms: C_7  and  C_8 
ROOT
HETATM    1  C   UNL     1     -42.143  56.674 -54.405  1.00  0.00     0.063 A 
HETATM    2  C   UNL     1     -41.897  58.173 -54.277  1.00  0.00     0.216 A 
HETATM    3  N   UNL     1     -41.958  58.838 -55.574  1.00  0.00    -0.091 N 
HETATM    4  C   UNL     1     -42.107  58.189 -56.767  1.00  0.00     0.735 A 
HETATM    5  N   UNL     1     -42.264  56.852 -56.773  1.00  0.00    -0.191 N 
HETATM    6  N   UNL     1     -41.737  60.146 -55.783  1.00  0.00     0.012 NA
HETATM    7  N   UNL     1     -41.822  60.290 -57.103  1.00  0.00     0.033 NA
HETATM    8  N   UNL     1     -42.049  59.079 -57.727  1.00  0.00     0.030 NA
HETATM    9  C   UNL     1     -42.312  56.083 -55.614  1.00  0.00     0.037 A 
HETATM   10  C   UNL     1     -42.543  54.606 -55.818  1.00  0.00     0.070 C 
HETATM   11  H   UNL     1     -42.406  56.373 -57.660  1.00  0.00     0.184 HD
ENDROOT
BRANCH   1  12
HETATM   12  C   UNL     1     -42.327  55.893 -53.148  1.00  0.00     0.256 C 
HETATM   13  N   UNL     1     -41.147  55.596 -52.505  1.00  0.00    -0.323 N 
HETATM   14  H   UNL     1     -40.292  55.926 -52.925  1.00  0.00     0.169 HD
HETATM   15  O   UNL     1     -43.464  55.590 -52.805  1.00  0.00    -0.267 OA
BRANCH  13  16
HETATM   16  C   UNL     1     -40.983  54.915 -51.271  1.00  0.00     0.041 A 
HETATM   17  C   UNL     1     -40.583  53.559 -51.292  1.00  0.00    -0.035 A 
HETATM   18  C   UNL     1     -40.320  52.812 -52.572  1.00  0.00     0.050 C 
HETATM   19  C   UNL     1     -40.409  52.871 -50.077  1.00  0.00     0.009 A 
HETATM   20  C   UNL     1     -40.627  53.506 -48.857  1.00  0.00     0.001 A 
HETATM   21  C   UNL     1     -41.019  54.838 -48.837  1.00  0.00     0.002 A 
HETATM   22  C   UNL     1     -41.196  55.536 -50.035  1.00  0.00     0.030 A 
ENDBRANCH  13  16
ENDBRANCH   1  12
BRANCH   2  23
HETATM   23  C   UNL     1     -42.811  58.844 -53.269  1.00  0.00     0.064 A 
HETATM   24  N   UNL     1     -42.217  59.257 -52.116  1.00  0.00    -0.263 NA
HETATM   25  C   UNL     1     -43.008  59.805 -51.167  1.00  0.00     0.117 A 
HETATM   26  C   UNL     1     -44.375  59.963 -51.302  1.00  0.00     0.019 A 
HETATM   27  C   UNL     1     -44.972  59.530 -52.480  1.00  0.00     0.003 A 
HETATM   28  C   UNL     1     -44.187  58.959 -53.477  1.00  0.00     0.030 A 
ENDBRANCH   2  23
TORSDOF 3
ENDMDL
MODEL 6
REMARK VINA RESULT:      -7.7      1.706      4.176
REMARK  3 active torsions:
REMARK  status: ('A' for Active; 'I' for Inactive)
REMARK    1  A    between atoms: C_3  and  N_4 
REMARK       I    between atoms: N_4  and  C_5 
REMARK    2  A    between atoms: C_5  and  C_6 
REMARK    3  A    between atoms: C_7  and  C_8 
ROOT
HETATM    1  C   UNL     1     -42.392  57.177 -52.417  1.00  0.00     0.063 A 
HETATM    2  C   UNL     1     -43.564  57.550 -53.317  1.00  0.00     0.216 A 
HETATM    3  N   UNL     1     -44.266  58.729 -52.823  1.00  0.00    -0.091 N 
HETATM    4  C   UNL     1     -43.981  59.359 -51.644  1.00  0.00     0.735 A 
HETATM    5  N   UNL     1     -42.954  58.915 -50.894  1.00  0.00    -0.191 N 
HETATM    6  N   UNL     1     -45.364  59.266 -53.379  1.00  0.00     0.012 NA
HETATM    7  N   UNL     1     -45.697  60.263 -52.564  1.00  0.00     0.033 NA
HETATM    8  N   UNL     1     -44.845  60.329 -51.479  1.00  0.00     0.030 NA
HETATM    9  C   UNL     1     -42.136  57.854 -51.270  1.00  0.00     0.037 A 
HETATM   10  C   UNL     1     -41.006  57.532 -50.323  1.00  0.00     0.070 C 
HETATM   11  H   UNL     1     -42.723  59.404 -50.032  1.00  0.00     0.184 HD
ENDROOT
BRANCH   1  12
HETATM   12  C   UNL     1     -41.450  56.130 -52.905  1.00  0.00     0.256 C 
HETATM   13  N   UNL     1     -41.728  54.871 -52.423  1.00  0.00    -0.323 N 
HETATM   14  H   UNL     1     -42.521  54.772 -51.808  1.00  0.00     0.169 HD
HETATM   15  O   UNL     1     -40.543  56.460 -53.660  1.00  0.00    -0.267 OA
BRANCH  13  16
HETATM   16  C   UNL     1     -41.057  53.660 -52.733  1.00  0.00     0.041 A 
HETATM   17  C   UNL     1     -41.323  53.035 -53.973  1.00  0.00    -0.035 A 
HETATM   18  C   UNL     1     -42.287  53.606 -54.978  1.00  0.00     0.050 C 
HETATM   19  C   UNL     1     -40.661  51.837 -54.300  1.00  0.00     0.009 A 
HETATM   20  C   UNL     1     -39.749  51.260 -53.419  1.00  0.00     0.001 A 
HETATM   21  C   UNL     1     -39.488  51.874 -52.202  1.00  0.00     0.002 A 
HETATM   22  C   UNL     1     -40.138  53.064 -51.862  1.00  0.00     0.030 A 
ENDBRANCH  13  16
ENDBRANCH   1  12
BRANCH   2  23
HETATM   23  C   UNL     1     -43.171  57.713 -54.774  1.00  0.00     0.064 A 
HETATM   24  N   UNL     1     -42.471  58.841 -55.074  1.00  0.00    -0.263 NA
HETATM   25  C   UNL     1     -42.154  59.054 -56.370  1.00  0.00     0.117 A 
HETATM   26  C   UNL     1     -42.504  58.198 -57.397  1.00  0.00     0.019 A 
HETATM   27  C   UNL     1     -43.225  57.053 -57.081  1.00  0.00     0.003 A 
HETATM   28  C   UNL     1     -43.570  56.805 -55.756  1.00  0.00     0.030 A 
ENDBRANCH   2  23
TORSDOF 3
ENDMDL
MODEL 7
REMARK VINA RESULT:      -7.5      2.446      3.673
REMARK  3 active torsions:
REMARK  status: ('A' for Active; 'I' for Inactive)
REMARK    1  A    between atoms: C_3  and  N_4 
REMARK       I    between atoms: N_4  and  C_5 
REMARK    2  A    between atoms: C_5  and  C_6 
REMARK    3  A    between atoms: C_7  and  C_8 
ROOT
HETATM    1  C   UNL     1     -42.154  56.526 -54.477  1.00  0.00     0.063 A 
HETATM    2  C   UNL     1     -41.821  58.004 -54.312  1.00  0.00     0.216 A 
HETATM    3  N   UNL     1     -41.933  58.724 -55.576  1.00  0.00    -0.091 N 
HETATM    4  C   UNL     1     -42.196  58.132 -56.779  1.00  0.00     0.735 A 
HETATM    5  N   UNL     1     -42.424  56.806 -56.823  1.00  0.00    -0.191 N 
HETATM    6  N   UNL     1     -41.658  60.026 -55.752  1.00  0.00     0.012 NA
HETATM    7  N   UNL     1     -41.823  60.228 -57.056  1.00  0.00     0.033 NA
HETATM    8  N   UNL     1     -42.155  59.056 -57.707  1.00  0.00     0.030 NA
HETATM    9  C   UNL     1     -42.435  55.994 -55.693  1.00  0.00     0.037 A 
HETATM   10  C   UNL     1     -42.757  54.540 -55.935  1.00  0.00     0.070 C 
HETATM   11  H   UNL     1     -42.650  56.371 -57.716  1.00  0.00     0.184 HD
ENDROOT
BRANCH   1  12
HETATM   12  C   UNL     1     -42.296  55.706 -53.240  1.00  0.00     0.256 C 
HETATM   13  N   UNL     1     -41.092  55.324 -52.691  1.00  0.00    -0.323 N 
HETATM   14  H   UNL     1     -40.251  55.628 -53.157  1.00  0.00     0.169 HD
HETATM   15  O   UNL     1     -43.421  55.447 -52.832  1.00  0.00    -0.267 OA
BRANCH  13  16
HETATM   16  C   UNL     1     -40.883  54.587 -51.498  1.00  0.00     0.041 A 
HETATM   17  C   UNL     1     -40.909  55.273 -50.262  1.00  0.00    -0.035 A 
HETATM   18  C   UNL     1     -41.156  56.755 -50.164  1.00  0.00     0.050 C 
HETATM   19  C   UNL     1     -40.710  54.556 -49.068  1.00  0.00     0.009 A 
HETATM   20  C   UNL     1     -40.487  53.181 -49.088  1.00  0.00     0.001 A 
HETATM   21  C   UNL     1     -40.461  52.507 -50.301  1.00  0.00     0.002 A 
HETATM   22  C   UNL     1     -40.657  53.205 -51.496  1.00  0.00     0.030 A 
ENDBRANCH  13  16
ENDBRANCH   1  12
BRANCH   2  23
HETATM   23  C   UNL     1     -42.629  58.680 -53.219  1.00  0.00     0.064 A 
HETATM   24  N   UNL     1     -43.979  58.681 -53.398  1.00  0.00    -0.263 NA
HETATM   25  C   UNL     1     -44.731  59.326 -52.478  1.00  0.00     0.117 A 
HETATM   26  C   UNL     1     -44.206  59.981 -51.380  1.00  0.00     0.019 A 
HETATM   27  C   UNL     1     -42.827  59.981 -51.212  1.00  0.00     0.003 A 
HETATM   28  C   UNL     1     -42.023  59.329 -52.142  1.00  0.00     0.030 A 
ENDBRANCH   2  23
TORSDOF 3
ENDMDL
MODEL 8
REMARK VINA RESULT:      -7.4      2.323      4.703
REMARK  3 active torsions:
REMARK  status: ('A' for Active; 'I' for Inactive)
REMARK    1  A    between atoms: C_3  and  N_4 
REMARK       I    between atoms: N_4  and  C_5 
REMARK    2  A    between atoms: C_5  and  C_6 
REMARK    3  A    between atoms: C_7  and  C_8 
ROOT
HETATM    1  C   UNL     1     -42.373  58.412 -51.744  1.00  0.00     0.063 A 
HETATM    2  C   UNL     1     -43.877  58.465 -51.987  1.00  0.00     0.216 A 
HETATM    3  N   UNL     1     -44.511  59.514 -51.195  1.00  0.00    -0.091 N 
HETATM    4  C   UNL     1     -43.861  60.281 -50.270  1.00  0.00     0.735 A 
HETATM    5  N   UNL     1     -42.536  60.118 -50.094  1.00  0.00    -0.191 N 
HETATM    6  N   UNL     1     -45.828  59.770 -51.165  1.00  0.00     0.012 NA
HETATM    7  N   UNL     1     -45.958  60.742 -50.266  1.00  0.00     0.033 NA
HETATM    8  N   UNL     1     -44.741  61.067 -49.700  1.00  0.00     0.030 NA
HETATM    9  C   UNL     1     -41.773  59.217 -50.831  1.00  0.00     0.037 A 
HETATM   10  C   UNL     1     -40.295  59.209 -50.527  1.00  0.00     0.070 C 
HETATM   11  H   UNL     1     -42.048  60.712 -49.427  1.00  0.00     0.184 HD
ENDROOT
BRANCH   1  12
HETATM   12  C   UNL     1     -41.557  57.542 -52.638  1.00  0.00     0.256 C 
HETATM   13  N   UNL     1     -41.773  56.196 -52.444  1.00  0.00    -0.323 N 
HETATM   14  H   UNL     1     -42.444  55.929 -51.741  1.00  0.00     0.169 HD
HETATM   15  O   UNL     1     -40.793  58.071 -53.436  1.00  0.00    -0.267 OA
BRANCH  13  16
HETATM   16  C   UNL     1     -41.196  55.117 -53.161  1.00  0.00     0.041 A 
HETATM   17  C   UNL     1     -40.983  53.892 -52.489  1.00  0.00    -0.035 A 
HETATM   18  C   UNL     1     -41.350  53.687 -51.043  1.00  0.00     0.050 C 
HETATM   19  C   UNL     1     -40.418  52.809 -53.187  1.00  0.00     0.009 A 
HETATM   20  C   UNL     1     -40.066  52.928 -54.529  1.00  0.00     0.001 A 
HETATM   21  C   UNL     1     -40.274  54.131 -55.189  1.00  0.00     0.002 A 
HETATM   22  C   UNL     1     -40.835  55.217 -54.510  1.00  0.00     0.030 A 
ENDBRANCH  13  16
ENDBRANCH   1  12
BRANCH   2  23
HETATM   23  C   UNL     1     -44.241  58.586 -53.455  1.00  0.00     0.064 A 
HETATM   24  N   UNL     1     -43.955  59.783 -54.038  1.00  0.00    -0.263 NA
HETATM   25  C   UNL     1     -44.319  59.952 -55.328  1.00  0.00     0.117 A 
HETATM   26  C   UNL     1     -44.963  58.986 -56.078  1.00  0.00     0.019 A 
HETATM   27  C   UNL     1     -45.258  57.772 -55.471  1.00  0.00     0.003 A 
HETATM   28  C   UNL     1     -44.899  57.565 -54.142  1.00  0.00     0.030 A 
ENDBRANCH   2  23
TORSDOF 3
ENDMDL
MODEL 9
REMARK VINA RESULT:      -7.4     15.228     18.155
REMARK  3 active torsions:
REMARK  status: ('A' for Active; 'I' for Inactive)
REMARK    1  A    between atoms: C_3  and  N_4 
REMARK       I    between atoms: N_4  and  C_5 
REMARK    2  A    between atoms: C_5  and  C_6 
REMARK    3  A    between atoms: C_7  and  C_8 
ROOT
HETATM    1  C   UNL     1     -34.402  39.689 -51.885  1.00  0.00     0.063 A 
HETATM    2  C   UNL     1     -32.911  40.001 -51.828  1.00  0.00     0.216 A 
HETATM    3  N   UNL     1     -32.353  39.714 -50.511  1.00  0.00    -0.091 N 
HETATM    4  C   UNL     1     -33.091  39.320 -49.430  1.00  0.00     0.735 A 
HETATM    5  N   UNL     1     -34.415  39.123 -49.575  1.00  0.00    -0.191 N 
HETATM    6  N   UNL     1     -31.080  39.931 -50.146  1.00  0.00     0.012 NA
HETATM    7  N   UNL     1     -31.041  39.600 -48.859  1.00  0.00     0.033 NA
HETATM    8  N   UNL     1     -32.287  39.221 -48.400  1.00  0.00     0.030 NA
HETATM    9  C   UNL     1     -35.082  39.273 -50.788  1.00  0.00     0.037 A 
HETATM   10  C   UNL     1     -36.559  38.962 -50.765  1.00  0.00     0.070 C 
HETATM   11  H   UNL     1     -34.958  38.799 -48.778  1.00  0.00     0.184 HD
ENDROOT
BRANCH   1  12
HETATM   12  C   UNL     1     -35.066  39.723 -53.220  1.00  0.00     0.256 C 
HETATM   13  N   UNL     1     -35.188  40.991 -53.742  1.00  0.00    -0.323 N 
HETATM   14  H   UNL     1     -34.825  41.757 -53.196  1.00  0.00     0.169 HD
HETATM   15  O   UNL     1     -35.436  38.667 -53.720  1.00  0.00    -0.267 OA
BRANCH  13  16
HETATM   16  C   UNL     1     -35.723  41.357 -55.004  1.00  0.00     0.041 A 
HETATM   17  C   UNL     1     -37.127  41.428 -55.150  1.00  0.00    -0.035 A 
HETATM   18  C   UNL     1     -38.075  41.136 -54.018  1.00  0.00     0.050 C 
HETATM   19  C   UNL     1     -37.675  41.797 -56.393  1.00  0.00     0.009 A 
HETATM   20  C   UNL     1     -36.854  42.091 -57.479  1.00  0.00     0.001 A 
HETATM   21  C   UNL     1     -35.475  42.021 -57.334  1.00  0.00     0.002 A 
HETATM   22  C   UNL     1     -34.915  41.657 -56.106  1.00  0.00     0.030 A 
ENDBRANCH  13  16
ENDBRANCH   1  12
BRANCH   2  23
HETATM   23  C   UNL     1     -32.115  39.317 -52.925  1.00  0.00     0.064 A 
HETATM   24  N   UNL     1     -31.861  40.072 -54.028  1.00  0.00    -0.263 NA
HETATM   25  C   UNL     1     -31.207  39.481 -55.053  1.00  0.00     0.117 A 
HETATM   26  C   UNL     1     -30.792  38.163 -55.041  1.00  0.00     0.019 A 
HETATM   27  C   UNL     1     -31.065  37.399 -53.913  1.00  0.00     0.003 A 
HETATM   28  C   UNL     1     -31.738  37.976 -52.841  1.00  0.00     0.030 A 
ENDBRANCH   2  23
TORSDOF 3
ENDMDL
MODEL 10
REMARK VINA RESULT:      -7.3      2.428      6.877
REMARK  3 active torsions:
REMARK  status: ('A' for Active; 'I' for Inactive)
REMARK    1  A    between atoms: C_3  and  N_4 
REMARK       I    between atoms: N_4  and  C_5 
REMARK    2  A    between atoms: C_5  and  C_6 
REMARK    3  A    between atoms: C_7  and  C_8 
ROOT
HETATM    1  C   UNL     1     -40.801  54.545 -51.240  1.00  0.00     0.063 A 
HETATM    2  C   UNL     1     -40.319  53.967 -52.565  1.00  0.00     0.216 A 
HETATM    3  N   UNL     1     -40.013  52.545 -52.450  1.00  0.00    -0.091 N 
HETATM    4  C   UNL     1     -40.047  51.841 -51.279  1.00  0.00     0.735 A 
HETATM    5  N   UNL     1     -40.438  52.463 -50.150  1.00  0.00    -0.191 N 
HETATM    6  N   UNL     1     -39.526  51.776 -53.437  1.00  0.00     0.012 NA
HETATM    7  N   UNL     1     -39.332  50.589 -52.870  1.00  0.00     0.033 NA
HETATM    8  N   UNL     1     -39.649  50.618 -51.526  1.00  0.00     0.030 NA
HETATM    9  C   UNL     1     -40.841  53.794 -50.111  1.00  0.00     0.037 A 
HETATM   10  C   UNL     1     -41.291  54.302 -48.763  1.00  0.00     0.070 C 
HETATM   11  H   UNL     1     -40.492  51.930 -49.285  1.00  0.00     0.184 HD
ENDROOT
BRANCH   1  12
HETATM   12  C   UNL     1     -41.358  55.928 -51.249  1.00  0.00     0.256 C 
HETATM   13  N   UNL     1     -42.646  56.000 -51.729  1.00  0.00    -0.323 N 
HETATM   14  H   UNL     1     -43.085  55.139 -52.017  1.00  0.00     0.169 HD
HETATM   15  O   UNL     1     -40.654  56.848 -50.850  1.00  0.00    -0.267 OA
BRANCH  13  16
HETATM   16  C   UNL     1     -43.470  57.152 -51.820  1.00  0.00     0.041 A 
HETATM   17  C   UNL     1     -43.191  58.108 -52.824  1.00  0.00    -0.035 A 
HETATM   18  C   UNL     1     -42.058  57.948 -53.802  1.00  0.00     0.050 C 
HETATM   19  C   UNL     1     -44.003  59.252 -52.934  1.00  0.00     0.009 A 
HETATM   20  C   UNL     1     -45.074  59.455 -52.067  1.00  0.00     0.001 A 
HETATM   21  C   UNL     1     -45.348  58.517 -51.081  1.00  0.00     0.002 A 
HETATM   22  C   UNL     1     -44.551  57.374 -50.959  1.00  0.00     0.030 A 
ENDBRANCH  13  16
ENDBRANCH   1  12
BRANCH   2  23
HETATM   23  C   UNL     1     -41.272  54.234 -53.715  1.00  0.00     0.064 A 
HETATM   24  N   UNL     1     -42.537  53.755 -53.558  1.00  0.00    -0.263 NA
HETATM   25  C   UNL     1     -43.400  53.918 -54.585  1.00  0.00     0.117 A 
HETATM   26  C   UNL     1     -43.068  54.536 -55.776  1.00  0.00     0.019 A 
HETATM   27  C   UNL     1     -41.772  55.014 -55.929  1.00  0.00     0.003 A 
HETATM   28  C   UNL     1     -40.857  54.860 -54.892  1.00  0.00     0.030 A 
ENDBRANCH   2  23
TORSDOF 3
ENDMDL
