MODEL 1
REMARK VINA RESULT:      -8.4      0.000      0.000
REMARK  10 active torsions:
REMARK  status: ('A' for Active; 'I' for Inactive)
REMARK    1  A    between atoms: C_2  and  C_3 
REMARK    2  A    between atoms: C_3  and  O_4 
REMARK    3  A    between atoms: O_4  and  C_5 
REMARK    4  A    between atoms: C_7  and  C_8 
REMARK       I    between atoms: C_8  and  N_9 
REMARK    5  A    between atoms: N_9  and  C_10 
REMARK    6  A    between atoms: C_10  and  N_11 
REMARK    7  A    between atoms: N_11  and  C_12 
REMARK    8  A    between atoms: C_15  and  N_16 
REMARK    9  A    between atoms: N_19  and  C_21 
REMARK   10  A    between atoms: C_21  and  C_22 
ROOT
HETATM    1  C   UNL     1     -44.385  56.939 -54.192  1.00  0.00     0.034 A 
HETATM    2  C   UNL     1     -45.234  57.747 -54.948  1.00  0.00     0.032 A 
HETATM    3  C   UNL     1     -44.901  58.118 -56.259  1.00  0.00     0.031 A 
HETATM    4  C   UNL     1     -43.728  57.681 -56.890  1.00  0.00     0.030 A 
HETATM    5  C   UNL     1     -42.895  56.858 -56.109  1.00  0.00     0.031 A 
HETATM    6  C   UNL     1     -43.210  56.497 -54.782  1.00  0.00     0.032 A 
ENDROOT
BRANCH   1   7
HETATM    7  N   UNL     1     -44.739  56.749 -52.840  1.00  0.00    -0.333 N 
HETATM    8  H   UNL     1     -45.665  56.350 -52.719  1.00  0.00     0.168 HD
BRANCH   7   9
HETATM    9  C   UNL     1     -44.320  57.374 -51.724  1.00  0.00     0.179 C 
HETATM   10  S   UNL     1     -45.107  58.785 -51.273  1.00  0.00    -0.040 SA
BRANCH   9  11
HETATM   11  N   UNL     1     -43.352  56.917 -50.894  1.00  0.00    -0.299 N 
HETATM   12  C   UNL     1     -41.998  56.768 -51.195  1.00  0.00     0.257 C 
HETATM   13  O   UNL     1     -41.323  57.544 -51.861  1.00  0.00    -0.267 OA
HETATM   14  H   UNL     1     -43.746  56.155 -50.361  1.00  0.00     0.171 HD
BRANCH  12  15
HETATM   15  C   UNL     1     -41.337  55.558 -50.603  1.00  0.00     0.035 A 
HETATM   16  C   UNL     1     -40.607  54.632 -51.362  1.00  0.00     0.053 A 
HETATM   17  C   UNL     1     -39.945  53.561 -50.749  1.00  0.00     0.069 A 
HETATM   18  C   UNL     1     -40.032  53.398 -49.368  1.00  0.00     0.037 A 
HETATM   19  C   UNL     1     -40.782  54.296 -48.605  1.00  0.00     0.004 A 
HETATM   20  C   UNL     1     -41.431  55.371 -49.217  1.00  0.00     0.017 A 
BRANCH  17  21
HETATM   21  O   UNL     1     -39.243  52.767 -51.614  1.00  0.00    -0.351 OA
BRANCH  21  22
HETATM   22  C   UNL     1     -39.878  51.573 -52.082  1.00  0.00     0.179 C 
BRANCH  22  23
HETATM   23  C   UNL     1     -39.667  51.475 -53.601  1.00  0.00     0.002 C 
HETATM   24  C   UNL     1     -40.585  52.447 -54.339  1.00  0.00     0.011 C 
HETATM   25  C   UNL     1     -39.898  50.047 -54.103  1.00  0.00     0.011 C 
ENDBRANCH  22  23
ENDBRANCH  21  22
ENDBRANCH  17  21
ENDBRANCH  12  15
ENDBRANCH   9  11
ENDBRANCH   7   9
ENDBRANCH   1   7
BRANCH   4  26
HETATM   26  N   UNL     1     -43.397  58.111 -58.176  1.00  0.00    -0.378 N 
HETATM   27  C   UNL     1     -41.973  58.294 -58.532  1.00  0.00     0.150 C 
HETATM   28  C   UNL     1     -41.541  59.755 -58.282  1.00  0.00     0.255 C 
HETATM   29  N   UNL     1     -42.454  60.720 -59.047  1.00  0.00    -0.064 N 
HETATM   30  H   UNL     1     -42.335  60.508 -60.044  1.00  0.00     0.280 HD
HETATM   31  C   UNL     1     -43.926  60.476 -58.700  1.00  0.00     0.255 C 
HETATM   32  C   UNL     1     -44.295  58.996 -58.939  1.00  0.00     0.150 C 
BRANCH  29  33
HETATM   33  C   UNL     1     -42.063  62.164 -58.857  1.00  0.00     0.273 C 
BRANCH  33  34
HETATM   34  C   UNL     1     -40.963  62.592 -59.791  1.00  0.00    -0.033 A 
HETATM   35  C   UNL     1     -39.859  63.311 -59.306  1.00  0.00     0.009 A 
HETATM   36  C   UNL     1     -38.856  63.738 -60.177  1.00  0.00     0.001 A 
HETATM   37  C   UNL     1     -38.945  63.455 -61.538  1.00  0.00     0.000 A 
HETATM   38  C   UNL     1     -40.035  62.741 -62.031  1.00  0.00     0.001 A 
HETATM   39  C   UNL     1     -41.039  62.308 -61.163  1.00  0.00     0.009 A 
ENDBRANCH  33  34
ENDBRANCH  29  33
ENDBRANCH   4  26
TORSDOF 10
ENDMDL
MODEL 2
REMARK VINA RESULT:      -8.3      3.984      9.226
REMARK  10 active torsions:
REMARK  status: ('A' for Active; 'I' for Inactive)
REMARK    1  A    between atoms: C_2  and  C_3 
REMARK    2  A    between atoms: C_3  and  O_4 
REMARK    3  A    between atoms: O_4  and  C_5 
REMARK    4  A    between atoms: C_7  and  C_8 
REMARK       I    between atoms: C_8  and  N_9 
REMARK    5  A    between atoms: N_9  and  C_10 
REMARK    6  A    between atoms: C_10  and  N_11 
REMARK    7  A    between atoms: N_11  and  C_12 
REMARK    8  A    between atoms: C_15  and  N_16 
REMARK    9  A    between atoms: N_19  and  C_21 
REMARK   10  A    between atoms: C_21  and  C_22 
ROOT
HETATM    1  C   UNL     1     -43.046  59.587 -52.058  1.00  0.00     0.034 A 
HETATM    2  C   UNL     1     -44.225  58.876 -51.841  1.00  0.00     0.032 A 
HETATM    3  C   UNL     1     -44.197  57.544 -51.400  1.00  0.00     0.031 A 
HETATM    4  C   UNL     1     -42.999  56.869 -51.126  1.00  0.00     0.030 A 
HETATM    5  C   UNL     1     -41.825  57.612 -51.343  1.00  0.00     0.031 A 
HETATM    6  C   UNL     1     -41.843  58.945 -51.807  1.00  0.00     0.032 A 
ENDROOT
BRANCH   1   7
HETATM    7  N   UNL     1     -43.182  60.864 -52.642  1.00  0.00    -0.333 N 
HETATM    8  H   UNL     1     -43.606  61.546 -52.022  1.00  0.00     0.168 HD
BRANCH   7   9
HETATM    9  C   UNL     1     -43.284  61.235 -53.931  1.00  0.00     0.179 C 
HETATM   10  S   UNL     1     -43.482  62.867 -54.265  1.00  0.00    -0.040 SA
BRANCH   9  11
HETATM   11  N   UNL     1     -43.172  60.399 -54.992  1.00  0.00    -0.299 N 
HETATM   12  C   UNL     1     -44.184  59.621 -55.551  1.00  0.00     0.257 C 
HETATM   13  O   UNL     1     -45.350  59.967 -55.707  1.00  0.00    -0.267 OA
HETATM   14  H   UNL     1     -42.281  59.929 -54.913  1.00  0.00     0.171 HD
BRANCH  12  15
HETATM   15  C   UNL     1     -43.764  58.259 -56.023  1.00  0.00     0.035 A 
HETATM   16  C   UNL     1     -43.637  57.921 -57.377  1.00  0.00     0.053 A 
HETATM   17  C   UNL     1     -43.169  56.659 -57.763  1.00  0.00     0.069 A 
HETATM   18  C   UNL     1     -42.846  55.717 -56.788  1.00  0.00     0.037 A 
HETATM   19  C   UNL     1     -42.998  56.032 -55.436  1.00  0.00     0.004 A 
HETATM   20  C   UNL     1     -43.454  57.296 -55.053  1.00  0.00     0.017 A 
BRANCH  17  21
HETATM   21  O   UNL     1     -43.061  56.490 -59.116  1.00  0.00    -0.351 OA
BRANCH  21  22
HETATM   22  C   UNL     1     -44.150  56.937 -59.929  1.00  0.00     0.179 C 
BRANCH  22  23
HETATM   23  C   UNL     1     -45.214  55.829 -59.968  1.00  0.00     0.002 C 
HETATM   24  C   UNL     1     -45.011  54.927 -61.184  1.00  0.00     0.011 C 
HETATM   25  C   UNL     1     -46.627  56.416 -59.975  1.00  0.00     0.011 C 
ENDBRANCH  22  23
ENDBRANCH  21  22
ENDBRANCH  17  21
ENDBRANCH  12  15
ENDBRANCH   9  11
ENDBRANCH   7   9
ENDBRANCH   1   7
BRANCH   4  26
HETATM   26  N   UNL     1     -43.000  55.526 -50.742  1.00  0.00    -0.378 N 
HETATM   27  C   UNL     1     -42.217  55.114 -49.556  1.00  0.00     0.150 C 
HETATM   28  C   UNL     1     -40.804  54.658 -49.980  1.00  0.00     0.255 C 
HETATM   29  N   UNL     1     -40.895  53.540 -51.026  1.00  0.00    -0.064 N 
HETATM   30  H   UNL     1     -41.374  52.753 -50.573  1.00  0.00     0.280 HD
HETATM   31  C   UNL     1     -41.753  53.973 -52.218  1.00  0.00     0.255 C 
HETATM   32  C   UNL     1     -43.141  54.448 -51.737  1.00  0.00     0.150 C 
BRANCH  29  33
HETATM   33  C   UNL     1     -39.541  53.038 -51.459  1.00  0.00     0.273 C 
BRANCH  33  34
HETATM   34  C   UNL     1     -39.627  51.786 -52.288  1.00  0.00    -0.033 A 
HETATM   35  C   UNL     1     -39.595  50.523 -51.675  1.00  0.00     0.009 A 
HETATM   36  C   UNL     1     -39.641  49.361 -52.446  1.00  0.00     0.001 A 
HETATM   37  C   UNL     1     -39.717  49.447 -53.834  1.00  0.00     0.000 A 
HETATM   38  C   UNL     1     -39.751  50.693 -54.455  1.00  0.00     0.001 A 
HETATM   39  C   UNL     1     -39.709  51.858 -53.688  1.00  0.00     0.009 A 
ENDBRANCH  33  34
ENDBRANCH  29  33
ENDBRANCH   4  26
TORSDOF 10
ENDMDL
MODEL 3
REMARK VINA RESULT:      -8.1      2.891      9.409
REMARK  10 active torsions:
REMARK  status: ('A' for Active; 'I' for Inactive)
REMARK    1  A    between atoms: C_2  and  C_3 
REMARK    2  A    between atoms: C_3  and  O_4 
REMARK    3  A    between atoms: O_4  and  C_5 
REMARK    4  A    between atoms: C_7  and  C_8 
REMARK       I    between atoms: C_8  and  N_9 
REMARK    5  A    between atoms: N_9  and  C_10 
REMARK    6  A    between atoms: C_10  and  N_11 
REMARK    7  A    between atoms: N_11  and  C_12 
REMARK    8  A    between atoms: C_15  and  N_16 
REMARK    9  A    between atoms: N_19  and  C_21 
REMARK   10  A    between atoms: C_21  and  C_22 
ROOT
HETATM    1  C   UNL     1     -43.562  60.195 -52.420  1.00  0.00     0.034 A 
HETATM    2  C   UNL     1     -44.511  59.194 -52.622  1.00  0.00     0.032 A 
HETATM    3  C   UNL     1     -44.301  57.891 -52.145  1.00  0.00     0.031 A 
HETATM    4  C   UNL     1     -43.156  57.532 -51.421  1.00  0.00     0.030 A 
HETATM    5  C   UNL     1     -42.220  58.563 -51.221  1.00  0.00     0.031 A 
HETATM    6  C   UNL     1     -42.412  59.870 -51.716  1.00  0.00     0.032 A 
ENDROOT
BRANCH   1   7
HETATM    7  N   UNL     1     -43.801  61.426 -53.067  1.00  0.00    -0.333 N 
HETATM    8  H   UNL     1     -44.511  61.989 -52.610  1.00  0.00     0.168 HD
BRANCH   7   9
HETATM    9  C   UNL     1     -43.626  61.794 -54.350  1.00  0.00     0.179 C 
HETATM   10  S   UNL     1     -43.506  63.432 -54.687  1.00  0.00    -0.040 SA
BRANCH   9  11
HETATM   11  N   UNL     1     -43.472  60.938 -55.389  1.00  0.00    -0.299 N 
HETATM   12  C   UNL     1     -42.288  60.320 -55.791  1.00  0.00     0.257 C 
HETATM   13  O   UNL     1     -41.429  59.865 -55.044  1.00  0.00    -0.267 OA
HETATM   14  H   UNL     1     -44.041  61.282 -56.150  1.00  0.00     0.171 HD
BRANCH  12  15
HETATM   15  C   UNL     1     -42.103  60.186 -57.274  1.00  0.00     0.035 A 
HETATM   16  C   UNL     1     -42.129  58.954 -57.943  1.00  0.00     0.053 A 
HETATM   17  C   UNL     1     -42.026  58.890 -59.338  1.00  0.00     0.069 A 
HETATM   18  C   UNL     1     -41.872  60.065 -60.071  1.00  0.00     0.037 A 
HETATM   19  C   UNL     1     -41.814  61.296 -59.413  1.00  0.00     0.004 A 
HETATM   20  C   UNL     1     -41.929  61.358 -58.022  1.00  0.00     0.017 A 
BRANCH  17  21
HETATM   21  O   UNL     1     -42.107  57.624 -59.850  1.00  0.00    -0.351 OA
BRANCH  21  22
HETATM   22  C   UNL     1     -43.405  57.128 -60.190  1.00  0.00     0.179 C 
BRANCH  22  23
HETATM   23  C   UNL     1     -43.450  55.626 -59.870  1.00  0.00     0.002 C 
HETATM   24  C   UNL     1     -44.676  54.974 -60.506  1.00  0.00     0.011 C 
HETATM   25  C   UNL     1     -43.444  55.379 -58.360  1.00  0.00     0.011 C 
ENDBRANCH  22  23
ENDBRANCH  21  22
ENDBRANCH  17  21
ENDBRANCH  12  15
ENDBRANCH   9  11
ENDBRANCH   7   9
ENDBRANCH   1   7
BRANCH   4  26
HETATM   26  N   UNL     1     -42.949  56.214 -51.006  1.00  0.00    -0.378 N 
HETATM   27  C   UNL     1     -41.646  55.840 -50.414  1.00  0.00     0.150 C 
HETATM   28  C   UNL     1     -40.696  55.304 -51.507  1.00  0.00     0.255 C 
HETATM   29  N   UNL     1     -41.347  54.133 -52.253  1.00  0.00    -0.064 N 
HETATM   30  H   UNL     1     -41.502  53.393 -51.559  1.00  0.00     0.280 HD
HETATM   31  C   UNL     1     -42.717  54.532 -52.811  1.00  0.00     0.255 C 
HETATM   32  C   UNL     1     -43.614  55.088 -51.685  1.00  0.00     0.150 C 
BRANCH  29  33
HETATM   33  C   UNL     1     -40.451  53.554 -53.319  1.00  0.00     0.273 C 
BRANCH  33  34
HETATM   34  C   UNL     1     -40.144  52.099 -53.088  1.00  0.00    -0.033 A 
HETATM   35  C   UNL     1     -39.876  51.626 -51.794  1.00  0.00     0.009 A 
HETATM   36  C   UNL     1     -39.558  50.284 -51.583  1.00  0.00     0.001 A 
HETATM   37  C   UNL     1     -39.502  49.402 -52.660  1.00  0.00     0.000 A 
HETATM   38  C   UNL     1     -39.767  49.859 -53.949  1.00  0.00     0.001 A 
HETATM   39  C   UNL     1     -40.089  51.200 -54.164  1.00  0.00     0.009 A 
ENDBRANCH  33  34
ENDBRANCH  29  33
ENDBRANCH   4  26
TORSDOF 10
ENDMDL
MODEL 4
REMARK VINA RESULT:      -8.1      4.014      7.678
REMARK  10 active torsions:
REMARK  status: ('A' for Active; 'I' for Inactive)
REMARK    1  A    between atoms: C_2  and  C_3 
REMARK    2  A    between atoms: C_3  and  O_4 
REMARK    3  A    between atoms: O_4  and  C_5 
REMARK    4  A    between atoms: C_7  and  C_8 
REMARK       I    between atoms: C_8  and  N_9 
REMARK    5  A    between atoms: N_9  and  C_10 
REMARK    6  A    between atoms: C_10  and  N_11 
REMARK    7  A    between atoms: N_11  and  C_12 
REMARK    8  A    between atoms: C_15  and  N_16 
REMARK    9  A    between atoms: N_19  and  C_21 
REMARK   10  A    between atoms: C_21  and  C_22 
ROOT
HETATM    1  C   UNL     1     -45.121  59.051 -54.558  1.00  0.00     0.034 A 
HETATM    2  C   UNL     1     -44.104  59.154 -55.505  1.00  0.00     0.032 A 
HETATM    3  C   UNL     1     -43.353  58.031 -55.884  1.00  0.00     0.031 A 
HETATM    4  C   UNL     1     -43.597  56.753 -55.363  1.00  0.00     0.030 A 
HETATM    5  C   UNL     1     -44.635  56.676 -54.417  1.00  0.00     0.031 A 
HETATM    6  C   UNL     1     -45.382  57.803 -54.014  1.00  0.00     0.032 A 
ENDROOT
BRANCH   1   7
HETATM    7  N   UNL     1     -45.713  60.262 -54.139  1.00  0.00    -0.333 N 
HETATM    8  H   UNL     1     -45.957  60.877 -54.909  1.00  0.00     0.168 HD
BRANCH   7   9
HETATM    9  C   UNL     1     -45.610  60.936 -52.979  1.00  0.00     0.179 C 
HETATM   10  S   UNL     1     -46.672  62.208 -52.714  1.00  0.00    -0.040 SA
BRANCH   9  11
HETATM   11  N   UNL     1     -44.756  60.627 -51.973  1.00  0.00    -0.299 N 
HETATM   12  C   UNL     1     -43.442  61.068 -51.830  1.00  0.00     0.257 C 
HETATM   13  O   UNL     1     -43.034  62.197 -52.082  1.00  0.00    -0.267 OA
HETATM   14  H   UNL     1     -44.895  59.651 -51.749  1.00  0.00     0.171 HD
BRANCH  12  15
HETATM   15  C   UNL     1     -42.478  60.056 -51.284  1.00  0.00     0.035 A 
HETATM   16  C   UNL     1     -42.608  58.677 -51.500  1.00  0.00     0.053 A 
HETATM   17  C   UNL     1     -41.640  57.780 -51.032  1.00  0.00     0.069 A 
HETATM   18  C   UNL     1     -40.543  58.262 -50.320  1.00  0.00     0.037 A 
HETATM   19  C   UNL     1     -40.418  59.631 -50.072  1.00  0.00     0.004 A 
HETATM   20  C   UNL     1     -41.380  60.524 -50.551  1.00  0.00     0.017 A 
BRANCH  17  21
HETATM   21  O   UNL     1     -41.883  56.473 -51.353  1.00  0.00    -0.351 OA
BRANCH  21  22
HETATM   22  C   UNL     1     -43.239  56.020 -51.307  1.00  0.00     0.179 C 
BRANCH  22  23
HETATM   23  C   UNL     1     -43.357  54.951 -50.209  1.00  0.00     0.002 C 
HETATM   24  C   UNL     1     -41.977  54.430 -49.812  1.00  0.00     0.011 C 
HETATM   25  C   UNL     1     -44.249  53.791 -50.657  1.00  0.00     0.011 C 
ENDBRANCH  22  23
ENDBRANCH  21  22
ENDBRANCH  17  21
ENDBRANCH  12  15
ENDBRANCH   9  11
ENDBRANCH   7   9
ENDBRANCH   1   7
BRANCH   4  26
HETATM   26  N   UNL     1     -42.797  55.664 -55.717  1.00  0.00    -0.378 N 
HETATM   27  C   UNL     1     -43.220  54.300 -55.331  1.00  0.00     0.150 C 
HETATM   28  C   UNL     1     -42.594  53.907 -53.977  1.00  0.00     0.255 C 
HETATM   29  N   UNL     1     -41.067  54.040 -54.036  1.00  0.00    -0.064 N 
HETATM   30  H   UNL     1     -40.743  53.381 -54.753  1.00  0.00     0.280 HD
HETATM   31  C   UNL     1     -40.656  55.445 -54.487  1.00  0.00     0.255 C 
HETATM   32  C   UNL     1     -41.333  55.798 -55.828  1.00  0.00     0.150 C 
BRANCH  29  33
HETATM   33  C   UNL     1     -40.399  53.645 -52.743  1.00  0.00     0.273 C 
BRANCH  33  34
HETATM   34  C   UNL     1     -40.051  52.182 -52.696  1.00  0.00    -0.033 A 
HETATM   35  C   UNL     1     -39.967  51.432 -53.881  1.00  0.00     0.009 A 
HETATM   36  C   UNL     1     -39.677  50.068 -53.835  1.00  0.00     0.001 A 
HETATM   37  C   UNL     1     -39.471  49.438 -52.610  1.00  0.00     0.000 A 
HETATM   38  C   UNL     1     -39.550  50.171 -51.428  1.00  0.00     0.001 A 
HETATM   39  C   UNL     1     -39.835  51.537 -51.468  1.00  0.00     0.009 A 
ENDBRANCH  33  34
ENDBRANCH  29  33
ENDBRANCH   4  26
TORSDOF 10
ENDMDL
MODEL 5
REMARK VINA RESULT:      -8.0      3.342      9.402
REMARK  10 active torsions:
REMARK  status: ('A' for Active; 'I' for Inactive)
REMARK    1  A    between atoms: C_2  and  C_3 
REMARK    2  A    between atoms: C_3  and  O_4 
REMARK    3  A    between atoms: O_4  and  C_5 
REMARK    4  A    between atoms: C_7  and  C_8 
REMARK       I    between atoms: C_8  and  N_9 
REMARK    5  A    between atoms: N_9  and  C_10 
REMARK    6  A    between atoms: C_10  and  N_11 
REMARK    7  A    between atoms: N_11  and  C_12 
REMARK    8  A    between atoms: C_15  and  N_16 
REMARK    9  A    between atoms: N_19  and  C_21 
REMARK   10  A    between atoms: C_21  and  C_22 
ROOT
HETATM    1  C   UNL     1     -43.510  60.129 -54.505  1.00  0.00     0.034 A 
HETATM    2  C   UNL     1     -44.625  59.318 -54.709  1.00  0.00     0.032 A 
HETATM    3  C   UNL     1     -44.493  57.929 -54.856  1.00  0.00     0.031 A 
HETATM    4  C   UNL     1     -43.253  57.280 -54.777  1.00  0.00     0.030 A 
HETATM    5  C   UNL     1     -42.145  58.120 -54.559  1.00  0.00     0.031 A 
HETATM    6  C   UNL     1     -42.266  59.520 -54.431  1.00  0.00     0.032 A 
ENDROOT
BRANCH   1   7
HETATM    7  N   UNL     1     -43.735  61.522 -54.519  1.00  0.00    -0.333 N 
HETATM    8  H   UNL     1     -44.468  61.817 -53.881  1.00  0.00     0.168 HD
BRANCH   7   9
HETATM    9  C   UNL     1     -43.516  62.438 -55.480  1.00  0.00     0.179 C 
HETATM   10  S   UNL     1     -43.611  64.058 -55.055  1.00  0.00    -0.040 SA
BRANCH   9  11
HETATM   11  N   UNL     1     -43.156  62.156 -56.755  1.00  0.00    -0.299 N 
HETATM   12  C   UNL     1     -43.941  61.535 -57.725  1.00  0.00     0.257 C 
HETATM   13  O   UNL     1     -45.139  61.724 -57.905  1.00  0.00    -0.267 OA
HETATM   14  H   UNL     1     -42.195  61.846 -56.736  1.00  0.00     0.171 HD
BRANCH  12  15
HETATM   15  C   UNL     1     -43.214  60.585 -58.631  1.00  0.00     0.035 A 
HETATM   16  C   UNL     1     -43.056  59.221 -58.348  1.00  0.00     0.053 A 
HETATM   17  C   UNL     1     -42.435  58.362 -59.263  1.00  0.00     0.069 A 
HETATM   18  C   UNL     1     -41.944  58.874 -60.463  1.00  0.00     0.037 A 
HETATM   19  C   UNL     1     -42.068  60.237 -60.743  1.00  0.00     0.004 A 
HETATM   20  C   UNL     1     -42.700  61.089 -59.833  1.00  0.00     0.017 A 
BRANCH  17  21
HETATM   21  O   UNL     1     -42.390  57.055 -58.864  1.00  0.00    -0.351 OA
BRANCH  21  22
HETATM   22  C   UNL     1     -42.844  56.063 -59.791  1.00  0.00     0.179 C 
BRANCH  22  23
HETATM   23  C   UNL     1     -44.293  55.693 -59.435  1.00  0.00     0.002 C 
HETATM   24  C   UNL     1     -44.499  54.182 -59.512  1.00  0.00     0.011 C 
HETATM   25  C   UNL     1     -45.289  56.410 -60.350  1.00  0.00     0.011 C 
ENDBRANCH  22  23
ENDBRANCH  21  22
ENDBRANCH  17  21
ENDBRANCH  12  15
ENDBRANCH   9  11
ENDBRANCH   7   9
ENDBRANCH   1   7
BRANCH   4  26
HETATM   26  N   UNL     1     -43.145  55.903 -54.982  1.00  0.00    -0.378 N 
HETATM   27  C   UNL     1     -43.657  54.976 -53.949  1.00  0.00     0.150 C 
HETATM   28  C   UNL     1     -42.529  54.592 -52.968  1.00  0.00     0.255 C 
HETATM   29  N   UNL     1     -41.336  54.002 -53.729  1.00  0.00    -0.064 N 
HETATM   30  H   UNL     1     -41.676  53.151 -54.191  1.00  0.00     0.280 HD
HETATM   31  C   UNL     1     -40.858  54.958 -54.827  1.00  0.00     0.255 C 
HETATM   32  C   UNL     1     -42.030  55.333 -55.760  1.00  0.00     0.150 C 
BRANCH  29  33
HETATM   33  C   UNL     1     -40.212  53.586 -52.815  1.00  0.00     0.273 C 
BRANCH  33  34
HETATM   34  C   UNL     1     -40.017  52.095 -52.780  1.00  0.00    -0.033 A 
HETATM   35  C   UNL     1     -39.701  51.447 -51.574  1.00  0.00     0.009 A 
HETATM   36  C   UNL     1     -39.488  50.069 -51.547  1.00  0.00     0.001 A 
HETATM   37  C   UNL     1     -39.585  49.324 -52.720  1.00  0.00     0.000 A 
HETATM   38  C   UNL     1     -39.899  49.954 -53.921  1.00  0.00     0.001 A 
HETATM   39  C   UNL     1     -40.117  51.332 -53.953  1.00  0.00     0.009 A 
ENDBRANCH  33  34
ENDBRANCH  29  33
ENDBRANCH   4  26
TORSDOF 10
ENDMDL
MODEL 6
REMARK VINA RESULT:      -8.0      4.288      7.924
REMARK  10 active torsions:
REMARK  status: ('A' for Active; 'I' for Inactive)
REMARK    1  A    between atoms: C_2  and  C_3 
REMARK    2  A    between atoms: C_3  and  O_4 
REMARK    3  A    between atoms: O_4  and  C_5 
REMARK    4  A    between atoms: C_7  and  C_8 
REMARK       I    between atoms: C_8  and  N_9 
REMARK    5  A    between atoms: N_9  and  C_10 
REMARK    6  A    between atoms: C_10  and  N_11 
REMARK    7  A    between atoms: N_11  and  C_12 
REMARK    8  A    between atoms: C_15  and  N_16 
REMARK    9  A    between atoms: N_19  and  C_21 
REMARK   10  A    between atoms: C_21  and  C_22 
ROOT
HETATM    1  C   UNL     1     -43.425  58.373 -55.639  1.00  0.00     0.034 A 
HETATM    2  C   UNL     1     -42.295  59.184 -55.552  1.00  0.00     0.032 A 
HETATM    3  C   UNL     1     -42.137  60.095 -54.497  1.00  0.00     0.031 A 
HETATM    4  C   UNL     1     -43.079  60.221 -53.466  1.00  0.00     0.030 A 
HETATM    5  C   UNL     1     -44.204  59.383 -53.572  1.00  0.00     0.031 A 
HETATM    6  C   UNL     1     -44.382  58.479 -54.640  1.00  0.00     0.032 A 
ENDROOT
BRANCH   1   7
HETATM    7  N   UNL     1     -43.556  57.602 -56.814  1.00  0.00    -0.333 N 
HETATM    8  H   UNL     1     -44.462  57.702 -57.261  1.00  0.00     0.168 HD
BRANCH   7   9
HETATM    9  C   UNL     1     -42.935  56.472 -57.198  1.00  0.00     0.179 C 
HETATM   10  S   UNL     1     -42.982  56.065 -58.824  1.00  0.00    -0.040 SA
BRANCH   9  11
HETATM   11  N   UNL     1     -42.213  55.666 -56.382  1.00  0.00    -0.299 N 
HETATM   12  C   UNL     1     -42.701  54.622 -55.597  1.00  0.00     0.257 C 
HETATM   13  O   UNL     1     -43.571  53.824 -55.927  1.00  0.00    -0.267 OA
HETATM   14  H   UNL     1     -41.520  56.242 -55.924  1.00  0.00     0.171 HD
BRANCH  12  15
HETATM   15  C   UNL     1     -42.056  54.472 -54.250  1.00  0.00     0.035 A 
HETATM   16  C   UNL     1     -41.369  53.317 -53.852  1.00  0.00     0.053 A 
HETATM   17  C   UNL     1     -40.719  53.257 -52.613  1.00  0.00     0.069 A 
HETATM   18  C   UNL     1     -40.775  54.352 -51.753  1.00  0.00     0.037 A 
HETATM   19  C   UNL     1     -41.482  55.498 -52.126  1.00  0.00     0.004 A 
HETATM   20  C   UNL     1     -42.119  55.559 -53.368  1.00  0.00     0.017 A 
BRANCH  17  21
HETATM   21  O   UNL     1     -40.060  52.081 -52.381  1.00  0.00    -0.351 OA
BRANCH  21  22
HETATM   22  C   UNL     1     -39.164  51.613 -53.394  1.00  0.00     0.179 C 
BRANCH  22  23
HETATM   23  C   UNL     1     -39.377  50.101 -53.570  1.00  0.00     0.002 C 
HETATM   24  C   UNL     1     -40.484  49.826 -54.586  1.00  0.00     0.011 C 
HETATM   25  C   UNL     1     -39.706  49.428 -52.235  1.00  0.00     0.011 C 
ENDBRANCH  22  23
ENDBRANCH  21  22
ENDBRANCH  17  21
ENDBRANCH  12  15
ENDBRANCH   9  11
ENDBRANCH   7   9
ENDBRANCH   1   7
BRANCH   4  26
HETATM   26  N   UNL     1     -42.922  61.175 -52.458  1.00  0.00    -0.378 N 
HETATM   27  C   UNL     1     -42.362  60.762 -51.153  1.00  0.00     0.150 C 
HETATM   28  C   UNL     1     -43.497  60.387 -50.177  1.00  0.00     0.255 C 
HETATM   29  N   UNL     1     -44.486  61.551 -50.035  1.00  0.00    -0.064 N 
HETATM   30  H   UNL     1     -43.958  62.338 -49.641  1.00  0.00     0.280 HD
HETATM   31  C   UNL     1     -45.012  61.993 -51.404  1.00  0.00     0.255 C 
HETATM   32  C   UNL     1     -43.837  62.326 -52.349  1.00  0.00     0.150 C 
BRANCH  29  33
HETATM   33  C   UNL     1     -45.606  61.248 -49.072  1.00  0.00     0.273 C 
BRANCH  33  34
HETATM   34  C   UNL     1     -45.340  61.780 -47.691  1.00  0.00    -0.033 A 
HETATM   35  C   UNL     1     -45.120  60.899 -46.619  1.00  0.00     0.009 A 
HETATM   36  C   UNL     1     -44.907  61.391 -45.331  1.00  0.00     0.001 A 
HETATM   37  C   UNL     1     -44.912  62.765 -45.099  1.00  0.00     0.000 A 
HETATM   38  C   UNL     1     -45.127  63.649 -46.153  1.00  0.00     0.001 A 
HETATM   39  C   UNL     1     -45.337  63.162 -47.444  1.00  0.00     0.009 A 
ENDBRANCH  33  34
ENDBRANCH  29  33
ENDBRANCH   4  26
TORSDOF 10
ENDMDL
MODEL 7
REMARK VINA RESULT:      -8.0     17.266     19.969
REMARK  10 active torsions:
REMARK  status: ('A' for Active; 'I' for Inactive)
REMARK    1  A    between atoms: C_2  and  C_3 
REMARK    2  A    between atoms: C_3  and  O_4 
REMARK    3  A    between atoms: O_4  and  C_5 
REMARK    4  A    between atoms: C_7  and  C_8 
REMARK       I    between atoms: C_8  and  N_9 
REMARK    5  A    between atoms: N_9  and  C_10 
REMARK    6  A    between atoms: C_10  and  N_11 
REMARK    7  A    between atoms: N_11  and  C_12 
REMARK    8  A    between atoms: C_15  and  N_16 
REMARK    9  A    between atoms: N_19  and  C_21 
REMARK   10  A    between atoms: C_21  and  C_22 
ROOT
HETATM    1  C   UNL     1     -35.504  41.935 -54.543  1.00  0.00     0.034 A 
HETATM    2  C   UNL     1     -34.541  41.102 -55.112  1.00  0.00     0.032 A 
HETATM    3  C   UNL     1     -34.676  40.635 -56.428  1.00  0.00     0.031 A 
HETATM    4  C   UNL     1     -35.755  40.997 -57.247  1.00  0.00     0.030 A 
HETATM    5  C   UNL     1     -36.705  41.846 -56.652  1.00  0.00     0.031 A 
HETATM    6  C   UNL     1     -36.589  42.304 -55.323  1.00  0.00     0.032 A 
ENDROOT
BRANCH   1   7
HETATM    7  N   UNL     1     -35.350  42.226 -53.171  1.00  0.00    -0.333 N 
HETATM    8  H   UNL     1     -34.599  42.882 -52.981  1.00  0.00     0.168 HD
BRANCH   7   9
HETATM    9  C   UNL     1     -35.668  41.506 -52.079  1.00  0.00     0.179 C 
HETATM   10  S   UNL     1     -37.158  40.737 -52.052  1.00  0.00    -0.040 SA
BRANCH   9  11
HETATM   11  N   UNL     1     -34.847  41.297 -51.020  1.00  0.00    -0.299 N 
HETATM   12  C   UNL     1     -33.580  40.718 -51.050  1.00  0.00     0.257 C 
HETATM   13  O   UNL     1     -32.729  40.900 -51.913  1.00  0.00    -0.267 OA
HETATM   14  H   UNL     1     -35.424  40.998 -50.246  1.00  0.00     0.171 HD
BRANCH  12  15
HETATM   15  C   UNL     1     -33.252  39.827 -49.888  1.00  0.00     0.035 A 
HETATM   16  C   UNL     1     -32.043  39.899 -49.181  1.00  0.00     0.053 A 
HETATM   17  C   UNL     1     -31.817  39.096 -48.057  1.00  0.00     0.069 A 
HETATM   18  C   UNL     1     -32.798  38.194 -47.647  1.00  0.00     0.037 A 
HETATM   19  C   UNL     1     -33.994  38.091 -48.361  1.00  0.00     0.004 A 
HETATM   20  C   UNL     1     -34.221  38.902 -49.475  1.00  0.00     0.017 A 
BRANCH  17  21
HETATM   21  O   UNL     1     -30.610  39.306 -47.450  1.00  0.00    -0.351 OA
BRANCH  21  22
HETATM   22  C   UNL     1     -30.232  38.414 -46.396  1.00  0.00     0.179 C 
BRANCH  22  23
HETATM   23  C   UNL     1     -30.164  39.213 -45.085  1.00  0.00     0.002 C 
HETATM   24  C   UNL     1     -31.465  39.072 -44.298  1.00  0.00     0.011 C 
HETATM   25  C   UNL     1     -29.864  40.690 -45.350  1.00  0.00     0.011 C 
ENDBRANCH  22  23
ENDBRANCH  21  22
ENDBRANCH  17  21
ENDBRANCH  12  15
ENDBRANCH   9  11
ENDBRANCH   7   9
ENDBRANCH   1   7
BRANCH   4  26
HETATM   26  N   UNL     1     -35.891  40.472 -58.534  1.00  0.00    -0.378 N 
HETATM   27  C   UNL     1     -36.947  41.004 -59.423  1.00  0.00     0.150 C 
HETATM   28  C   UNL     1     -38.233  40.159 -59.292  1.00  0.00     0.255 C 
HETATM   29  N   UNL     1     -37.933  38.683 -59.575  1.00  0.00    -0.064 N 
HETATM   30  H   UNL     1     -37.602  38.631 -60.545  1.00  0.00     0.280 HD
HETATM   31  C   UNL     1     -36.802  38.171 -58.678  1.00  0.00     0.255 C 
HETATM   32  C   UNL     1     -35.553  39.067 -58.825  1.00  0.00     0.150 C 
BRANCH  29  33
HETATM   33  C   UNL     1     -39.161  37.813 -59.483  1.00  0.00     0.273 C 
BRANCH  33  34
HETATM   34  C   UNL     1     -39.979  37.832 -60.746  1.00  0.00    -0.033 A 
HETATM   35  C   UNL     1     -41.371  38.004 -60.690  1.00  0.00     0.009 A 
HETATM   36  C   UNL     1     -42.134  37.989 -61.858  1.00  0.00     0.001 A 
HETATM   37  C   UNL     1     -41.516  37.800 -63.093  1.00  0.00     0.000 A 
HETATM   38  C   UNL     1     -40.136  37.630 -63.162  1.00  0.00     0.001 A 
HETATM   39  C   UNL     1     -39.368  37.648 -61.997  1.00  0.00     0.009 A 
ENDBRANCH  33  34
ENDBRANCH  29  33
ENDBRANCH   4  26
TORSDOF 10
ENDMDL
MODEL 8
REMARK VINA RESULT:      -7.9      3.397      8.980
REMARK  10 active torsions:
REMARK  status: ('A' for Active; 'I' for Inactive)
REMARK    1  A    between atoms: C_2  and  C_3 
REMARK    2  A    between atoms: C_3  and  O_4 
REMARK    3  A    between atoms: O_4  and  C_5 
REMARK    4  A    between atoms: C_7  and  C_8 
REMARK       I    between atoms: C_8  and  N_9 
REMARK    5  A    between atoms: N_9  and  C_10 
REMARK    6  A    between atoms: C_10  and  N_11 
REMARK    7  A    between atoms: N_11  and  C_12 
REMARK    8  A    between atoms: C_15  and  N_16 
REMARK    9  A    between atoms: N_19  and  C_21 
REMARK   10  A    between atoms: C_21  and  C_22 
ROOT
HETATM    1  C   UNL     1     -42.810  60.776 -57.193  1.00  0.00     0.034 A 
HETATM    2  C   UNL     1     -43.240  61.664 -56.208  1.00  0.00     0.032 A 
HETATM    3  C   UNL     1     -43.065  61.374 -54.847  1.00  0.00     0.031 A 
HETATM    4  C   UNL     1     -42.430  60.206 -54.403  1.00  0.00     0.030 A 
HETATM    5  C   UNL     1     -41.997  59.333 -55.417  1.00  0.00     0.031 A 
HETATM    6  C   UNL     1     -42.187  59.605 -56.788  1.00  0.00     0.032 A 
ENDROOT
BRANCH   1   7
HETATM    7  N   UNL     1     -43.167  61.092 -58.521  1.00  0.00    -0.333 N 
HETATM    8  H   UNL     1     -44.100  61.482 -58.605  1.00  0.00     0.168 HD
BRANCH   7   9
HETATM    9  C   UNL     1     -42.733  60.588 -59.692  1.00  0.00     0.179 C 
HETATM   10  S   UNL     1     -41.653  61.506 -60.589  1.00  0.00    -0.040 SA
BRANCH   9  11
HETATM   11  N   UNL     1     -43.049  59.362 -60.175  1.00  0.00    -0.299 N 
HETATM   12  C   UNL     1     -44.281  58.717 -60.071  1.00  0.00     0.257 C 
HETATM   13  O   UNL     1     -45.379  59.250 -60.179  1.00  0.00    -0.267 OA
HETATM   14  H   UNL     1     -42.251  58.762 -60.022  1.00  0.00     0.171 HD
BRANCH  12  15
HETATM   15  C   UNL     1     -44.215  57.236 -59.843  1.00  0.00     0.035 A 
HETATM   16  C   UNL     1     -43.664  56.659 -58.690  1.00  0.00     0.053 A 
HETATM   17  C   UNL     1     -43.695  55.273 -58.492  1.00  0.00     0.069 A 
HETATM   18  C   UNL     1     -44.261  54.452 -59.466  1.00  0.00     0.037 A 
HETATM   19  C   UNL     1     -44.786  55.012 -60.633  1.00  0.00     0.004 A 
HETATM   20  C   UNL     1     -44.764  56.396 -60.822  1.00  0.00     0.017 A 
BRANCH  17  21
HETATM   21  O   UNL     1     -43.156  54.864 -57.304  1.00  0.00    -0.351 OA
BRANCH  21  22
HETATM   22  C   UNL     1     -42.411  55.824 -56.548  1.00  0.00     0.179 C 
BRANCH  22  23
HETATM   23  C   UNL     1     -42.095  55.217 -55.172  1.00  0.00     0.002 C 
HETATM   24  C   UNL     1     -40.594  54.977 -55.019  1.00  0.00     0.011 C 
HETATM   25  C   UNL     1     -42.863  53.913 -54.950  1.00  0.00     0.011 C 
ENDBRANCH  22  23
ENDBRANCH  21  22
ENDBRANCH  17  21
ENDBRANCH  12  15
ENDBRANCH   9  11
ENDBRANCH   7   9
ENDBRANCH   1   7
BRANCH   4  26
HETATM   26  N   UNL     1     -42.319  59.918 -53.041  1.00  0.00    -0.378 N 
HETATM   27  C   UNL     1     -41.155  59.143 -52.558  1.00  0.00     0.150 C 
HETATM   28  C   UNL     1     -41.492  57.637 -52.519  1.00  0.00     0.255 C 
HETATM   29  N   UNL     1     -42.740  57.391 -51.664  1.00  0.00    -0.064 N 
HETATM   30  H   UNL     1     -42.511  57.702 -50.713  1.00  0.00     0.280 HD
HETATM   31  C   UNL     1     -43.917  58.243 -52.152  1.00  0.00     0.255 C 
HETATM   32  C   UNL     1     -43.517  59.733 -52.201  1.00  0.00     0.150 C 
BRANCH  29  33
HETATM   33  C   UNL     1     -43.103  55.931 -51.572  1.00  0.00     0.273 C 
BRANCH  33  34
HETATM   34  C   UNL     1     -42.043  55.115 -50.883  1.00  0.00    -0.033 A 
HETATM   35  C   UNL     1     -41.638  55.433 -49.577  1.00  0.00     0.009 A 
HETATM   36  C   UNL     1     -40.631  54.697 -48.950  1.00  0.00     0.001 A 
HETATM   37  C   UNL     1     -40.018  53.641 -49.620  1.00  0.00     0.000 A 
HETATM   38  C   UNL     1     -40.411  53.315 -50.915  1.00  0.00     0.001 A 
HETATM   39  C   UNL     1     -41.421  54.045 -51.545  1.00  0.00     0.009 A 
ENDBRANCH  33  34
ENDBRANCH  29  33
ENDBRANCH   4  26
TORSDOF 10
ENDMDL
MODEL 9
REMARK VINA RESULT:      -7.7      2.888      4.325
REMARK  10 active torsions:
REMARK  status: ('A' for Active; 'I' for Inactive)
REMARK    1  A    between atoms: C_2  and  C_3 
REMARK    2  A    between atoms: C_3  and  O_4 
REMARK    3  A    between atoms: O_4  and  C_5 
REMARK    4  A    between atoms: C_7  and  C_8 
REMARK       I    between atoms: C_8  and  N_9 
REMARK    5  A    between atoms: N_9  and  C_10 
REMARK    6  A    between atoms: C_10  and  N_11 
REMARK    7  A    between atoms: N_11  and  C_12 
REMARK    8  A    between atoms: C_15  and  N_16 
REMARK    9  A    between atoms: N_19  and  C_21 
REMARK   10  A    between atoms: C_21  and  C_22 
ROOT
HETATM    1  C   UNL     1     -42.203  58.010 -54.912  1.00  0.00     0.034 A 
HETATM    2  C   UNL     1     -42.266  56.678 -55.320  1.00  0.00     0.032 A 
HETATM    3  C   UNL     1     -42.402  56.342 -56.676  1.00  0.00     0.031 A 
HETATM    4  C   UNL     1     -42.450  57.310 -57.689  1.00  0.00     0.030 A 
HETATM    5  C   UNL     1     -42.373  58.645 -57.251  1.00  0.00     0.031 A 
HETATM    6  C   UNL     1     -42.258  58.994 -55.888  1.00  0.00     0.032 A 
ENDROOT
BRANCH   1   7
HETATM    7  N   UNL     1     -42.218  58.241 -53.521  1.00  0.00    -0.333 N 
HETATM    8  H   UNL     1     -41.298  58.434 -53.135  1.00  0.00     0.168 HD
BRANCH   7   9
HETATM    9  C   UNL     1     -43.077  57.831 -52.570  1.00  0.00     0.179 C 
HETATM   10  S   UNL     1     -44.709  58.147 -52.798  1.00  0.00    -0.040 SA
BRANCH   9  11
HETATM   11  N   UNL     1     -42.736  57.119 -51.468  1.00  0.00    -0.299 N 
HETATM   12  C   UNL     1     -41.473  57.044 -50.883  1.00  0.00     0.257 C 
HETATM   13  O   UNL     1     -40.686  57.976 -50.756  1.00  0.00    -0.267 OA
HETATM   14  H   UNL     1     -43.226  56.237 -51.515  1.00  0.00     0.171 HD
BRANCH  12  15
HETATM   15  C   UNL     1     -41.093  55.697 -50.341  1.00  0.00     0.035 A 
HETATM   16  C   UNL     1     -40.613  54.653 -51.144  1.00  0.00     0.053 A 
HETATM   17  C   UNL     1     -40.201  53.440 -50.578  1.00  0.00     0.069 A 
HETATM   18  C   UNL     1     -40.291  53.259 -49.199  1.00  0.00     0.037 A 
HETATM   19  C   UNL     1     -40.797  54.280 -48.392  1.00  0.00     0.004 A 
HETATM   20  C   UNL     1     -41.196  55.494 -48.958  1.00  0.00     0.017 A 
BRANCH  17  21
HETATM   21  O   UNL     1     -39.720  52.534 -51.482  1.00  0.00    -0.351 OA
BRANCH  21  22
HETATM   22  C   UNL     1     -40.600  52.109 -52.528  1.00  0.00     0.179 C 
BRANCH  22  23
HETATM   23  C   UNL     1     -39.803  52.058 -53.841  1.00  0.00     0.002 C 
HETATM   24  C   UNL     1     -40.247  53.173 -54.786  1.00  0.00     0.011 C 
HETATM   25  C   UNL     1     -39.949  50.697 -54.526  1.00  0.00     0.011 C 
ENDBRANCH  22  23
ENDBRANCH  21  22
ENDBRANCH  17  21
ENDBRANCH  12  15
ENDBRANCH   9  11
ENDBRANCH   7   9
ENDBRANCH   1   7
BRANCH   4  26
HETATM   26  N   UNL     1     -42.641  56.949 -59.024  1.00  0.00    -0.378 N 
HETATM   27  C   UNL     1     -42.905  58.003 -60.027  1.00  0.00     0.150 C 
HETATM   28  C   UNL     1     -44.425  58.207 -60.202  1.00  0.00     0.255 C 
HETATM   29  N   UNL     1     -45.104  56.882 -60.568  1.00  0.00    -0.064 N 
HETATM   30  H   UNL     1     -44.705  56.587 -61.467  1.00  0.00     0.280 HD
HETATM   31  C   UNL     1     -44.772  55.794 -59.542  1.00  0.00     0.255 C 
HETATM   32  C   UNL     1     -43.243  55.652 -59.384  1.00  0.00     0.150 C 
BRANCH  29  33
HETATM   33  C   UNL     1     -46.590  57.028 -60.775  1.00  0.00     0.273 C 
BRANCH  33  34
HETATM   34  C   UNL     1     -47.166  58.196 -60.021  1.00  0.00    -0.033 A 
HETATM   35  C   UNL     1     -47.138  58.220 -58.617  1.00  0.00     0.009 A 
HETATM   36  C   UNL     1     -47.702  59.287 -57.917  1.00  0.00     0.001 A 
HETATM   37  C   UNL     1     -48.301  60.338 -58.609  1.00  0.00     0.000 A 
HETATM   38  C   UNL     1     -48.334  60.326 -60.001  1.00  0.00     0.001 A 
HETATM   39  C   UNL     1     -47.767  59.263 -60.706  1.00  0.00     0.009 A 
ENDBRANCH  33  34
ENDBRANCH  29  33
ENDBRANCH   4  26
TORSDOF 10
ENDMDL
MODEL 10
REMARK VINA RESULT:      -7.6      5.824     10.921
REMARK  10 active torsions:
REMARK  status: ('A' for Active; 'I' for Inactive)
REMARK    1  A    between atoms: C_2  and  C_3 
REMARK    2  A    between atoms: C_3  and  O_4 
REMARK    3  A    between atoms: O_4  and  C_5 
REMARK    4  A    between atoms: C_7  and  C_8 
REMARK       I    between atoms: C_8  and  N_9 
REMARK    5  A    between atoms: N_9  and  C_10 
REMARK    6  A    between atoms: C_10  and  N_11 
REMARK    7  A    between atoms: N_11  and  C_12 
REMARK    8  A    between atoms: C_15  and  N_16 
REMARK    9  A    between atoms: N_19  and  C_21 
REMARK   10  A    between atoms: C_21  and  C_22 
ROOT
HETATM    1  C   UNL     1     -45.678  60.846 -51.174  1.00  0.00     0.034 A 
HETATM    2  C   UNL     1     -46.058  60.511 -52.473  1.00  0.00     0.032 A 
HETATM    3  C   UNL     1     -45.316  59.590 -53.229  1.00  0.00     0.031 A 
HETATM    4  C   UNL     1     -44.183  58.939 -52.720  1.00  0.00     0.030 A 
HETATM    5  C   UNL     1     -43.829  59.287 -51.403  1.00  0.00     0.031 A 
HETATM    6  C   UNL     1     -44.557  60.227 -50.643  1.00  0.00     0.032 A 
ENDROOT
BRANCH   1   7
HETATM    7  N   UNL     1     -46.403  61.888 -50.559  1.00  0.00    -0.333 N 
HETATM    8  H   UNL     1     -47.071  61.560 -49.868  1.00  0.00     0.168 HD
BRANCH   7   9
HETATM    9  C   UNL     1     -46.706  63.125 -50.994  1.00  0.00     0.179 C 
HETATM   10  S   UNL     1     -45.531  64.314 -50.863  1.00  0.00    -0.040 SA
BRANCH   9  11
HETATM   11  N   UNL     1     -47.870  63.473 -51.596  1.00  0.00    -0.299 N 
HETATM   12  C   UNL     1     -49.075  63.780 -50.966  1.00  0.00     0.257 C 
HETATM   13  O   UNL     1     -49.197  64.428 -49.932  1.00  0.00    -0.267 OA
HETATM   14  H   UNL     1     -47.967  62.898 -52.422  1.00  0.00     0.171 HD
BRANCH  12  15
HETATM   15  C   UNL     1     -50.310  63.290 -51.663  1.00  0.00     0.035 A 
HETATM   16  C   UNL     1     -50.301  62.765 -52.963  1.00  0.00     0.053 A 
HETATM   17  C   UNL     1     -51.469  62.251 -53.540  1.00  0.00     0.069 A 
HETATM   18  C   UNL     1     -52.663  62.282 -52.821  1.00  0.00     0.037 A 
HETATM   19  C   UNL     1     -52.690  62.830 -51.537  1.00  0.00     0.004 A 
HETATM   20  C   UNL     1     -51.521  63.331 -50.959  1.00  0.00     0.017 A 
BRANCH  17  21
HETATM   21  O   UNL     1     -51.296  61.739 -54.796  1.00  0.00    -0.351 OA
BRANCH  21  22
HETATM   22  C   UNL     1     -52.416  61.773 -55.687  1.00  0.00     0.179 C 
BRANCH  22  23
HETATM   23  C   UNL     1     -52.185  60.736 -56.797  1.00  0.00     0.002 C 
HETATM   24  C   UNL     1     -52.989  59.466 -56.526  1.00  0.00     0.011 C 
HETATM   25  C   UNL     1     -50.699  60.400 -56.943  1.00  0.00     0.011 C 
ENDBRANCH  22  23
ENDBRANCH  21  22
ENDBRANCH  17  21
ENDBRANCH  12  15
ENDBRANCH   9  11
ENDBRANCH   7   9
ENDBRANCH   1   7
BRANCH   4  26
HETATM   26  N   UNL     1     -43.433  58.070 -53.514  1.00  0.00    -0.378 N 
HETATM   27  C   UNL     1     -43.929  56.696 -53.749  1.00  0.00     0.150 C 
HETATM   28  C   UNL     1     -43.342  55.728 -52.699  1.00  0.00     0.255 C 
HETATM   29  N   UNL     1     -41.811  55.795 -52.708  1.00  0.00    -0.064 N 
HETATM   30  H   UNL     1     -41.509  55.492 -53.641  1.00  0.00     0.280 HD
HETATM   31  C   UNL     1     -41.324  57.234 -52.515  1.00  0.00     0.255 C 
HETATM   32  C   UNL     1     -41.963  58.164 -53.568  1.00  0.00     0.150 C 
BRANCH  29  33
HETATM   33  C   UNL     1     -41.182  54.850 -51.716  1.00  0.00     0.273 C 
BRANCH  33  34
HETATM   34  C   UNL     1     -40.607  53.623 -52.371  1.00  0.00    -0.033 A 
HETATM   35  C   UNL     1     -40.729  53.434 -53.757  1.00  0.00     0.009 A 
HETATM   36  C   UNL     1     -40.226  52.280 -54.360  1.00  0.00     0.001 A 
HETATM   37  C   UNL     1     -39.599  51.305 -53.587  1.00  0.00     0.000 A 
HETATM   38  C   UNL     1     -39.471  51.482 -52.212  1.00  0.00     0.001 A 
HETATM   39  C   UNL     1     -39.969  52.635 -51.604  1.00  0.00     0.009 A 
ENDBRANCH  33  34
ENDBRANCH  29  33
ENDBRANCH   4  26
TORSDOF 10
ENDMDL
