MODEL 1
REMARK VINA RESULT:      -7.6      0.000      0.000
REMARK  5 active torsions:
REMARK  status: ('A' for Active; 'I' for Inactive)
REMARK    1  A    between atoms: C_5  and  C_6 
REMARK    2  A    between atoms: C_9  and  O_10 
REMARK    3  A    between atoms: O_10  and  C_11 
REMARK    4  A    between atoms: C_11  and  C_12 
REMARK       I    between atoms: C_12  and  N_13 
REMARK    5  A    between atoms: N_13  and  C_14 
ROOT
HETATM    1  C   UNL     1     -41.349  55.390 -49.116  1.00  0.00     0.278 C 
ENDROOT
BRANCH   1   2
HETATM    2  O   UNL     1     -41.352  56.606 -49.858  1.00  0.00    -0.342 OA
BRANCH   2   3
HETATM    3  C   UNL     1     -41.729  56.517 -51.170  1.00  0.00     0.069 A 
HETATM    4  C   UNL     1     -40.803  57.001 -52.094  1.00  0.00     0.038 A 
HETATM    5  C   UNL     1     -41.065  56.925 -53.464  1.00  0.00     0.018 A 
HETATM    6  C   UNL     1     -42.250  56.340 -53.931  1.00  0.00     0.015 A 
HETATM    7  C   UNL     1     -43.164  55.837 -52.993  1.00  0.00     0.018 A 
HETATM    8  C   UNL     1     -42.907  55.922 -51.619  1.00  0.00     0.038 A 
BRANCH   6   9
HETATM    9  C   UNL     1     -42.514  56.249 -55.361  1.00  0.00     0.198 A 
HETATM   10  N   UNL     1     -42.799  55.058 -55.994  1.00  0.00    -0.136 NA
HETATM   11  N   UNL     1     -42.996  55.339 -57.274  1.00  0.00     0.024 NA
HETATM   12  N   UNL     1     -42.822  56.664 -57.359  1.00  0.00    -0.196 N 
HETATM   13  C   UNL     1     -42.984  57.378 -58.596  1.00  0.00     0.200 C 
HETATM   14  N   UNL     1     -42.520  57.294 -56.210  1.00  0.00    -0.137 NA
ENDBRANCH   6   9
ENDBRANCH   2   3
ENDBRANCH   1   2
BRANCH   1  15
HETATM   15  C   UNL     1     -40.407  54.308 -49.659  1.00  0.00     0.246 C 
HETATM   16  N   UNL     1     -41.074  53.268 -50.276  1.00  0.00    -0.324 N 
HETATM   17  H   UNL     1     -42.086  53.336 -50.272  1.00  0.00     0.169 HD
HETATM   18  O   UNL     1     -39.192  54.411 -49.507  1.00  0.00    -0.271 OA
BRANCH  16  19
HETATM   19  C   UNL     1     -40.532  52.117 -50.880  1.00  0.00     0.047 A 
HETATM   20  C   UNL     1     -40.289  52.143 -52.279  1.00  0.00     0.019 A 
HETATM   21  C   UNL     1     -39.746  51.013 -52.896  1.00  0.00     0.044 A 
HETATM   22  C   UNL     1     -40.489  53.111 -53.313  1.00  0.00     0.033 A 
HETATM   23  N   UNL     1     -39.621  51.295 -54.239  1.00  0.00    -0.365 N 
HETATM   24  C   UNL     1     -39.423  49.848 -52.194  1.00  0.00     0.030 A 
HETATM   25  H   UNL     1     -39.254  50.650 -54.926  1.00  0.00     0.165 HD
HETATM   26  C   UNL     1     -40.071  52.559 -54.502  1.00  0.00     0.089 A 
HETATM   27  C   UNL     1     -39.666  49.838 -50.821  1.00  0.00     0.005 A 
HETATM   28  C   UNL     1     -40.213  50.948 -50.175  1.00  0.00     0.030 A 
ENDBRANCH  16  19
ENDBRANCH   1  15
TORSDOF 5
ENDMDL
MODEL 2
REMARK VINA RESULT:      -7.5      4.007      5.472
REMARK  5 active torsions:
REMARK  status: ('A' for Active; 'I' for Inactive)
REMARK    1  A    between atoms: C_5  and  C_6 
REMARK    2  A    between atoms: C_9  and  O_10 
REMARK    3  A    between atoms: O_10  and  C_11 
REMARK    4  A    between atoms: C_11  and  C_12 
REMARK       I    between atoms: C_12  and  N_13 
REMARK    5  A    between atoms: N_13  and  C_14 
ROOT
HETATM    1  C   UNL     1     -42.417  56.070 -55.529  1.00  0.00     0.278 C 
ENDROOT
BRANCH   1   2
HETATM    2  O   UNL     1     -43.722  55.907 -54.980  1.00  0.00    -0.342 OA
BRANCH   2   3
HETATM    3  C   UNL     1     -44.093  56.808 -54.020  1.00  0.00     0.069 A 
HETATM    4  C   UNL     1     -43.907  56.389 -52.702  1.00  0.00     0.038 A 
HETATM    5  C   UNL     1     -44.214  57.241 -51.639  1.00  0.00     0.018 A 
HETATM    6  C   UNL     1     -44.691  58.537 -51.880  1.00  0.00     0.015 A 
HETATM    7  C   UNL     1     -44.854  58.955 -53.209  1.00  0.00     0.018 A 
HETATM    8  C   UNL     1     -44.555  58.097 -54.276  1.00  0.00     0.038 A 
BRANCH   6   9
HETATM    9  C   UNL     1     -44.997  59.429 -50.770  1.00  0.00     0.198 A 
HETATM   10  N   UNL     1     -45.993  59.167 -49.853  1.00  0.00    -0.136 NA
HETATM   11  N   UNL     1     -45.989  60.166 -48.983  1.00  0.00     0.024 NA
HETATM   12  N   UNL     1     -45.010  60.977 -49.404  1.00  0.00    -0.196 N 
HETATM   13  C   UNL     1     -44.658  62.180 -48.700  1.00  0.00     0.200 C 
HETATM   14  N   UNL     1     -44.352  60.582 -50.509  1.00  0.00    -0.137 NA
ENDBRANCH   6   9
ENDBRANCH   2   3
ENDBRANCH   1   2
BRANCH   1  15
HETATM   15  C   UNL     1     -41.309  55.308 -54.791  1.00  0.00     0.246 C 
HETATM   16  N   UNL     1     -41.697  54.048 -54.382  1.00  0.00    -0.324 N 
HETATM   17  H   UNL     1     -42.657  53.796 -54.594  1.00  0.00     0.169 HD
HETATM   18  O   UNL     1     -40.215  55.835 -54.602  1.00  0.00    -0.271 OA
BRANCH  16  19
HETATM   19  C   UNL     1     -40.943  53.084 -53.685  1.00  0.00     0.047 A 
HETATM   20  C   UNL     1     -40.841  53.202 -52.273  1.00  0.00     0.019 A 
HETATM   21  C   UNL     1     -40.103  52.252 -51.563  1.00  0.00     0.044 A 
HETATM   22  C   UNL     1     -41.335  54.134 -51.309  1.00  0.00     0.033 A 
HETATM   23  N   UNL     1     -40.157  52.599 -50.231  1.00  0.00    -0.365 N 
HETATM   24  C   UNL     1     -39.456  51.178 -52.181  1.00  0.00     0.030 A 
HETATM   25  H   UNL     1     -39.706  52.083 -49.487  1.00  0.00     0.165 HD
HETATM   26  C   UNL     1     -40.896  53.738 -50.067  1.00  0.00     0.089 A 
HETATM   27  C   UNL     1     -39.565  51.075 -53.567  1.00  0.00     0.005 A 
HETATM   28  C   UNL     1     -40.290  52.010 -54.307  1.00  0.00     0.030 A 
ENDBRANCH  16  19
ENDBRANCH   1  15
TORSDOF 5
ENDMDL
MODEL 3
REMARK VINA RESULT:      -7.2      3.448      5.383
REMARK  5 active torsions:
REMARK  status: ('A' for Active; 'I' for Inactive)
REMARK    1  A    between atoms: C_5  and  C_6 
REMARK    2  A    between atoms: C_9  and  O_10 
REMARK    3  A    between atoms: O_10  and  C_11 
REMARK    4  A    between atoms: C_11  and  C_12 
REMARK       I    between atoms: C_12  and  N_13 
REMARK    5  A    between atoms: N_13  and  C_14 
ROOT
HETATM    1  C   UNL     1     -42.625  56.778 -54.940  1.00  0.00     0.278 C 
ENDROOT
BRANCH   1   2
HETATM    2  O   UNL     1     -42.183  56.952 -56.284  1.00  0.00    -0.342 OA
BRANCH   2   3
HETATM    3  C   UNL     1     -43.145  56.877 -57.253  1.00  0.00     0.069 A 
HETATM    4  C   UNL     1     -44.156  57.835 -57.169  1.00  0.00     0.038 A 
HETATM    5  C   UNL     1     -45.170  57.879 -58.129  1.00  0.00     0.018 A 
HETATM    6  C   UNL     1     -45.175  56.978 -59.202  1.00  0.00     0.015 A 
HETATM    7  C   UNL     1     -44.142  56.032 -59.288  1.00  0.00     0.018 A 
HETATM    8  C   UNL     1     -43.130  55.982 -58.321  1.00  0.00     0.038 A 
BRANCH   6   9
HETATM    9  C   UNL     1     -46.226  57.035 -60.209  1.00  0.00     0.198 A 
HETATM   10  N   UNL     1     -46.631  55.932 -60.931  1.00  0.00    -0.136 NA
HETATM   11  N   UNL     1     -47.602  56.335 -61.738  1.00  0.00     0.024 NA
HETATM   12  N   UNL     1     -47.738  57.641 -61.476  1.00  0.00    -0.196 N 
HETATM   13  C   UNL     1     -48.728  58.452 -62.132  1.00  0.00     0.200 C 
HETATM   14  N   UNL     1     -46.916  58.143 -60.538  1.00  0.00    -0.137 NA
ENDBRANCH   6   9
ENDBRANCH   2   3
ENDBRANCH   1   2
BRANCH   1  15
HETATM   15  C   UNL     1     -42.463  55.357 -54.388  1.00  0.00     0.246 C 
HETATM   16  N   UNL     1     -41.162  55.056 -54.037  1.00  0.00    -0.324 N 
HETATM   17  H   UNL     1     -40.483  55.790 -54.209  1.00  0.00     0.169 HD
HETATM   18  O   UNL     1     -43.434  54.608 -54.311  1.00  0.00    -0.271 OA
BRANCH  16  19
HETATM   19  C   UNL     1     -40.655  53.856 -53.503  1.00  0.00     0.047 A 
HETATM   20  C   UNL     1     -40.641  53.700 -52.092  1.00  0.00     0.019 A 
HETATM   21  C   UNL     1     -40.147  52.514 -51.543  1.00  0.00     0.044 A 
HETATM   22  C   UNL     1     -41.024  54.527 -50.990  1.00  0.00     0.033 A 
HETATM   23  N   UNL     1     -40.236  52.624 -50.173  1.00  0.00    -0.365 N 
HETATM   24  C   UNL     1     -39.666  51.460 -52.325  1.00  0.00     0.030 A 
HETATM   25  H   UNL     1     -39.947  51.907 -49.522  1.00  0.00     0.165 HD
HETATM   26  C   UNL     1     -40.761  53.839 -49.828  1.00  0.00     0.089 A 
HETATM   27  C   UNL     1     -39.686  51.627 -53.710  1.00  0.00     0.005 A 
HETATM   28  C   UNL     1     -40.168  52.802 -54.289  1.00  0.00     0.030 A 
ENDBRANCH  16  19
ENDBRANCH   1  15
TORSDOF 5
ENDMDL
MODEL 4
REMARK VINA RESULT:      -7.1      4.304      6.371
REMARK  5 active torsions:
REMARK  status: ('A' for Active; 'I' for Inactive)
REMARK    1  A    between atoms: C_5  and  C_6 
REMARK    2  A    between atoms: C_9  and  O_10 
REMARK    3  A    between atoms: O_10  and  C_11 
REMARK    4  A    between atoms: C_11  and  C_12 
REMARK       I    between atoms: C_12  and  N_13 
REMARK    5  A    between atoms: N_13  and  C_14 
ROOT
HETATM    1  C   UNL     1     -43.166  54.971 -56.791  1.00  0.00     0.278 C 
ENDROOT
BRANCH   1   2
HETATM    2  O   UNL     1     -42.993  55.957 -57.806  1.00  0.00    -0.342 OA
BRANCH   2   3
HETATM    3  C   UNL     1     -44.050  56.149 -58.651  1.00  0.00     0.069 A 
HETATM    4  C   UNL     1     -44.761  57.334 -58.461  1.00  0.00     0.038 A 
HETATM    5  C   UNL     1     -45.837  57.655 -59.292  1.00  0.00     0.018 A 
HETATM    6  C   UNL     1     -46.204  56.804 -60.343  1.00  0.00     0.015 A 
HETATM    7  C   UNL     1     -45.468  55.625 -60.539  1.00  0.00     0.018 A 
HETATM    8  C   UNL     1     -44.395  55.299 -59.700  1.00  0.00     0.038 A 
BRANCH   6   9
HETATM    9  C   UNL     1     -47.317  57.148 -61.217  1.00  0.00     0.198 A 
HETATM   10  N   UNL     1     -47.869  56.255 -62.112  1.00  0.00    -0.136 NA
HETATM   11  N   UNL     1     -48.858  56.887 -62.727  1.00  0.00     0.024 NA
HETATM   12  N   UNL     1     -48.861  58.114 -62.189  1.00  0.00    -0.196 N 
HETATM   13  C   UNL     1     -49.822  59.113 -62.570  1.00  0.00     0.200 C 
HETATM   14  N   UNL     1     -47.931  58.346 -61.245  1.00  0.00    -0.137 NA
ENDBRANCH   6   9
ENDBRANCH   2   3
ENDBRANCH   1   2
BRANCH   1  15
HETATM   15  C   UNL     1     -42.230  55.119 -55.585  1.00  0.00     0.246 C 
HETATM   16  N   UNL     1     -42.367  54.098 -54.665  1.00  0.00    -0.324 N 
HETATM   17  H   UNL     1     -43.074  53.404 -54.885  1.00  0.00     0.169 HD
HETATM   18  O   UNL     1     -41.473  56.083 -55.502  1.00  0.00    -0.271 OA
BRANCH  16  19
HETATM   19  C   UNL     1     -41.676  53.915 -53.452  1.00  0.00     0.047 A 
HETATM   20  C   UNL     1     -40.761  52.833 -53.355  1.00  0.00     0.019 A 
HETATM   21  C   UNL     1     -40.061  52.639 -52.161  1.00  0.00     0.044 A 
HETATM   22  C   UNL     1     -40.347  51.790 -54.241  1.00  0.00     0.033 A 
HETATM   23  N   UNL     1     -39.259  51.532 -52.328  1.00  0.00    -0.365 N 
HETATM   24  C   UNL     1     -40.216  53.470 -51.048  1.00  0.00     0.030 A 
HETATM   25  H   UNL     1     -38.642  51.161 -51.619  1.00  0.00     0.165 HD
HETATM   26  C   UNL     1     -39.427  51.009 -53.581  1.00  0.00     0.089 A 
HETATM   27  C   UNL     1     -41.118  54.529 -51.158  1.00  0.00     0.005 A 
HETATM   28  C   UNL     1     -41.837  54.747 -52.335  1.00  0.00     0.030 A 
ENDBRANCH  16  19
ENDBRANCH   1  15
TORSDOF 5
ENDMDL
MODEL 5
REMARK VINA RESULT:      -7.0      3.160      8.164
REMARK  5 active torsions:
REMARK  status: ('A' for Active; 'I' for Inactive)
REMARK    1  A    between atoms: C_5  and  C_6 
REMARK    2  A    between atoms: C_9  and  O_10 
REMARK    3  A    between atoms: O_10  and  C_11 
REMARK    4  A    between atoms: C_11  and  C_12 
REMARK       I    between atoms: C_12  and  N_13 
REMARK    5  A    between atoms: N_13  and  C_14 
ROOT
HETATM    1  C   UNL     1     -42.678  58.406 -55.892  1.00  0.00     0.278 C 
ENDROOT
BRANCH   1   2
HETATM    2  O   UNL     1     -43.303  57.625 -54.877  1.00  0.00    -0.342 OA
BRANCH   2   3
HETATM    3  C   UNL     1     -42.725  56.417 -54.599  1.00  0.00     0.069 A 
HETATM    4  C   UNL     1     -41.372  56.465 -54.261  1.00  0.00     0.038 A 
HETATM    5  C   UNL     1     -40.687  55.297 -53.919  1.00  0.00     0.018 A 
HETATM    6  C   UNL     1     -41.352  54.064 -53.886  1.00  0.00     0.015 A 
HETATM    7  C   UNL     1     -42.718  54.031 -54.207  1.00  0.00     0.018 A 
HETATM    8  C   UNL     1     -43.403  55.201 -54.560  1.00  0.00     0.038 A 
BRANCH   6   9
HETATM    9  C   UNL     1     -40.639  52.849 -53.515  1.00  0.00     0.198 A 
HETATM   10  N   UNL     1     -40.080  52.662 -52.269  1.00  0.00    -0.136 NA
HETATM   11  N   UNL     1     -39.528  51.457 -52.271  1.00  0.00     0.024 NA
HETATM   12  N   UNL     1     -39.771  50.977 -53.497  1.00  0.00    -0.196 N 
HETATM   13  C   UNL     1     -39.356  49.660 -53.897  1.00  0.00     0.200 C 
HETATM   14  N   UNL     1     -40.456  51.788 -54.323  1.00  0.00    -0.137 NA
ENDBRANCH   6   9
ENDBRANCH   2   3
ENDBRANCH   1   2
BRANCH   1  15
HETATM   15  C   UNL     1     -42.821  57.849 -57.313  1.00  0.00     0.246 C 
HETATM   16  N   UNL     1     -43.993  57.146 -57.505  1.00  0.00    -0.324 N 
HETATM   17  H   UNL     1     -44.591  57.064 -56.689  1.00  0.00     0.169 HD
HETATM   18  O   UNL     1     -41.934  58.034 -58.143  1.00  0.00    -0.271 OA
BRANCH  16  19
HETATM   19  C   UNL     1     -44.447  56.504 -58.673  1.00  0.00     0.047 A 
HETATM   20  C   UNL     1     -45.482  57.123 -59.422  1.00  0.00     0.019 A 
HETATM   21  C   UNL     1     -45.942  56.505 -60.588  1.00  0.00     0.044 A 
HETATM   22  C   UNL     1     -46.252  58.319 -59.268  1.00  0.00     0.033 A 
HETATM   23  N   UNL     1     -46.940  57.298 -61.111  1.00  0.00    -0.365 N 
HETATM   24  C   UNL     1     -45.424  55.295 -61.058  1.00  0.00     0.030 A 
HETATM   25  H   UNL     1     -47.452  57.089 -61.957  1.00  0.00     0.165 HD
HETATM   26  C   UNL     1     -47.137  58.395 -60.318  1.00  0.00     0.089 A 
HETATM   27  C   UNL     1     -44.408  54.698 -60.312  1.00  0.00     0.005 A 
HETATM   28  C   UNL     1     -43.930  55.287 -59.140  1.00  0.00     0.030 A 
ENDBRANCH  16  19
ENDBRANCH   1  15
TORSDOF 5
ENDMDL
MODEL 6
REMARK VINA RESULT:      -6.9     14.270     15.891
REMARK  5 active torsions:
REMARK  status: ('A' for Active; 'I' for Inactive)
REMARK    1  A    between atoms: C_5  and  C_6 
REMARK    2  A    between atoms: C_9  and  O_10 
REMARK    3  A    between atoms: O_10  and  C_11 
REMARK    4  A    between atoms: C_11  and  C_12 
REMARK       I    between atoms: C_12  and  N_13 
REMARK    5  A    between atoms: N_13  and  C_14 
ROOT
HETATM    1  C   UNL     1     -35.589  42.312 -55.281  1.00  0.00     0.278 C 
ENDROOT
BRANCH   1   2
HETATM    2  O   UNL     1     -36.964  42.223 -55.642  1.00  0.00    -0.342 OA
BRANCH   2   3
HETATM    3  C   UNL     1     -37.253  41.478 -56.752  1.00  0.00     0.069 A 
HETATM    4  C   UNL     1     -36.881  42.049 -57.969  1.00  0.00     0.038 A 
HETATM    5  C   UNL     1     -37.092  41.361 -59.167  1.00  0.00     0.018 A 
HETATM    6  C   UNL     1     -37.658  40.078 -59.161  1.00  0.00     0.015 A 
HETATM    7  C   UNL     1     -38.009  39.506 -57.929  1.00  0.00     0.018 A 
HETATM    8  C   UNL     1     -37.806  40.199 -56.729  1.00  0.00     0.038 A 
BRANCH   6   9
HETATM    9  C   UNL     1     -37.863  39.357 -60.410  1.00  0.00     0.198 A 
HETATM   10  N   UNL     1     -39.002  38.624 -60.671  1.00  0.00    -0.136 NA
HETATM   11  N   UNL     1     -38.863  38.118 -61.889  1.00  0.00     0.024 NA
HETATM   12  N   UNL     1     -37.668  38.557 -62.303  1.00  0.00    -0.196 N 
HETATM   13  C   UNL     1     -37.152  38.250 -63.609  1.00  0.00     0.200 C 
HETATM   14  N   UNL     1     -36.991  39.331 -61.435  1.00  0.00    -0.137 NA
ENDBRANCH   6   9
ENDBRANCH   2   3
ENDBRANCH   1   2
BRANCH   1  15
HETATM   15  C   UNL     1     -35.302  42.125 -53.786  1.00  0.00     0.246 C 
HETATM   16  N   UNL     1     -34.460  41.062 -53.524  1.00  0.00    -0.324 N 
HETATM   17  H   UNL     1     -34.162  40.531 -54.335  1.00  0.00     0.169 HD
HETATM   18  O   UNL     1     -35.819  42.871 -52.958  1.00  0.00    -0.271 OA
BRANCH  16  19
HETATM   19  C   UNL     1     -33.991  40.605 -52.277  1.00  0.00     0.047 A 
HETATM   20  C   UNL     1     -34.919  40.000 -51.389  1.00  0.00     0.019 A 
HETATM   21  C   UNL     1     -34.472  39.535 -50.150  1.00  0.00     0.044 A 
HETATM   22  C   UNL     1     -36.323  39.734 -51.438  1.00  0.00     0.033 A 
HETATM   23  N   UNL     1     -35.560  39.008 -49.489  1.00  0.00    -0.365 N 
HETATM   24  C   UNL     1     -33.139  39.633 -49.740  1.00  0.00     0.030 A 
HETATM   25  H   UNL     1     -35.524  38.600 -48.565  1.00  0.00     0.165 HD
HETATM   26  C   UNL     1     -36.685  39.127 -50.258  1.00  0.00     0.089 A 
HETATM   27  C   UNL     1     -32.239  40.230 -50.623  1.00  0.00     0.005 A 
HETATM   28  C   UNL     1     -32.655  40.710 -51.866  1.00  0.00     0.030 A 
ENDBRANCH  16  19
ENDBRANCH   1  15
TORSDOF 5
ENDMDL
MODEL 7
REMARK VINA RESULT:      -6.9     13.664     17.141
REMARK  5 active torsions:
REMARK  status: ('A' for Active; 'I' for Inactive)
REMARK    1  A    between atoms: C_5  and  C_6 
REMARK    2  A    between atoms: C_9  and  O_10 
REMARK    3  A    between atoms: O_10  and  C_11 
REMARK    4  A    between atoms: C_11  and  C_12 
REMARK       I    between atoms: C_12  and  N_13 
REMARK    5  A    between atoms: N_13  and  C_14 
ROOT
HETATM    1  C   UNL     1     -36.225  42.277 -53.778  1.00  0.00     0.278 C 
ENDROOT
BRANCH   1   2
HETATM    2  O   UNL     1     -36.662  41.237 -52.907  1.00  0.00    -0.342 OA
BRANCH   2   3
HETATM    3  C   UNL     1     -35.726  40.732 -52.048  1.00  0.00     0.069 A 
HETATM    4  C   UNL     1     -34.605  41.537 -51.842  1.00  0.00     0.038 A 
HETATM    5  C   UNL     1     -33.602  41.140 -50.954  1.00  0.00     0.018 A 
HETATM    6  C   UNL     1     -33.718  39.939 -50.240  1.00  0.00     0.015 A 
HETATM    7  C   UNL     1     -34.859  39.148 -50.439  1.00  0.00     0.018 A 
HETATM    8  C   UNL     1     -35.861  39.541 -51.336  1.00  0.00     0.038 A 
BRANCH   6   9
HETATM    9  C   UNL     1     -32.677  39.534 -49.304  1.00  0.00     0.198 A 
HETATM   10  N   UNL     1     -31.363  39.933 -49.429  1.00  0.00    -0.136 NA
HETATM   11  N   UNL     1     -30.700  39.400 -48.413  1.00  0.00     0.024 NA
HETATM   12  N   UNL     1     -31.625  38.712 -47.731  1.00  0.00    -0.196 N 
HETATM   13  C   UNL     1     -31.310  38.003 -46.520  1.00  0.00     0.200 C 
HETATM   14  N   UNL     1     -32.874  38.751 -48.227  1.00  0.00    -0.137 NA
ENDBRANCH   6   9
ENDBRANCH   2   3
ENDBRANCH   1   2
BRANCH   1  15
HETATM   15  C   UNL     1     -35.926  41.831 -55.214  1.00  0.00     0.246 C 
HETATM   16  N   UNL     1     -37.056  41.754 -56.004  1.00  0.00    -0.324 N 
HETATM   17  H   UNL     1     -37.930  41.972 -55.537  1.00  0.00     0.169 HD
HETATM   18  O   UNL     1     -34.775  41.569 -55.555  1.00  0.00    -0.271 OA
BRANCH  16  19
HETATM   19  C   UNL     1     -37.152  41.381 -57.359  1.00  0.00     0.047 A 
HETATM   20  C   UNL     1     -37.297  40.003 -57.669  1.00  0.00     0.019 A 
HETATM   21  C   UNL     1     -37.400  39.614 -59.007  1.00  0.00     0.044 A 
HETATM   22  C   UNL     1     -37.357  38.804 -56.893  1.00  0.00     0.033 A 
HETATM   23  N   UNL     1     -37.522  38.242 -59.030  1.00  0.00    -0.365 N 
HETATM   24  C   UNL     1     -37.372  40.527 -60.066  1.00  0.00     0.030 A 
HETATM   25  H   UNL     1     -37.612  37.691 -59.873  1.00  0.00     0.165 HD
HETATM   26  C   UNL     1     -37.493  37.742 -57.758  1.00  0.00     0.089 A 
HETATM   27  C   UNL     1     -37.229  41.877 -59.746  1.00  0.00     0.005 A 
HETATM   28  C   UNL     1     -37.118  42.298 -58.419  1.00  0.00     0.030 A 
ENDBRANCH  16  19
ENDBRANCH   1  15
TORSDOF 5
ENDMDL
MODEL 8
REMARK VINA RESULT:      -6.9      5.235      6.596
REMARK  5 active torsions:
REMARK  status: ('A' for Active; 'I' for Inactive)
REMARK    1  A    between atoms: C_5  and  C_6 
REMARK    2  A    between atoms: C_9  and  O_10 
REMARK    3  A    between atoms: O_10  and  C_11 
REMARK    4  A    between atoms: C_11  and  C_12 
REMARK       I    between atoms: C_12  and  N_13 
REMARK    5  A    between atoms: N_13  and  C_14 
ROOT
HETATM    1  C   UNL     1     -43.190  57.422 -53.419  1.00  0.00     0.278 C 
ENDROOT
BRANCH   1   2
HETATM    2  O   UNL     1     -42.893  58.736 -52.955  1.00  0.00    -0.342 OA
BRANCH   2   3
HETATM    3  C   UNL     1     -43.641  59.193 -51.905  1.00  0.00     0.069 A 
HETATM    4  C   UNL     1     -43.170  60.357 -51.296  1.00  0.00     0.038 A 
HETATM    5  C   UNL     1     -43.875  60.936 -50.239  1.00  0.00     0.018 A 
HETATM    6  C   UNL     1     -45.077  60.372 -49.790  1.00  0.00     0.015 A 
HETATM    7  C   UNL     1     -45.552  59.214 -50.424  1.00  0.00     0.018 A 
HETATM    8  C   UNL     1     -44.840  58.627 -51.478  1.00  0.00     0.038 A 
BRANCH   6   9
HETATM    9  C   UNL     1     -45.817  60.987 -48.696  1.00  0.00     0.198 A 
HETATM   10  N   UNL     1     -46.234  60.282 -47.587  1.00  0.00    -0.136 NA
HETATM   11  N   UNL     1     -46.859  61.143 -46.796  1.00  0.00     0.024 NA
HETATM   12  N   UNL     1     -46.796  62.310 -47.450  1.00  0.00    -0.196 N 
HETATM   13  C   UNL     1     -47.340  63.523 -46.903  1.00  0.00     0.200 C 
HETATM   14  N   UNL     1     -46.164  62.287 -48.638  1.00  0.00    -0.137 NA
ENDBRANCH   6   9
ENDBRANCH   2   3
ENDBRANCH   1   2
BRANCH   1  15
HETATM   15  C   UNL     1     -41.994  56.463 -53.447  1.00  0.00     0.246 C 
HETATM   16  N   UNL     1     -42.356  55.140 -53.293  1.00  0.00    -0.324 N 
HETATM   17  H   UNL     1     -43.348  54.972 -53.156  1.00  0.00     0.169 HD
HETATM   18  O   UNL     1     -40.853  56.899 -53.579  1.00  0.00    -0.271 OA
BRANCH  16  19
HETATM   19  C   UNL     1     -41.526  54.003 -53.269  1.00  0.00     0.047 A 
HETATM   20  C   UNL     1     -41.053  53.541 -52.011  1.00  0.00     0.019 A 
HETATM   21  C   UNL     1     -40.233  52.411 -51.966  1.00  0.00     0.044 A 
HETATM   22  C   UNL     1     -41.205  53.985 -50.661  1.00  0.00     0.033 A 
HETATM   23  N   UNL     1     -39.912  52.185 -50.646  1.00  0.00    -0.365 N 
HETATM   24  C   UNL     1     -39.855  51.703 -53.111  1.00  0.00     0.030 A 
HETATM   25  H   UNL     1     -39.326  51.428 -50.321  1.00  0.00     0.165 HD
HETATM   26  C   UNL     1     -40.492  53.134 -49.849  1.00  0.00     0.089 A 
HETATM   27  C   UNL     1     -40.327  52.168 -54.338  1.00  0.00     0.005 A 
HETATM   28  C   UNL     1     -41.143  53.297 -54.418  1.00  0.00     0.030 A 
ENDBRANCH  16  19
ENDBRANCH   1  15
TORSDOF 5
ENDMDL
MODEL 9
REMARK VINA RESULT:      -6.9      3.384      7.475
REMARK  5 active torsions:
REMARK  status: ('A' for Active; 'I' for Inactive)
REMARK    1  A    between atoms: C_5  and  C_6 
REMARK    2  A    between atoms: C_9  and  O_10 
REMARK    3  A    between atoms: O_10  and  C_11 
REMARK    4  A    between atoms: C_11  and  C_12 
REMARK       I    between atoms: C_12  and  N_13 
REMARK    5  A    between atoms: N_13  and  C_14 
ROOT
HETATM    1  C   UNL     1     -43.154  58.272 -56.101  1.00  0.00     0.278 C 
ENDROOT
BRANCH   1   2
HETATM    2  O   UNL     1     -43.959  57.192 -55.636  1.00  0.00    -0.342 OA
BRANCH   2   3
HETATM    3  C   UNL     1     -43.293  56.130 -55.090  1.00  0.00     0.069 A 
HETATM    4  C   UNL     1     -42.359  55.515 -55.925  1.00  0.00     0.038 A 
HETATM    5  C   UNL     1     -41.591  54.444 -55.460  1.00  0.00     0.018 A 
HETATM    6  C   UNL     1     -41.731  53.987 -54.143  1.00  0.00     0.015 A 
HETATM    7  C   UNL     1     -42.658  54.626 -53.306  1.00  0.00     0.018 A 
HETATM    8  C   UNL     1     -43.434  55.694 -53.774  1.00  0.00     0.038 A 
BRANCH   6   9
HETATM    9  C   UNL     1     -40.919  52.879 -53.656  1.00  0.00     0.198 A 
HETATM   10  N   UNL     1     -40.312  52.885 -52.418  1.00  0.00    -0.136 NA
HETATM   11  N   UNL     1     -39.672  51.730 -52.297  1.00  0.00     0.024 NA
HETATM   12  N   UNL     1     -39.914  51.088 -53.448  1.00  0.00    -0.196 N 
HETATM   13  C   UNL     1     -39.415  49.765 -53.704  1.00  0.00     0.200 C 
HETATM   14  N   UNL     1     -40.681  51.743 -54.338  1.00  0.00    -0.137 NA
ENDBRANCH   6   9
ENDBRANCH   2   3
ENDBRANCH   1   2
BRANCH   1  15
HETATM   15  C   UNL     1     -42.567  59.159 -54.996  1.00  0.00     0.246 C 
HETATM   16  N   UNL     1     -43.417  59.318 -53.919  1.00  0.00    -0.324 N 
HETATM   17  H   UNL     1     -44.318  58.859 -54.003  1.00  0.00     0.169 HD
HETATM   18  O   UNL     1     -41.452  59.659 -55.129  1.00  0.00    -0.271 OA
BRANCH  16  19
HETATM   19  C   UNL     1     -43.206  60.060 -52.741  1.00  0.00     0.047 A 
HETATM   20  C   UNL     1     -42.353  59.513 -51.746  1.00  0.00     0.019 A 
HETATM   21  C   UNL     1     -42.127  60.236 -50.572  1.00  0.00     0.044 A 
HETATM   22  C   UNL     1     -41.611  58.297 -51.621  1.00  0.00     0.033 A 
HETATM   23  N   UNL     1     -41.282  59.488 -49.782  1.00  0.00    -0.365 N 
HETATM   24  C   UNL     1     -42.702  61.487 -50.330  1.00  0.00     0.030 A 
HETATM   25  H   UNL     1     -40.952  59.772 -48.870  1.00  0.00     0.165 HD
HETATM   26  C   UNL     1     -40.968  58.312 -50.405  1.00  0.00     0.089 A 
HETATM   27  C   UNL     1     -43.537  62.011 -51.316  1.00  0.00     0.005 A 
HETATM   28  C   UNL     1     -43.788  61.312 -52.498  1.00  0.00     0.030 A 
ENDBRANCH  16  19
ENDBRANCH   1  15
TORSDOF 5
ENDMDL
MODEL 10
REMARK VINA RESULT:      -6.8      5.160      8.874
REMARK  5 active torsions:
REMARK  status: ('A' for Active; 'I' for Inactive)
REMARK    1  A    between atoms: C_5  and  C_6 
REMARK    2  A    between atoms: C_9  and  O_10 
REMARK    3  A    between atoms: O_10  and  C_11 
REMARK    4  A    between atoms: C_11  and  C_12 
REMARK       I    between atoms: C_12  and  N_13 
REMARK    5  A    between atoms: N_13  and  C_14 
ROOT
HETATM    1  C   UNL     1     -44.720  57.936 -51.142  1.00  0.00     0.278 C 
ENDROOT
BRANCH   1   2
HETATM    2  O   UNL     1     -43.357  57.928 -51.559  1.00  0.00    -0.342 OA
BRANCH   2   3
HETATM    3  C   UNL     1     -42.798  56.700 -51.782  1.00  0.00     0.069 A 
HETATM    4  C   UNL     1     -41.800  56.665 -52.756  1.00  0.00     0.038 A 
HETATM    5  C   UNL     1     -41.131  55.472 -53.040  1.00  0.00     0.018 A 
HETATM    6  C   UNL     1     -41.436  54.299 -52.336  1.00  0.00     0.015 A 
HETATM    7  C   UNL     1     -42.427  54.351 -51.344  1.00  0.00     0.018 A 
HETATM    8  C   UNL     1     -43.104  55.545 -51.065  1.00  0.00     0.038 A 
BRANCH   6   9
HETATM    9  C   UNL     1     -40.727  53.060 -52.624  1.00  0.00     0.198 A 
HETATM   10  N   UNL     1     -39.819  52.498 -51.751  1.00  0.00    -0.136 NA
HETATM   11  N   UNL     1     -39.379  51.383 -52.318  1.00  0.00     0.024 NA
HETATM   12  N   UNL     1     -40.027  51.321 -53.489  1.00  0.00    -0.196 N 
HETATM   13  C   UNL     1     -39.849  50.226 -54.403  1.00  0.00     0.200 C 
HETATM   14  N   UNL     1     -40.879  52.330 -53.745  1.00  0.00    -0.137 NA
ENDBRANCH   6   9
ENDBRANCH   2   3
ENDBRANCH   1   2
BRANCH   1  15
HETATM   15  C   UNL     1     -45.227  59.288 -50.626  1.00  0.00     0.246 C 
HETATM   16  N   UNL     1     -44.260  60.009 -49.953  1.00  0.00    -0.324 N 
HETATM   17  H   UNL     1     -43.359  59.551 -49.862  1.00  0.00     0.169 HD
HETATM   18  O   UNL     1     -46.394  59.625 -50.813  1.00  0.00    -0.271 OA
BRANCH  16  19
HETATM   19  C   UNL     1     -44.375  61.277 -49.351  1.00  0.00     0.047 A 
HETATM   20  C   UNL     1     -45.069  61.376 -48.116  1.00  0.00     0.019 A 
HETATM   21  C   UNL     1     -45.188  62.624 -47.501  1.00  0.00     0.044 A 
HETATM   22  C   UNL     1     -45.749  60.443 -47.273  1.00  0.00     0.033 A 
HETATM   23  N   UNL     1     -45.904  62.445 -46.337  1.00  0.00    -0.365 N 
HETATM   24  C   UNL     1     -44.648  63.793 -48.046  1.00  0.00     0.030 A 
HETATM   25  H   UNL     1     -46.140  63.186 -45.692  1.00  0.00     0.165 HD
HETATM   26  C   UNL     1     -46.251  61.130 -46.192  1.00  0.00     0.089 A 
HETATM   27  C   UNL     1     -43.969  63.680 -49.259  1.00  0.00     0.005 A 
HETATM   28  C   UNL     1     -43.837  62.449 -49.902  1.00  0.00     0.030 A 
ENDBRANCH  16  19
ENDBRANCH   1  15
TORSDOF 5
ENDMDL
