MODEL 1
REMARK VINA RESULT:      -7.3      0.000      0.000
REMARK  10 active torsions:
REMARK  status: ('A' for Active; 'I' for Inactive)
REMARK    1  A    between atoms: C_2  and  C_3 
REMARK    2  A    between atoms: C_3  and  N_4 
REMARK    3  A    between atoms: C_10  and  C_11 
REMARK    4  A    between atoms: C_11  and  C_12 
REMARK    5  A    between atoms: C_12  and  S_13 
REMARK    6  A    between atoms: S_13  and  C_14 
REMARK    7  A    between atoms: N_15  and  C_16 
REMARK    8  A    between atoms: C_23  and  C_24 
REMARK    9  A    between atoms: C_24  and  N_25 
REMARK   10  A    between atoms: C_33  and  N_34 
ROOT
HETATM    1  S   UNL     1     -44.339  59.432 -53.903  1.00  0.00    -0.082 SA
ENDROOT
BRANCH   1   2
HETATM    2  C   UNL     1     -43.219  59.974 -55.231  1.00  0.00     0.166 C 
BRANCH   2   3
HETATM    3  C   UNL     1     -43.902  59.855 -56.589  1.00  0.00     0.177 C 
HETATM    4  O   UNL     1     -44.826  60.605 -56.931  1.00  0.00    -0.291 OA
BRANCH   3   5
HETATM    5  C   UNL     1     -43.387  58.824 -57.547  1.00  0.00     0.117 A 
HETATM    6  C   UNL     1     -42.036  58.964 -58.120  1.00  0.00     0.266 A 
HETATM    7  N   UNL     1     -41.680  58.060 -59.065  1.00  0.00    -0.274 N 
HETATM    8  O   UNL     1     -41.270  59.848 -57.749  1.00  0.00    -0.267 OA
HETATM    9  C   UNL     1     -42.435  57.003 -59.474  1.00  0.00     0.330 A 
HETATM   10  H   UNL     1     -40.764  58.140 -59.478  1.00  0.00     0.173 HD
HETATM   11  N   UNL     1     -43.683  56.869 -58.867  1.00  0.00    -0.289 N 
HETATM   12  O   UNL     1     -41.987  56.246 -60.331  1.00  0.00    -0.246 OA
HETATM   13  C   UNL     1     -44.162  57.772 -57.911  1.00  0.00     0.103 A 
BRANCH  11  14
HETATM   14  C   UNL     1     -44.521  55.759 -59.349  1.00  0.00     0.135 C 
BRANCH  14  15
HETATM   15  C   UNL     1     -45.329  56.091 -60.610  1.00  0.00     0.016 C 
HETATM   16  C   UNL     1     -46.827  56.168 -60.361  1.00  0.00     0.006 C 
ENDBRANCH  14  15
ENDBRANCH  11  14
BRANCH  13  17
HETATM   17  N   UNL     1     -45.427  57.587 -57.357  1.00  0.00    -0.287 NA
HETATM   18  H   UNL     1     -45.400  57.584 -56.330  1.00  0.00     0.125 HD
HETATM   19  H   UNL     1     -45.873  56.734 -57.681  1.00  0.00     0.125 HD
ENDBRANCH  13  17
ENDBRANCH   3   5
ENDBRANCH   2   3
ENDBRANCH   1   2
BRANCH   1  20
HETATM   20  C   UNL     1     -43.961  57.744 -53.829  1.00  0.00     0.196 A 
HETATM   21  N   UNL     1     -42.804  57.216 -53.285  1.00  0.00    -0.274 N 
HETATM   22  C   UNL     1     -42.871  55.858 -53.603  1.00  0.00     0.166 A 
HETATM   23  N   UNL     1     -43.969  55.633 -54.299  1.00  0.00    -0.131 NA
HETATM   24  N   UNL     1     -44.646  56.806 -54.440  1.00  0.00    -0.122 NA
BRANCH  21  25
HETATM   25  C   UNL     1     -41.799  57.882 -52.539  1.00  0.00     0.043 A 
HETATM   26  C   UNL     1     -41.967  58.074 -51.161  1.00  0.00     0.032 A 
HETATM   27  C   UNL     1     -40.974  58.716 -50.418  1.00  0.00     0.026 A 
HETATM   28  C   UNL     1     -39.819  59.168 -51.051  1.00  0.00     0.034 A 
HETATM   29 CL   UNL     1     -38.596  59.957 -50.136  1.00  0.00    -0.084 Cl
HETATM   30  C   UNL     1     -39.650  58.989 -52.424  1.00  0.00     0.026 A 
HETATM   31  C   UNL     1     -40.639  58.346 -53.174  1.00  0.00     0.032 A 
ENDBRANCH  21  25
BRANCH  22  32
HETATM   32  C   UNL     1     -41.927  54.788 -53.140  1.00  0.00     0.254 C 
HETATM   33  C   UNL     1     -42.578  53.839 -52.128  1.00  0.00     0.049 C 
BRANCH  32  34
HETATM   34  N   UNL     1     -41.292  53.940 -54.270  1.00  0.00    -0.068 N 
HETATM   35  H   UNL     1     -42.034  53.799 -54.965  1.00  0.00     0.279 HD
HETATM   36  C   UNL     1     -40.149  54.588 -55.011  1.00  0.00     0.270 C 
HETATM   37  C   UNL     1     -40.901  52.560 -53.800  1.00  0.00     0.270 C 
ENDBRANCH  32  34
ENDBRANCH  22  32
ENDBRANCH   1  20
TORSDOF 10
ENDMDL
MODEL 2
REMARK VINA RESULT:      -6.8      3.587      7.384
REMARK  10 active torsions:
REMARK  status: ('A' for Active; 'I' for Inactive)
REMARK    1  A    between atoms: C_2  and  C_3 
REMARK    2  A    between atoms: C_3  and  N_4 
REMARK    3  A    between atoms: C_10  and  C_11 
REMARK    4  A    between atoms: C_11  and  C_12 
REMARK    5  A    between atoms: C_12  and  S_13 
REMARK    6  A    between atoms: S_13  and  C_14 
REMARK    7  A    between atoms: N_15  and  C_16 
REMARK    8  A    between atoms: C_23  and  C_24 
REMARK    9  A    between atoms: C_24  and  N_25 
REMARK   10  A    between atoms: C_33  and  N_34 
ROOT
HETATM    1  S   UNL     1     -41.901  57.092 -54.653  1.00  0.00    -0.082 SA
ENDROOT
BRANCH   1   2
HETATM    2  C   UNL     1     -43.274  56.598 -53.565  1.00  0.00     0.166 C 
BRANCH   2   3
HETATM    3  C   UNL     1     -43.444  55.082 -53.573  1.00  0.00     0.177 C 
HETATM    4  O   UNL     1     -44.283  54.516 -54.285  1.00  0.00    -0.291 OA
BRANCH   3   5
HETATM    5  C   UNL     1     -42.518  54.268 -52.721  1.00  0.00     0.117 A 
HETATM    6  C   UNL     1     -42.636  54.318 -51.253  1.00  0.00     0.266 A 
HETATM    7  N   UNL     1     -41.694  53.648 -50.545  1.00  0.00    -0.274 N 
HETATM    8  O   UNL     1     -43.550  54.924 -50.702  1.00  0.00    -0.267 OA
HETATM    9  C   UNL     1     -40.698  52.885 -51.075  1.00  0.00     0.330 A 
HETATM   10  H   UNL     1     -41.748  53.673 -49.538  1.00  0.00     0.173 HD
HETATM   11  N   UNL     1     -40.653  52.816 -52.467  1.00  0.00    -0.289 N 
HETATM   12  O   UNL     1     -39.916  52.316 -50.318  1.00  0.00    -0.246 OA
HETATM   13  C   UNL     1     -41.553  53.502 -53.289  1.00  0.00     0.103 A 
BRANCH  11  14
HETATM   14  C   UNL     1     -39.543  52.037 -53.039  1.00  0.00     0.135 C 
BRANCH  14  15
HETATM   15  C   UNL     1     -39.818  50.531 -53.125  1.00  0.00     0.016 C 
HETATM   16  C   UNL     1     -39.916  50.018 -54.554  1.00  0.00     0.006 C 
ENDBRANCH  14  15
ENDBRANCH  11  14
BRANCH  13  17
HETATM   17  N   UNL     1     -41.440  53.401 -54.674  1.00  0.00    -0.287 NA
HETATM   18  H   UNL     1     -41.953  52.591 -55.043  1.00  0.00     0.125 HD
HETATM   19  H   UNL     1     -40.474  53.352 -54.984  1.00  0.00     0.125 HD
ENDBRANCH  13  17
ENDBRANCH   3   5
ENDBRANCH   2   3
ENDBRANCH   1   2
BRANCH   1  20
HETATM   20  C   UNL     1     -42.543  56.656 -56.202  1.00  0.00     0.196 A 
HETATM   21  N   UNL     1     -43.449  57.411 -56.924  1.00  0.00    -0.274 N 
HETATM   22  C   UNL     1     -43.792  56.590 -57.999  1.00  0.00     0.166 A 
HETATM   23  N   UNL     1     -43.152  55.442 -57.885  1.00  0.00    -0.131 NA
HETATM   24  N   UNL     1     -42.375  55.483 -56.767  1.00  0.00    -0.122 NA
BRANCH  21  25
HETATM   25  C   UNL     1     -43.899  58.730 -56.664  1.00  0.00     0.043 A 
HETATM   26  C   UNL     1     -43.173  59.823 -57.158  1.00  0.00     0.032 A 
HETATM   27  C   UNL     1     -43.619  61.125 -56.918  1.00  0.00     0.026 A 
HETATM   28  C   UNL     1     -44.783  61.334 -56.184  1.00  0.00     0.034 A 
HETATM   29 CL   UNL     1     -45.332  62.936 -55.890  1.00  0.00    -0.084 Cl
HETATM   30  C   UNL     1     -45.503  60.251 -55.680  1.00  0.00     0.026 A 
HETATM   31  C   UNL     1     -45.064  58.945 -55.917  1.00  0.00     0.032 A 
ENDBRANCH  21  25
BRANCH  22  32
HETATM   32  C   UNL     1     -44.651  56.969 -59.170  1.00  0.00     0.254 C 
HETATM   33  C   UNL     1     -43.820  57.384 -60.388  1.00  0.00     0.049 C 
BRANCH  32  34
HETATM   34  N   UNL     1     -45.667  55.887 -59.614  1.00  0.00    -0.068 N 
HETATM   35  H   UNL     1     -45.827  55.297 -58.790  1.00  0.00     0.279 HD
HETATM   36  C   UNL     1     -47.026  56.397 -60.029  1.00  0.00     0.270 C 
HETATM   37  C   UNL     1     -45.102  54.972 -60.673  1.00  0.00     0.270 C 
ENDBRANCH  32  34
ENDBRANCH  22  32
ENDBRANCH   1  20
TORSDOF 10
ENDMDL
MODEL 3
REMARK VINA RESULT:      -6.7      4.522      7.823
REMARK  10 active torsions:
REMARK  status: ('A' for Active; 'I' for Inactive)
REMARK    1  A    between atoms: C_2  and  C_3 
REMARK    2  A    between atoms: C_3  and  N_4 
REMARK    3  A    between atoms: C_10  and  C_11 
REMARK    4  A    between atoms: C_11  and  C_12 
REMARK    5  A    between atoms: C_12  and  S_13 
REMARK    6  A    between atoms: S_13  and  C_14 
REMARK    7  A    between atoms: N_15  and  C_16 
REMARK    8  A    between atoms: C_23  and  C_24 
REMARK    9  A    between atoms: C_24  and  N_25 
REMARK   10  A    between atoms: C_33  and  N_34 
ROOT
HETATM    1  S   UNL     1     -43.910  56.491 -52.232  1.00  0.00    -0.082 SA
ENDROOT
BRANCH   1   2
HETATM    2  C   UNL     1     -43.086  56.090 -50.659  1.00  0.00     0.166 C 
BRANCH   2   3
HETATM    3  C   UNL     1     -41.587  55.907 -50.871  1.00  0.00     0.177 C 
HETATM    4  O   UNL     1     -40.802  56.864 -50.891  1.00  0.00    -0.291 OA
BRANCH   3   5
HETATM    5  C   UNL     1     -41.063  54.510 -51.005  1.00  0.00     0.117 A 
HETATM    6  C   UNL     1     -40.924  53.660 -49.808  1.00  0.00     0.266 A 
HETATM    7  N   UNL     1     -40.337  52.451 -49.986  1.00  0.00    -0.274 N 
HETATM    8  O   UNL     1     -41.333  54.025 -48.710  1.00  0.00    -0.267 OA
HETATM    9  C   UNL     1     -39.931  51.936 -51.180  1.00  0.00     0.330 A 
HETATM   10  H   UNL     1     -40.223  51.854 -49.181  1.00  0.00     0.173 HD
HETATM   11  N   UNL     1     -40.132  52.745 -52.297  1.00  0.00    -0.289 N 
HETATM   12  O   UNL     1     -39.425  50.817 -51.205  1.00  0.00    -0.246 OA
HETATM   13  C   UNL     1     -40.692  54.025 -52.215  1.00  0.00     0.103 A 
BRANCH  11  14
HETATM   14  C   UNL     1     -39.643  52.210 -53.578  1.00  0.00     0.135 C 
BRANCH  14  15
HETATM   15  C   UNL     1     -40.616  51.242 -54.262  1.00  0.00     0.016 C 
HETATM   16  C   UNL     1     -40.002  49.881 -54.556  1.00  0.00     0.006 C 
ENDBRANCH  14  15
ENDBRANCH  11  14
BRANCH  13  17
HETATM   17  N   UNL     1     -40.848  54.786 -53.372  1.00  0.00    -0.287 NA
HETATM   18  H   UNL     1     -40.284  54.424 -54.150  1.00  0.00     0.125 HD
HETATM   19  H   UNL     1     -40.623  55.767 -53.227  1.00  0.00     0.125 HD
ENDBRANCH  13  17
ENDBRANCH   3   5
ENDBRANCH   2   3
ENDBRANCH   1   2
BRANCH   1  20
HETATM   20  C   UNL     1     -44.872  57.850 -51.756  1.00  0.00     0.196 A 
HETATM   21  N   UNL     1     -44.798  59.109 -52.324  1.00  0.00    -0.274 N 
HETATM   22  C   UNL     1     -45.621  59.894 -51.514  1.00  0.00     0.166 A 
HETATM   23  N   UNL     1     -46.106  59.147 -50.541  1.00  0.00    -0.131 NA
HETATM   24  N   UNL     1     -45.639  57.876 -50.692  1.00  0.00    -0.122 NA
BRANCH  21  25
HETATM   25  C   UNL     1     -44.089  59.510 -53.484  1.00  0.00     0.043 A 
HETATM   26  C   UNL     1     -44.727  59.488 -54.733  1.00  0.00     0.032 A 
HETATM   27  C   UNL     1     -44.038  59.897 -55.877  1.00  0.00     0.026 A 
HETATM   28  C   UNL     1     -42.716  60.320 -55.776  1.00  0.00     0.034 A 
HETATM   29 CL   UNL     1     -41.869  60.824 -57.184  1.00  0.00    -0.084 Cl
HETATM   30  C   UNL     1     -42.072  60.334 -54.539  1.00  0.00     0.026 A 
HETATM   31  C   UNL     1     -42.755  59.929 -53.388  1.00  0.00     0.032 A 
ENDBRANCH  21  25
BRANCH  22  32
HETATM   32  C   UNL     1     -46.004  61.325 -51.756  1.00  0.00     0.254 C 
HETATM   33  C   UNL     1     -47.456  61.464 -52.224  1.00  0.00     0.049 C 
BRANCH  32  34
HETATM   34  N   UNL     1     -45.783  62.274 -50.552  1.00  0.00    -0.068 N 
HETATM   35  H   UNL     1     -46.393  61.925 -49.804  1.00  0.00     0.279 HD
HETATM   36  C   UNL     1     -44.388  62.287 -49.976  1.00  0.00     0.270 C 
HETATM   37  C   UNL     1     -46.247  63.681 -50.840  1.00  0.00     0.270 C 
ENDBRANCH  32  34
ENDBRANCH  22  32
ENDBRANCH   1  20
TORSDOF 10
ENDMDL
MODEL 4
REMARK VINA RESULT:      -6.6      2.884      4.965
REMARK  10 active torsions:
REMARK  status: ('A' for Active; 'I' for Inactive)
REMARK    1  A    between atoms: C_2  and  C_3 
REMARK    2  A    between atoms: C_3  and  N_4 
REMARK    3  A    between atoms: C_10  and  C_11 
REMARK    4  A    between atoms: C_11  and  C_12 
REMARK    5  A    between atoms: C_12  and  S_13 
REMARK    6  A    between atoms: S_13  and  C_14 
REMARK    7  A    between atoms: N_15  and  C_16 
REMARK    8  A    between atoms: C_23  and  C_24 
REMARK    9  A    between atoms: C_24  and  N_25 
REMARK   10  A    between atoms: C_33  and  N_34 
ROOT
HETATM    1  S   UNL     1     -43.064  56.396 -56.945  1.00  0.00    -0.082 SA
ENDROOT
BRANCH   1   2
HETATM    2  C   UNL     1     -42.425  57.427 -58.303  1.00  0.00     0.166 C 
BRANCH   2   3
HETATM    3  C   UNL     1     -42.840  56.852 -59.653  1.00  0.00     0.177 C 
HETATM    4  O   UNL     1     -42.014  56.435 -60.475  1.00  0.00    -0.291 OA
BRANCH   3   5
HETATM    5  C   UNL     1     -44.305  56.749 -59.950  1.00  0.00     0.117 A 
HETATM    6  C   UNL     1     -44.963  55.429 -59.954  1.00  0.00     0.266 A 
HETATM    7  N   UNL     1     -46.261  55.398 -60.343  1.00  0.00    -0.274 N 
HETATM    8  O   UNL     1     -44.366  54.414 -59.608  1.00  0.00    -0.267 OA
HETATM    9  C   UNL     1     -47.018  56.484 -60.662  1.00  0.00     0.330 A 
HETATM   10  H   UNL     1     -46.730  54.506 -60.362  1.00  0.00     0.173 HD
HETATM   11  N   UNL     1     -46.378  57.721 -60.591  1.00  0.00    -0.289 N 
HETATM   12  O   UNL     1     -48.191  56.318 -60.986  1.00  0.00    -0.246 OA
HETATM   13  C   UNL     1     -45.030  57.857 -60.240  1.00  0.00     0.103 A 
BRANCH  11  14
HETATM   14  C   UNL     1     -47.181  58.887 -60.990  1.00  0.00     0.135 C 
BRANCH  14  15
HETATM   15  C   UNL     1     -47.869  59.600 -59.819  1.00  0.00     0.016 C 
HETATM   16  C   UNL     1     -49.027  60.487 -60.252  1.00  0.00     0.006 C 
ENDBRANCH  14  15
ENDBRANCH  11  14
BRANCH  13  17
HETATM   17  N   UNL     1     -44.450  59.124 -60.205  1.00  0.00    -0.287 NA
HETATM   18  H   UNL     1     -43.700  59.184 -59.505  1.00  0.00     0.125 HD
HETATM   19  H   UNL     1     -45.128  59.859 -60.030  1.00  0.00     0.125 HD
ENDBRANCH  13  17
ENDBRANCH   3   5
ENDBRANCH   2   3
ENDBRANCH   1   2
BRANCH   1  20
HETATM   20  C   UNL     1     -42.565  57.325 -55.572  1.00  0.00     0.196 A 
HETATM   21  N   UNL     1     -41.981  56.802 -54.432  1.00  0.00    -0.274 N 
HETATM   22  C   UNL     1     -41.917  57.887 -53.557  1.00  0.00     0.166 A 
HETATM   23  N   UNL     1     -42.449  58.943 -54.141  1.00  0.00    -0.131 NA
HETATM   24  N   UNL     1     -42.853  58.593 -55.394  1.00  0.00    -0.122 NA
BRANCH  21  25
HETATM   25  C   UNL     1     -41.513  55.482 -54.211  1.00  0.00     0.043 A 
HETATM   26  C   UNL     1     -40.433  54.992 -54.958  1.00  0.00     0.032 A 
HETATM   27  C   UNL     1     -39.958  53.697 -54.734  1.00  0.00     0.026 A 
HETATM   28  C   UNL     1     -40.563  52.894 -53.771  1.00  0.00     0.034 A 
HETATM   29 CL   UNL     1     -39.978  51.302 -53.494  1.00  0.00    -0.084 Cl
HETATM   30  C   UNL     1     -41.645  53.372 -53.032  1.00  0.00     0.026 A 
HETATM   31  C   UNL     1     -42.125  54.668 -53.249  1.00  0.00     0.032 A 
ENDBRANCH  21  25
BRANCH  22  32
HETATM   32  C   UNL     1     -41.250  57.908 -52.213  1.00  0.00     0.254 C 
HETATM   33  C   UNL     1     -40.095  58.913 -52.155  1.00  0.00     0.049 C 
BRANCH  32  34
HETATM   34  N   UNL     1     -42.195  58.177 -51.016  1.00  0.00    -0.068 N 
HETATM   35  H   UNL     1     -41.726  57.782 -50.193  1.00  0.00     0.279 HD
HETATM   36  C   UNL     1     -42.442  59.631 -50.692  1.00  0.00     0.270 C 
HETATM   37  C   UNL     1     -43.503  57.435 -51.141  1.00  0.00     0.270 C 
ENDBRANCH  32  34
ENDBRANCH  22  32
ENDBRANCH   1  20
TORSDOF 10
ENDMDL
MODEL 5
REMARK VINA RESULT:      -6.5      4.125      8.248
REMARK  10 active torsions:
REMARK  status: ('A' for Active; 'I' for Inactive)
REMARK    1  A    between atoms: C_2  and  C_3 
REMARK    2  A    between atoms: C_3  and  N_4 
REMARK    3  A    between atoms: C_10  and  C_11 
REMARK    4  A    between atoms: C_11  and  C_12 
REMARK    5  A    between atoms: C_12  and  S_13 
REMARK    6  A    between atoms: S_13  and  C_14 
REMARK    7  A    between atoms: N_15  and  C_16 
REMARK    8  A    between atoms: C_23  and  C_24 
REMARK    9  A    between atoms: C_24  and  N_25 
REMARK   10  A    between atoms: C_33  and  N_34 
ROOT
HETATM    1  S   UNL     1     -41.821  56.663 -55.385  1.00  0.00    -0.082 SA
ENDROOT
BRANCH   1   2
HETATM    2  C   UNL     1     -43.091  56.457 -54.098  1.00  0.00     0.166 C 
BRANCH   2   3
HETATM    3  C   UNL     1     -43.376  54.978 -53.860  1.00  0.00     0.177 C 
HETATM    4  O   UNL     1     -44.264  54.370 -54.473  1.00  0.00    -0.291 OA
BRANCH   3   5
HETATM    5  C   UNL     1     -42.505  54.244 -52.886  1.00  0.00     0.117 A 
HETATM    6  C   UNL     1     -42.706  54.428 -51.437  1.00  0.00     0.266 A 
HETATM    7  N   UNL     1     -41.811  53.824 -50.618  1.00  0.00    -0.274 N 
HETATM    8  O   UNL     1     -43.646  55.084 -50.998  1.00  0.00    -0.267 OA
HETATM    9  C   UNL     1     -40.792  53.014 -51.019  1.00  0.00     0.330 A 
HETATM   10  H   UNL     1     -41.922  53.942 -49.623  1.00  0.00     0.173 HD
HETATM   11  N   UNL     1     -40.669  52.817 -52.393  1.00  0.00    -0.289 N 
HETATM   12  O   UNL     1     -40.058  52.515 -50.169  1.00  0.00    -0.246 OA
HETATM   13  C   UNL     1     -41.516  53.427 -53.325  1.00  0.00     0.103 A 
BRANCH  11  14
HETATM   14  C   UNL     1     -39.534  51.987 -52.828  1.00  0.00     0.135 C 
BRANCH  14  15
HETATM   15  C   UNL     1     -39.868  50.497 -52.966  1.00  0.00     0.016 C 
HETATM   16  C   UNL     1     -39.751  49.983 -54.393  1.00  0.00     0.006 C 
ENDBRANCH  14  15
ENDBRANCH  11  14
BRANCH  13  17
HETATM   17  N   UNL     1     -41.325  53.199 -54.687  1.00  0.00    -0.287 NA
HETATM   18  H   UNL     1     -42.099  52.664 -55.099  1.00  0.00     0.125 HD
HETATM   19  H   UNL     1     -40.450  52.721 -54.883  1.00  0.00     0.125 HD
ENDBRANCH  13  17
ENDBRANCH   3   5
ENDBRANCH   2   3
ENDBRANCH   1   2
BRANCH   1  20
HETATM   20  C   UNL     1     -42.115  58.300 -55.869  1.00  0.00     0.196 A 
HETATM   21  N   UNL     1     -42.647  58.681 -57.088  1.00  0.00    -0.274 N 
HETATM   22  C   UNL     1     -42.537  60.073 -57.084  1.00  0.00     0.166 A 
HETATM   23  N   UNL     1     -41.961  60.456 -55.961  1.00  0.00    -0.131 NA
HETATM   24  N   UNL     1     -41.697  59.353 -55.206  1.00  0.00    -0.122 NA
BRANCH  21  25
HETATM   25  C   UNL     1     -43.214  57.860 -58.095  1.00  0.00     0.043 A 
HETATM   26  C   UNL     1     -42.383  57.243 -59.040  1.00  0.00     0.032 A 
HETATM   27  C   UNL     1     -42.934  56.421 -60.026  1.00  0.00     0.026 A 
HETATM   28  C   UNL     1     -44.311  56.221 -60.070  1.00  0.00     0.034 A 
HETATM   29 CL   UNL     1     -44.990  55.208 -61.282  1.00  0.00    -0.084 Cl
HETATM   30  C   UNL     1     -45.145  56.841 -59.140  1.00  0.00     0.026 A 
HETATM   31  C   UNL     1     -44.600  57.663 -58.148  1.00  0.00     0.032 A 
ENDBRANCH  21  25
BRANCH  22  32
HETATM   32  C   UNL     1     -43.084  61.012 -58.119  1.00  0.00     0.254 C 
HETATM   33  C   UNL     1     -43.235  62.439 -57.584  1.00  0.00     0.049 C 
BRANCH  32  34
HETATM   34  N   UNL     1     -42.283  61.066 -59.443  1.00  0.00    -0.068 N 
HETATM   35  H   UNL     1     -41.470  60.454 -59.305  1.00  0.00     0.279 HD
HETATM   36  C   UNL     1     -42.997  60.534 -60.662  1.00  0.00     0.270 C 
HETATM   37  C   UNL     1     -41.724  62.440 -59.718  1.00  0.00     0.270 C 
ENDBRANCH  32  34
ENDBRANCH  22  32
ENDBRANCH   1  20
TORSDOF 10
ENDMDL
MODEL 6
REMARK VINA RESULT:      -6.4      3.524      7.151
REMARK  10 active torsions:
REMARK  status: ('A' for Active; 'I' for Inactive)
REMARK    1  A    between atoms: C_2  and  C_3 
REMARK    2  A    between atoms: C_3  and  N_4 
REMARK    3  A    between atoms: C_10  and  C_11 
REMARK    4  A    between atoms: C_11  and  C_12 
REMARK    5  A    between atoms: C_12  and  S_13 
REMARK    6  A    between atoms: S_13  and  C_14 
REMARK    7  A    between atoms: N_15  and  C_16 
REMARK    8  A    between atoms: C_23  and  C_24 
REMARK    9  A    between atoms: C_24  and  N_25 
REMARK   10  A    between atoms: C_33  and  N_34 
ROOT
HETATM    1  S   UNL     1     -43.022  60.861 -54.556  1.00  0.00    -0.082 SA
ENDROOT
BRANCH   1   2
HETATM    2  C   UNL     1     -42.703  60.164 -52.905  1.00  0.00     0.166 C 
BRANCH   2   3
HETATM    3  C   UNL     1     -41.522  59.200 -52.950  1.00  0.00     0.177 C 
HETATM    4  O   UNL     1     -40.530  59.405 -53.662  1.00  0.00    -0.291 OA
BRANCH   3   5
HETATM    5  C   UNL     1     -41.562  57.999 -52.055  1.00  0.00     0.117 A 
HETATM    6  C   UNL     1     -41.327  58.153 -50.608  1.00  0.00     0.266 A 
HETATM    7  N   UNL     1     -41.264  57.013 -49.878  1.00  0.00    -0.274 N 
HETATM    8  O   UNL     1     -41.209  59.260 -50.091  1.00  0.00    -0.267 OA
HETATM    9  C   UNL     1     -41.466  55.754 -50.357  1.00  0.00     0.330 A 
HETATM   10  H   UNL     1     -41.096  57.092 -48.887  1.00  0.00     0.173 HD
HETATM   11  N   UNL     1     -41.743  55.653 -51.719  1.00  0.00    -0.289 N 
HETATM   12  O   UNL     1     -41.395  54.803 -49.582  1.00  0.00    -0.246 OA
HETATM   13  C   UNL     1     -41.790  56.765 -52.568  1.00  0.00     0.103 A 
BRANCH  11  14
HETATM   14  C   UNL     1     -41.905  54.288 -52.246  1.00  0.00     0.135 C 
BRANCH  14  15
HETATM   15  C   UNL     1     -40.595  53.641 -52.713  1.00  0.00     0.016 C 
HETATM   16  C   UNL     1     -40.661  53.112 -54.138  1.00  0.00     0.006 C 
ENDBRANCH  14  15
ENDBRANCH  11  14
BRANCH  13  17
HETATM   17  N   UNL     1     -42.056  56.588 -53.924  1.00  0.00    -0.287 NA
HETATM   18  H   UNL     1     -41.800  57.415 -54.477  1.00  0.00     0.125 HD
HETATM   19  H   UNL     1     -43.029  56.357 -54.104  1.00  0.00     0.125 HD
ENDBRANCH  13  17
ENDBRANCH   3   5
ENDBRANCH   2   3
ENDBRANCH   1   2
BRANCH   1  20
HETATM   20  C   UNL     1     -43.548  59.448 -55.407  1.00  0.00     0.196 A 
HETATM   21  N   UNL     1     -43.582  59.321 -56.784  1.00  0.00    -0.274 N 
HETATM   22  C   UNL     1     -44.225  58.100 -56.995  1.00  0.00     0.166 A 
HETATM   23  N   UNL     1     -44.557  57.582 -55.828  1.00  0.00    -0.131 NA
HETATM   24  N   UNL     1     -44.137  58.421 -54.841  1.00  0.00    -0.122 NA
BRANCH  21  25
HETATM   25  C   UNL     1     -43.052  60.200 -57.762  1.00  0.00     0.043 A 
HETATM   26  C   UNL     1     -41.671  60.222 -58.003  1.00  0.00     0.032 A 
HETATM   27  C   UNL     1     -41.145  61.075 -58.976  1.00  0.00     0.026 A 
HETATM   28  C   UNL     1     -41.994  61.907 -59.701  1.00  0.00     0.034 A 
HETATM   29 CL   UNL     1     -41.346  62.955 -60.899  1.00  0.00    -0.084 Cl
HETATM   30  C   UNL     1     -43.367  61.897 -59.459  1.00  0.00     0.026 A 
HETATM   31  C   UNL     1     -43.903  61.044 -58.488  1.00  0.00     0.032 A 
ENDBRANCH  21  25
BRANCH  22  32
HETATM   32  C   UNL     1     -44.413  57.409 -58.313  1.00  0.00     0.254 C 
HETATM   33  C   UNL     1     -43.518  56.173 -58.452  1.00  0.00     0.049 C 
BRANCH  32  34
HETATM   34  N   UNL     1     -45.871  56.998 -58.636  1.00  0.00    -0.068 N 
HETATM   35  H   UNL     1     -46.142  56.327 -57.907  1.00  0.00     0.279 HD
HETATM   36  C   UNL     1     -46.892  58.108 -58.575  1.00  0.00     0.270 C 
HETATM   37  C   UNL     1     -45.980  56.252 -59.943  1.00  0.00     0.270 C 
ENDBRANCH  32  34
ENDBRANCH  22  32
ENDBRANCH   1  20
TORSDOF 10
ENDMDL
MODEL 7
REMARK VINA RESULT:      -6.3      2.628      6.218
REMARK  10 active torsions:
REMARK  status: ('A' for Active; 'I' for Inactive)
REMARK    1  A    between atoms: C_2  and  C_3 
REMARK    2  A    between atoms: C_3  and  N_4 
REMARK    3  A    between atoms: C_10  and  C_11 
REMARK    4  A    between atoms: C_11  and  C_12 
REMARK    5  A    between atoms: C_12  and  S_13 
REMARK    6  A    between atoms: S_13  and  C_14 
REMARK    7  A    between atoms: N_15  and  C_16 
REMARK    8  A    between atoms: C_23  and  C_24 
REMARK    9  A    between atoms: C_24  and  N_25 
REMARK   10  A    between atoms: C_33  and  N_34 
ROOT
HETATM    1  S   UNL     1     -44.825  57.745 -53.381  1.00  0.00    -0.082 SA
ENDROOT
BRANCH   1   2
HETATM    2  C   UNL     1     -45.615  59.358 -53.090  1.00  0.00     0.166 C 
BRANCH   2   3
HETATM    3  C   UNL     1     -44.582  60.387 -52.643  1.00  0.00     0.177 C 
HETATM    4  O   UNL     1     -44.906  61.491 -52.184  1.00  0.00    -0.291 OA
BRANCH   3   5
HETATM    5  C   UNL     1     -43.135  60.008 -52.720  1.00  0.00     0.117 A 
HETATM    6  C   UNL     1     -42.407  60.139 -53.995  1.00  0.00     0.266 A 
HETATM    7  N   UNL     1     -41.136  59.670 -54.021  1.00  0.00    -0.274 N 
HETATM    8  O   UNL     1     -42.925  60.661 -54.978  1.00  0.00    -0.267 OA
HETATM    9  C   UNL     1     -40.460  59.155 -52.957  1.00  0.00     0.330 A 
HETATM   10  H   UNL     1     -40.620  59.742 -54.885  1.00  0.00     0.173 HD
HETATM   11  N   UNL     1     -41.161  59.100 -51.753  1.00  0.00    -0.289 N 
HETATM   12  O   UNL     1     -39.301  58.778 -53.112  1.00  0.00    -0.246 OA
HETATM   13  C   UNL     1     -42.491  59.520 -51.630  1.00  0.00     0.103 A 
BRANCH  11  14
HETATM   14  C   UNL     1     -40.449  58.491 -50.618  1.00  0.00     0.135 C 
BRANCH  14  15
HETATM   15  C   UNL     1     -40.954  57.092 -50.244  1.00  0.00     0.016 C 
HETATM   16  C   UNL     1     -41.353  56.255 -51.449  1.00  0.00     0.006 C 
ENDBRANCH  14  15
ENDBRANCH  11  14
BRANCH  13  17
HETATM   17  N   UNL     1     -43.136  59.421 -50.400  1.00  0.00    -0.287 NA
HETATM   18  H   UNL     1     -43.749  60.226 -50.221  1.00  0.00     0.125 HD
HETATM   19  H   UNL     1     -42.486  59.319 -49.625  1.00  0.00     0.125 HD
ENDBRANCH  13  17
ENDBRANCH   3   5
ENDBRANCH   2   3
ENDBRANCH   1   2
BRANCH   1  20
HETATM   20  C   UNL     1     -44.764  57.722 -55.111  1.00  0.00     0.196 A 
HETATM   21  N   UNL     1     -43.865  56.985 -55.861  1.00  0.00    -0.274 N 
HETATM   22  C   UNL     1     -44.088  57.414 -57.171  1.00  0.00     0.166 A 
HETATM   23  N   UNL     1     -45.023  58.345 -57.166  1.00  0.00    -0.131 NA
HETATM   24  N   UNL     1     -45.442  58.537 -55.885  1.00  0.00    -0.122 NA
BRANCH  21  25
HETATM   25  C   UNL     1     -42.956  55.992 -55.418  1.00  0.00     0.043 A 
HETATM   26  C   UNL     1     -41.604  56.318 -55.234  1.00  0.00     0.032 A 
HETATM   27  C   UNL     1     -40.707  55.348 -54.784  1.00  0.00     0.026 A 
HETATM   28  C   UNL     1     -41.155  54.056 -54.522  1.00  0.00     0.034 A 
HETATM   29 CL   UNL     1     -40.050  52.863 -53.966  1.00  0.00    -0.084 Cl
HETATM   30  C   UNL     1     -42.496  53.723 -54.713  1.00  0.00     0.026 A 
HETATM   31  C   UNL     1     -43.402  54.689 -55.162  1.00  0.00     0.032 A 
ENDBRANCH  21  25
BRANCH  22  32
HETATM   32  C   UNL     1     -43.466  56.843 -58.412  1.00  0.00     0.254 C 
HETATM   33  C   UNL     1     -44.413  56.904 -59.615  1.00  0.00     0.049 C 
BRANCH  32  34
HETATM   34  N   UNL     1     -42.114  57.478 -58.819  1.00  0.00    -0.068 N 
HETATM   35  H   UNL     1     -41.389  56.824 -58.501  1.00  0.00     0.279 HD
HETATM   36  C   UNL     1     -41.892  57.650 -60.303  1.00  0.00     0.270 C 
HETATM   37  C   UNL     1     -41.848  58.774 -58.093  1.00  0.00     0.270 C 
ENDBRANCH  32  34
ENDBRANCH  22  32
ENDBRANCH   1  20
TORSDOF 10
ENDMDL
MODEL 8
REMARK VINA RESULT:      -6.3      3.445      7.062
REMARK  10 active torsions:
REMARK  status: ('A' for Active; 'I' for Inactive)
REMARK    1  A    between atoms: C_2  and  C_3 
REMARK    2  A    between atoms: C_3  and  N_4 
REMARK    3  A    between atoms: C_10  and  C_11 
REMARK    4  A    between atoms: C_11  and  C_12 
REMARK    5  A    between atoms: C_12  and  S_13 
REMARK    6  A    between atoms: S_13  and  C_14 
REMARK    7  A    between atoms: N_15  and  C_16 
REMARK    8  A    between atoms: C_23  and  C_24 
REMARK    9  A    between atoms: C_24  and  N_25 
REMARK   10  A    between atoms: C_33  and  N_34 
ROOT
HETATM    1  S   UNL     1     -42.638  60.321 -54.592  1.00  0.00    -0.082 SA
ENDROOT
BRANCH   1   2
HETATM    2  C   UNL     1     -43.755  60.222 -53.159  1.00  0.00     0.166 C 
BRANCH   2   3
HETATM    3  C   UNL     1     -43.025  59.645 -51.950  1.00  0.00     0.177 C 
HETATM    4  O   UNL     1     -42.269  60.329 -51.248  1.00  0.00    -0.291 OA
BRANCH   3   5
HETATM    5  C   UNL     1     -43.289  58.215 -51.588  1.00  0.00     0.117 A 
HETATM    6  C   UNL     1     -44.655  57.786 -51.239  1.00  0.00     0.266 A 
HETATM    7  N   UNL     1     -44.799  56.508 -50.811  1.00  0.00    -0.274 N 
HETATM    8  O   UNL     1     -45.613  58.545 -51.344  1.00  0.00    -0.267 OA
HETATM    9  C   UNL     1     -43.806  55.578 -50.744  1.00  0.00     0.330 A 
HETATM   10  H   UNL     1     -45.724  56.192 -50.558  1.00  0.00     0.173 HD
HETATM   11  N   UNL     1     -42.539  56.005 -51.138  1.00  0.00    -0.289 N 
HETATM   12  O   UNL     1     -44.076  54.446 -50.351  1.00  0.00    -0.246 OA
HETATM   13  C   UNL     1     -42.276  57.314 -51.556  1.00  0.00     0.103 A 
BRANCH  11  14
HETATM   14  C   UNL     1     -41.456  55.016 -51.012  1.00  0.00     0.135 C 
BRANCH  14  15
HETATM   15  C   UNL     1     -40.951  54.825 -49.576  1.00  0.00     0.016 C 
HETATM   16  C   UNL     1     -39.524  54.301 -49.506  1.00  0.00     0.006 C 
ENDBRANCH  14  15
ENDBRANCH  11  14
BRANCH  13  17
HETATM   17  N   UNL     1     -40.981  57.677 -51.920  1.00  0.00    -0.287 NA
HETATM   18  H   UNL     1     -40.536  56.967 -52.514  1.00  0.00     0.125 HD
HETATM   19  H   UNL     1     -40.386  57.858 -51.116  1.00  0.00     0.125 HD
ENDBRANCH  13  17
ENDBRANCH   3   5
ENDBRANCH   2   3
ENDBRANCH   1   2
BRANCH   1  20
HETATM   20  C   UNL     1     -43.731  59.942 -55.880  1.00  0.00     0.196 A 
HETATM   21  N   UNL     1     -43.966  58.670 -56.370  1.00  0.00    -0.274 N 
HETATM   22  C   UNL     1     -44.773  58.882 -57.489  1.00  0.00     0.166 A 
HETATM   23  N   UNL     1     -44.962  60.178 -57.644  1.00  0.00    -0.131 NA
HETATM   24  N   UNL     1     -44.313  60.837 -56.643  1.00  0.00    -0.122 NA
BRANCH  21  25
HETATM   25  C   UNL     1     -43.529  57.429 -55.840  1.00  0.00     0.043 A 
HETATM   26  C   UNL     1     -44.302  56.775 -54.871  1.00  0.00     0.032 A 
HETATM   27  C   UNL     1     -43.884  55.545 -54.357  1.00  0.00     0.026 A 
HETATM   28  C   UNL     1     -42.697  54.974 -54.805  1.00  0.00     0.034 A 
HETATM   29 CL   UNL     1     -42.184  53.460 -54.173  1.00  0.00    -0.084 Cl
HETATM   30  C   UNL     1     -41.918  55.625 -55.761  1.00  0.00     0.026 A 
HETATM   31  C   UNL     1     -42.330  56.855 -56.283  1.00  0.00     0.032 A 
ENDBRANCH  21  25
BRANCH  22  32
HETATM   32  C   UNL     1     -45.429  57.824 -58.327  1.00  0.00     0.254 C 
HETATM   33  C   UNL     1     -46.752  58.303 -58.932  1.00  0.00     0.049 C 
BRANCH  32  34
HETATM   34  N   UNL     1     -44.549  57.248 -59.464  1.00  0.00    -0.068 N 
HETATM   35  H   UNL     1     -45.133  57.265 -60.307  1.00  0.00     0.279 HD
HETATM   36  C   UNL     1     -43.313  58.046 -59.802  1.00  0.00     0.270 C 
HETATM   37  C   UNL     1     -44.195  55.799 -59.236  1.00  0.00     0.270 C 
ENDBRANCH  32  34
ENDBRANCH  22  32
ENDBRANCH   1  20
TORSDOF 10
ENDMDL
MODEL 9
REMARK VINA RESULT:      -6.2      3.436      6.263
REMARK  10 active torsions:
REMARK  status: ('A' for Active; 'I' for Inactive)
REMARK    1  A    between atoms: C_2  and  C_3 
REMARK    2  A    between atoms: C_3  and  N_4 
REMARK    3  A    between atoms: C_10  and  C_11 
REMARK    4  A    between atoms: C_11  and  C_12 
REMARK    5  A    between atoms: C_12  and  S_13 
REMARK    6  A    between atoms: S_13  and  C_14 
REMARK    7  A    between atoms: N_15  and  C_16 
REMARK    8  A    between atoms: C_23  and  C_24 
REMARK    9  A    between atoms: C_24  and  N_25 
REMARK   10  A    between atoms: C_33  and  N_34 
ROOT
HETATM    1  S   UNL     1     -41.868  59.714 -55.247  1.00  0.00    -0.082 SA
ENDROOT
BRANCH   1   2
HETATM    2  C   UNL     1     -43.326  58.670 -55.555  1.00  0.00     0.166 C 
BRANCH   2   3
HETATM    3  C   UNL     1     -42.901  57.263 -55.963  1.00  0.00     0.177 C 
HETATM    4  O   UNL     1     -42.524  56.995 -57.111  1.00  0.00    -0.291 OA
BRANCH   3   5
HETATM    5  C   UNL     1     -42.895  56.198 -54.908  1.00  0.00     0.117 A 
HETATM    6  C   UNL     1     -44.112  55.941 -54.117  1.00  0.00     0.266 A 
HETATM    7  N   UNL     1     -44.001  55.046 -53.106  1.00  0.00    -0.274 N 
HETATM    8  O   UNL     1     -45.174  56.500 -54.374  1.00  0.00    -0.267 OA
HETATM    9  C   UNL     1     -42.887  54.322 -52.807  1.00  0.00     0.330 A 
HETATM   10  H   UNL     1     -44.819  54.858 -52.545  1.00  0.00     0.173 HD
HETATM   11  N   UNL     1     -41.773  54.550 -53.613  1.00  0.00    -0.289 N 
HETATM   12  O   UNL     1     -42.925  53.529 -51.869  1.00  0.00    -0.246 OA
HETATM   13  C   UNL     1     -41.771  55.482 -54.657  1.00  0.00     0.103 A 
BRANCH  11  14
HETATM   14  C   UNL     1     -40.553  53.809 -53.255  1.00  0.00     0.135 C 
BRANCH  14  15
HETATM   15  C   UNL     1     -40.405  52.466 -53.980  1.00  0.00     0.016 C 
HETATM   16  C   UNL     1     -39.545  51.465 -53.222  1.00  0.00     0.006 C 
ENDBRANCH  14  15
ENDBRANCH  11  14
BRANCH  13  17
HETATM   17  N   UNL     1     -40.616  55.672 -55.413  1.00  0.00    -0.287 NA
HETATM   18  H   UNL     1     -40.808  55.647 -56.422  1.00  0.00     0.125 HD
HETATM   19  H   UNL     1     -39.892  54.992 -55.196  1.00  0.00     0.125 HD
ENDBRANCH  13  17
ENDBRANCH   3   5
ENDBRANCH   2   3
ENDBRANCH   1   2
BRANCH   1  20
HETATM   20  C   UNL     1     -42.490  60.791 -54.042  1.00  0.00     0.196 A 
HETATM   21  N   UNL     1     -42.629  60.482 -52.701  1.00  0.00    -0.274 N 
HETATM   22  C   UNL     1     -43.315  61.577 -52.172  1.00  0.00     0.166 A 
HETATM   23  N   UNL     1     -43.573  62.433 -53.142  1.00  0.00    -0.131 NA
HETATM   24  N   UNL     1     -43.061  61.943 -54.305  1.00  0.00    -0.122 NA
BRANCH  21  25
HETATM   25  C   UNL     1     -42.151  59.342 -52.007  1.00  0.00     0.043 A 
HETATM   26  C   UNL     1     -43.047  58.332 -51.627  1.00  0.00     0.032 A 
HETATM   27  C   UNL     1     -42.580  57.199 -50.957  1.00  0.00     0.026 A 
HETATM   28  C   UNL     1     -41.225  57.078 -50.661  1.00  0.00     0.034 A 
HETATM   29 CL   UNL     1     -40.650  55.684 -49.837  1.00  0.00    -0.084 Cl
HETATM   30  C   UNL     1     -40.331  58.084 -51.026  1.00  0.00     0.026 A 
HETATM   31  C   UNL     1     -40.790  59.221 -51.700  1.00  0.00     0.032 A 
ENDBRANCH  21  25
BRANCH  22  32
HETATM   32  C   UNL     1     -43.617  61.822 -50.722  1.00  0.00     0.254 C 
HETATM   33  C   UNL     1     -43.114  63.189 -50.249  1.00  0.00     0.049 C 
BRANCH  32  34
HETATM   34  N   UNL     1     -45.110  61.686 -50.332  1.00  0.00    -0.068 N 
HETATM   35  H   UNL     1     -45.118  61.261 -49.397  1.00  0.00     0.279 HD
HETATM   36  C   UNL     1     -45.873  62.982 -50.203  1.00  0.00     0.270 C 
HETATM   37  C   UNL     1     -45.852  60.726 -51.229  1.00  0.00     0.270 C 
ENDBRANCH  32  34
ENDBRANCH  22  32
ENDBRANCH   1  20
TORSDOF 10
ENDMDL
MODEL 10
REMARK VINA RESULT:      -6.1      1.464      2.325
REMARK  10 active torsions:
REMARK  status: ('A' for Active; 'I' for Inactive)
REMARK    1  A    between atoms: C_2  and  C_3 
REMARK    2  A    between atoms: C_3  and  N_4 
REMARK    3  A    between atoms: C_10  and  C_11 
REMARK    4  A    between atoms: C_11  and  C_12 
REMARK    5  A    between atoms: C_12  and  S_13 
REMARK    6  A    between atoms: S_13  and  C_14 
REMARK    7  A    between atoms: N_15  and  C_16 
REMARK    8  A    between atoms: C_23  and  C_24 
REMARK    9  A    between atoms: C_24  and  N_25 
REMARK   10  A    between atoms: C_33  and  N_34 
ROOT
HETATM    1  S   UNL     1     -43.838  59.591 -54.050  1.00  0.00    -0.082 SA
ENDROOT
BRANCH   1   2
HETATM    2  C   UNL     1     -45.270  59.556 -55.173  1.00  0.00     0.166 C 
BRANCH   2   3
HETATM    3  C   UNL     1     -44.843  59.903 -56.595  1.00  0.00     0.177 C 
HETATM    4  O   UNL     1     -44.090  60.853 -56.845  1.00  0.00    -0.291 OA
BRANCH   3   5
HETATM    5  C   UNL     1     -45.321  59.019 -57.707  1.00  0.00     0.117 A 
HETATM    6  C   UNL     1     -46.731  59.071 -58.133  1.00  0.00     0.266 A 
HETATM    7  N   UNL     1     -47.119  58.164 -59.062  1.00  0.00    -0.274 N 
HETATM    8  O   UNL     1     -47.509  59.904 -57.677  1.00  0.00    -0.267 OA
HETATM    9  C   UNL     1     -46.304  57.263 -59.678  1.00  0.00     0.330 A 
HETATM   10  H   UNL     1     -48.081  58.174 -59.364  1.00  0.00     0.173 HD
HETATM   11  N   UNL     1     -44.965  57.282 -59.291  1.00  0.00    -0.289 N 
HETATM   12  O   UNL     1     -46.781  56.504 -60.518  1.00  0.00    -0.246 OA
HETATM   13  C   UNL     1     -44.472  58.151 -58.311  1.00  0.00     0.103 A 
BRANCH  11  14
HETATM   14  C   UNL     1     -44.097  56.271 -59.916  1.00  0.00     0.135 C 
BRANCH  14  15
HETATM   15  C   UNL     1     -43.989  54.965 -59.119  1.00  0.00     0.016 C 
HETATM   16  C   UNL     1     -44.746  53.808 -59.754  1.00  0.00     0.006 C 
ENDBRANCH  14  15
ENDBRANCH  11  14
BRANCH  13  17
HETATM   17  N   UNL     1     -43.124  58.105 -57.961  1.00  0.00    -0.287 NA
HETATM   18  H   UNL     1     -42.953  58.516 -57.035  1.00  0.00     0.125 HD
HETATM   19  H   UNL     1     -42.527  58.563 -58.644  1.00  0.00     0.125 HD
ENDBRANCH  13  17
ENDBRANCH   3   5
ENDBRANCH   2   3
ENDBRANCH   1   2
BRANCH   1  20
HETATM   20  C   UNL     1     -43.579  57.897 -53.803  1.00  0.00     0.196 A 
HETATM   21  N   UNL     1     -42.501  57.352 -53.129  1.00  0.00    -0.274 N 
HETATM   22  C   UNL     1     -42.636  55.977 -53.333  1.00  0.00     0.166 A 
HETATM   23  N   UNL     1     -43.694  55.756 -54.089  1.00  0.00    -0.131 NA
HETATM   24  N   UNL     1     -44.280  56.951 -54.382  1.00  0.00    -0.122 NA
BRANCH  21  25
HETATM   25  C   UNL     1     -41.509  58.021 -52.368  1.00  0.00     0.043 A 
HETATM   26  C   UNL     1     -41.723  58.261 -51.004  1.00  0.00     0.032 A 
HETATM   27  C   UNL     1     -40.743  58.906 -50.246  1.00  0.00     0.026 A 
HETATM   28  C   UNL     1     -39.557  59.314 -50.849  1.00  0.00     0.034 A 
HETATM   29 CL   UNL     1     -38.351  60.107 -49.916  1.00  0.00    -0.084 Cl
HETATM   30  C   UNL     1     -39.343  59.088 -52.209  1.00  0.00     0.026 A 
HETATM   31  C   UNL     1     -40.318  58.440 -52.974  1.00  0.00     0.032 A 
ENDBRANCH  21  25
BRANCH  22  32
HETATM   32  C   UNL     1     -41.800  54.899 -52.709  1.00  0.00     0.254 C 
HETATM   33  C   UNL     1     -42.646  53.892 -51.923  1.00  0.00     0.049 C 
BRANCH  32  34
HETATM   34  N   UNL     1     -40.896  54.117 -53.695  1.00  0.00    -0.068 N 
HETATM   35  H   UNL     1     -40.099  53.784 -53.141  1.00  0.00     0.279 HD
HETATM   36  C   UNL     1     -41.513  52.885 -54.311  1.00  0.00     0.270 C 
HETATM   37  C   UNL     1     -40.313  55.006 -54.765  1.00  0.00     0.270 C 
ENDBRANCH  32  34
ENDBRANCH  22  32
ENDBRANCH   1  20
TORSDOF 10
ENDMDL
