MODEL 1
REMARK VINA RESULT:      -8.2      0.000      0.000
REMARK  6 active torsions:
REMARK  status: ('A' for Active; 'I' for Inactive)
REMARK    1  A    between atoms: C_7  and  C_8 
REMARK    2  A    between atoms: N_9  and  N_10 
REMARK       I    between atoms: N_10  and  C_11 
REMARK    3  A    between atoms: C_11  and  C_12 
REMARK    4  A    between atoms: C_12  and  N_13 
REMARK    5  A    between atoms: N_13  and  C_14 
REMARK    6  A    between atoms: C_15  and  O_16 
ROOT
HETATM    1  N   UNL     1     -42.976  55.505 -54.800  1.00  0.00    -0.246 N 
HETATM    2  C   UNL     1     -43.718  56.615 -54.405  1.00  0.00     0.250 C 
HETATM    3  O   UNL     1     -44.089  56.857 -53.257  1.00  0.00    -0.270 OA
HETATM    4  H   UNL     1     -42.496  55.578 -55.697  1.00  0.00     0.192 HD
ENDROOT
BRANCH   1   5
HETATM    5  N   UNL     1     -42.523  54.512 -53.967  1.00  0.00    -0.184 NA
HETATM    6  C   UNL     1     -41.315  54.629 -53.510  1.00  0.00     0.153 C 
BRANCH   6   7
HETATM    7  C   UNL     1     -40.749  53.619 -52.635  1.00  0.00     0.018 A 
HETATM    8  C   UNL     1     -40.446  53.738 -51.285  1.00  0.00     0.018 A 
HETATM    9  C   UNL     1     -40.609  54.874 -50.340  1.00  0.00     0.069 C 
HETATM   10  N   UNL     1     -39.922  52.539 -50.868  1.00  0.00    -0.358 N 
HETATM   11  H   UNL     1     -39.613  52.336 -49.928  1.00  0.00     0.166 HD
HETATM   12  C   UNL     1     -39.874  51.640 -51.906  1.00  0.00     0.043 A 
HETATM   13  C   UNL     1     -40.392  52.284 -53.029  1.00  0.00     0.004 A 
HETATM   14  C   UNL     1     -39.415  50.317 -51.934  1.00  0.00     0.030 A 
HETATM   15  C   UNL     1     -40.454  51.566 -54.242  1.00  0.00     0.014 A 
HETATM   16  C   UNL     1     -39.997  50.244 -54.290  1.00  0.00     0.001 A 
HETATM   17  C   UNL     1     -39.485  49.631 -53.150  1.00  0.00     0.002 A 
ENDBRANCH   6   7
ENDBRANCH   1   5
BRANCH   2  18
HETATM   18  C   UNL     1     -44.023  57.568 -55.566  1.00  0.00     0.197 C 
BRANCH  18  19
HETATM   19  N   UNL     1     -44.300  56.823 -56.809  1.00  0.00    -0.282 NA
HETATM   20  H   UNL     1     -45.265  56.977 -57.126  1.00  0.00     0.128 HD
BRANCH  19  21
HETATM   21  C   UNL     1     -43.480  57.175 -57.911  1.00  0.00     0.042 A 
HETATM   22  C   UNL     1     -43.205  56.195 -58.891  1.00  0.00     0.089 A 
HETATM   23  C   UNL     1     -42.396  56.492 -59.990  1.00  0.00     0.038 A 
HETATM   24  C   UNL     1     -41.802  57.750 -60.092  1.00  0.00     0.003 A 
HETATM   25  C   UNL     1     -42.012  58.703 -59.097  1.00  0.00     0.002 A 
HETATM   26  C   UNL     1     -42.837  58.413 -58.007  1.00  0.00     0.026 A 
BRANCH  22  27
HETATM   27  O   UNL     1     -43.849  54.988 -58.732  1.00  0.00    -0.354 OA
HETATM   28  C   UNL     1     -44.643  54.602 -59.850  1.00  0.00     0.210 C 
ENDBRANCH  22  27
ENDBRANCH  19  21
ENDBRANCH  18  19
ENDBRANCH   2  18
TORSDOF 6
ENDMDL
MODEL 2
REMARK VINA RESULT:      -8.2      5.388      7.922
REMARK  6 active torsions:
REMARK  status: ('A' for Active; 'I' for Inactive)
REMARK    1  A    between atoms: C_7  and  C_8 
REMARK    2  A    between atoms: N_9  and  N_10 
REMARK       I    between atoms: N_10  and  C_11 
REMARK    3  A    between atoms: C_11  and  C_12 
REMARK    4  A    between atoms: C_12  and  N_13 
REMARK    5  A    between atoms: N_13  and  C_14 
REMARK    6  A    between atoms: C_15  and  O_16 
ROOT
HETATM    1  N   UNL     1     -43.160  57.702 -50.818  1.00  0.00    -0.246 N 
HETATM    2  C   UNL     1     -44.490  58.114 -50.832  1.00  0.00     0.250 C 
HETATM    3  O   UNL     1     -45.460  57.393 -51.062  1.00  0.00    -0.270 OA
HETATM    4  H   UNL     1     -42.503  58.314 -50.335  1.00  0.00     0.192 HD
ENDROOT
BRANCH   1   5
HETATM    5  N   UNL     1     -42.720  56.421 -51.040  1.00  0.00    -0.184 NA
HETATM    6  C   UNL     1     -41.519  56.132 -50.648  1.00  0.00     0.153 C 
BRANCH   6   7
HETATM    7  C   UNL     1     -40.966  54.805 -50.855  1.00  0.00     0.018 A 
HETATM    8  C   UNL     1     -40.520  53.911 -49.891  1.00  0.00     0.018 A 
HETATM    9  C   UNL     1     -40.478  54.009 -48.408  1.00  0.00     0.069 C 
HETATM   10  N   UNL     1     -40.073  52.787 -50.540  1.00  0.00    -0.358 N 
HETATM   11  H   UNL     1     -39.692  51.968 -50.087  1.00  0.00     0.166 HD
HETATM   12  C   UNL     1     -40.215  52.920 -51.900  1.00  0.00     0.043 A 
HETATM   13  C   UNL     1     -40.779  54.173 -52.131  1.00  0.00     0.004 A 
HETATM   14  C   UNL     1     -39.888  52.031 -52.933  1.00  0.00     0.030 A 
HETATM   15  C   UNL     1     -41.030  54.557 -53.466  1.00  0.00     0.014 A 
HETATM   16  C   UNL     1     -40.708  53.684 -54.511  1.00  0.00     0.001 A 
HETATM   17  C   UNL     1     -40.145  52.439 -54.245  1.00  0.00     0.002 A 
ENDBRANCH   6   7
ENDBRANCH   1   5
BRANCH   2  18
HETATM   18  C   UNL     1     -44.655  59.600 -50.493  1.00  0.00     0.197 C 
BRANCH  18  19
HETATM   19  N   UNL     1     -45.794  59.816 -49.582  1.00  0.00    -0.282 NA
HETATM   20  H   UNL     1     -46.078  58.938 -49.129  1.00  0.00     0.128 HD
BRANCH  19  21
HETATM   21  C   UNL     1     -45.547  60.725 -48.522  1.00  0.00     0.042 A 
HETATM   22  C   UNL     1     -45.975  60.381 -47.220  1.00  0.00     0.089 A 
HETATM   23  C   UNL     1     -45.761  61.249 -46.147  1.00  0.00     0.038 A 
HETATM   24  C   UNL     1     -45.174  62.494 -46.370  1.00  0.00     0.003 A 
HETATM   25  C   UNL     1     -44.809  62.872 -47.660  1.00  0.00     0.002 A 
HETATM   26  C   UNL     1     -45.004  61.997 -48.732  1.00  0.00     0.026 A 
BRANCH  22  27
HETATM   27  O   UNL     1     -46.521  59.125 -47.079  1.00  0.00    -0.354 OA
HETATM   28  C   UNL     1     -46.928  58.815 -45.749  1.00  0.00     0.210 C 
ENDBRANCH  22  27
ENDBRANCH  19  21
ENDBRANCH  18  19
ENDBRANCH   2  18
TORSDOF 6
ENDMDL
MODEL 3
REMARK VINA RESULT:      -8.0      2.542      3.218
REMARK  6 active torsions:
REMARK  status: ('A' for Active; 'I' for Inactive)
REMARK    1  A    between atoms: C_7  and  C_8 
REMARK    2  A    between atoms: N_9  and  N_10 
REMARK       I    between atoms: N_10  and  C_11 
REMARK    3  A    between atoms: C_11  and  C_12 
REMARK    4  A    between atoms: C_12  and  N_13 
REMARK    5  A    between atoms: N_13  and  C_14 
REMARK    6  A    between atoms: C_15  and  O_16 
ROOT
HETATM    1  N   UNL     1     -41.717  57.578 -53.156  1.00  0.00    -0.246 N 
HETATM    2  C   UNL     1     -41.172  58.831 -53.423  1.00  0.00     0.250 C 
HETATM    3  O   UNL     1     -40.004  59.160 -53.223  1.00  0.00    -0.270 OA
HETATM    4  H   UNL     1     -42.592  57.355 -53.631  1.00  0.00     0.192 HD
ENDROOT
BRANCH   1   5
HETATM    5  N   UNL     1     -41.033  56.503 -52.646  1.00  0.00    -0.184 NA
HETATM    6  C   UNL     1     -41.730  55.464 -52.309  1.00  0.00     0.153 C 
BRANCH   6   7
HETATM    7  C   UNL     1     -41.090  54.287 -51.747  1.00  0.00     0.018 A 
HETATM    8  C   UNL     1     -40.778  54.044 -50.416  1.00  0.00     0.018 A 
HETATM    9  C   UNL     1     -40.999  54.859 -49.193  1.00  0.00     0.069 C 
HETATM   10  N   UNL     1     -40.173  52.812 -50.348  1.00  0.00    -0.358 N 
HETATM   11  H   UNL     1     -39.840  52.375 -49.501  1.00  0.00     0.166 HD
HETATM   12  C   UNL     1     -40.082  52.244 -51.596  1.00  0.00     0.043 A 
HETATM   13  C   UNL     1     -40.655  53.141 -52.497  1.00  0.00     0.004 A 
HETATM   14  C   UNL     1     -39.541  51.014 -51.990  1.00  0.00     0.030 A 
HETATM   15  C   UNL     1     -40.687  52.788 -53.863  1.00  0.00     0.014 A 
HETATM   16  C   UNL     1     -40.149  51.564 -54.275  1.00  0.00     0.001 A 
HETATM   17  C   UNL     1     -39.584  50.692 -53.350  1.00  0.00     0.002 A 
ENDBRANCH   6   7
ENDBRANCH   1   5
BRANCH   2  18
HETATM   18  C   UNL     1     -42.186  59.800 -54.040  1.00  0.00     0.197 C 
BRANCH  18  19
HETATM   19  N   UNL     1     -41.718  60.303 -55.345  1.00  0.00    -0.282 NA
HETATM   20  H   UNL     1     -40.692  60.281 -55.404  1.00  0.00     0.128 HD
BRANCH  19  21
HETATM   21  C   UNL     1     -42.177  59.568 -56.468  1.00  0.00     0.042 A 
HETATM   22  C   UNL     1     -41.708  59.927 -57.751  1.00  0.00     0.089 A 
HETATM   23  C   UNL     1     -42.139  59.238 -58.887  1.00  0.00     0.038 A 
HETATM   24  C   UNL     1     -43.089  58.224 -58.762  1.00  0.00     0.003 A 
HETATM   25  C   UNL     1     -43.609  57.906 -57.509  1.00  0.00     0.002 A 
HETATM   26  C   UNL     1     -43.164  58.581 -56.369  1.00  0.00     0.026 A 
BRANCH  22  27
HETATM   27  O   UNL     1     -40.753  60.920 -57.786  1.00  0.00    -0.354 OA
HETATM   28  C   UNL     1     -41.120  62.049 -58.572  1.00  0.00     0.210 C 
ENDBRANCH  22  27
ENDBRANCH  19  21
ENDBRANCH  18  19
ENDBRANCH   2  18
TORSDOF 6
ENDMDL
MODEL 4
REMARK VINA RESULT:      -7.9      1.688      2.357
REMARK  6 active torsions:
REMARK  status: ('A' for Active; 'I' for Inactive)
REMARK    1  A    between atoms: C_7  and  C_8 
REMARK    2  A    between atoms: N_9  and  N_10 
REMARK       I    between atoms: N_10  and  C_11 
REMARK    3  A    between atoms: C_11  and  C_12 
REMARK    4  A    between atoms: C_12  and  N_13 
REMARK    5  A    between atoms: N_13  and  C_14 
REMARK    6  A    between atoms: C_15  and  O_16 
ROOT
HETATM    1  N   UNL     1     -41.481  55.856 -55.969  1.00  0.00    -0.246 N 
HETATM    2  C   UNL     1     -42.328  56.954 -55.838  1.00  0.00     0.250 C 
HETATM    3  O   UNL     1     -42.653  57.485 -54.777  1.00  0.00    -0.270 OA
HETATM    4  H   UNL     1     -41.072  55.708 -56.891  1.00  0.00     0.192 HD
ENDROOT
BRANCH   1   5
HETATM    5  N   UNL     1     -40.857  55.204 -54.935  1.00  0.00    -0.184 NA
HETATM    6  C   UNL     1     -41.504  54.230 -54.373  1.00  0.00     0.153 C 
BRANCH   6   7
HETATM    7  C   UNL     1     -40.926  53.495 -53.263  1.00  0.00     0.018 A 
HETATM    8  C   UNL     1     -40.711  53.943 -51.966  1.00  0.00     0.018 A 
HETATM    9  C   UNL     1     -41.003  55.251 -51.321  1.00  0.00     0.069 C 
HETATM   10  N   UNL     1     -40.136  52.917 -51.259  1.00  0.00    -0.358 N 
HETATM   11  H   UNL     1     -39.870  52.959 -50.286  1.00  0.00     0.166 HD
HETATM   12  C   UNL     1     -39.968  51.810 -52.056  1.00  0.00     0.043 A 
HETATM   13  C   UNL     1     -40.460  52.137 -53.319  1.00  0.00     0.004 A 
HETATM   14  C   UNL     1     -39.423  50.555 -51.755  1.00  0.00     0.030 A 
HETATM   15  C   UNL     1     -40.404  51.157 -54.333  1.00  0.00     0.014 A 
HETATM   16  C   UNL     1     -39.860  49.899 -54.051  1.00  0.00     0.001 A 
HETATM   17  C   UNL     1     -39.377  49.605 -52.780  1.00  0.00     0.002 A 
ENDBRANCH   6   7
ENDBRANCH   1   5
BRANCH   2  18
HETATM   18  C   UNL     1     -42.821  57.486 -57.188  1.00  0.00     0.197 C 
BRANCH  18  19
HETATM   19  N   UNL     1     -44.249  57.177 -57.394  1.00  0.00    -0.282 NA
HETATM   20  H   UNL     1     -44.818  58.032 -57.392  1.00  0.00     0.128 HD
BRANCH  19  21
HETATM   21  C   UNL     1     -44.549  56.527 -58.619  1.00  0.00     0.042 A 
HETATM   22  C   UNL     1     -45.708  56.916 -59.326  1.00  0.00     0.089 A 
HETATM   23  C   UNL     1     -46.048  56.299 -60.532  1.00  0.00     0.038 A 
HETATM   24  C   UNL     1     -45.271  55.246 -61.014  1.00  0.00     0.003 A 
HETATM   25  C   UNL     1     -44.163  54.809 -60.291  1.00  0.00     0.002 A 
HETATM   26  C   UNL     1     -43.810  55.439 -59.094  1.00  0.00     0.026 A 
BRANCH  22  27
HETATM   27  O   UNL     1     -46.407  57.979 -58.798  1.00  0.00    -0.354 OA
HETATM   28  C   UNL     1     -46.552  59.079 -59.690  1.00  0.00     0.210 C 
ENDBRANCH  22  27
ENDBRANCH  19  21
ENDBRANCH  18  19
ENDBRANCH   2  18
TORSDOF 6
ENDMDL
MODEL 5
REMARK VINA RESULT:      -7.9      1.338      2.051
REMARK  6 active torsions:
REMARK  status: ('A' for Active; 'I' for Inactive)
REMARK    1  A    between atoms: C_7  and  C_8 
REMARK    2  A    between atoms: N_9  and  N_10 
REMARK       I    between atoms: N_10  and  C_11 
REMARK    3  A    between atoms: C_11  and  C_12 
REMARK    4  A    between atoms: C_12  and  N_13 
REMARK    5  A    between atoms: N_13  and  C_14 
REMARK    6  A    between atoms: C_15  and  O_16 
ROOT
HETATM    1  N   UNL     1     -42.529  55.698 -54.859  1.00  0.00    -0.246 N 
HETATM    2  C   UNL     1     -42.516  57.087 -54.754  1.00  0.00     0.250 C 
HETATM    3  O   UNL     1     -42.245  57.725 -53.737  1.00  0.00    -0.270 OA
HETATM    4  H   UNL     1     -42.480  55.316 -55.803  1.00  0.00     0.192 HD
ENDROOT
BRANCH   1   5
HETATM    5  N   UNL     1     -42.222  54.820 -53.850  1.00  0.00    -0.184 NA
HETATM    6  C   UNL     1     -40.983  54.454 -53.741  1.00  0.00     0.153 C 
BRANCH   6   7
HETATM    7  C   UNL     1     -40.571  53.516 -52.711  1.00  0.00     0.018 A 
HETATM    8  C   UNL     1     -40.426  53.758 -51.352  1.00  0.00     0.018 A 
HETATM    9  C   UNL     1     -40.648  54.987 -50.546  1.00  0.00     0.069 C 
HETATM   10  N   UNL     1     -40.009  52.589 -50.763  1.00  0.00    -0.358 N 
HETATM   11  H   UNL     1     -39.824  52.470 -49.778  1.00  0.00     0.166 HD
HETATM   12  C   UNL     1     -39.879  51.591 -51.699  1.00  0.00     0.043 A 
HETATM   13  C   UNL     1     -40.230  52.138 -52.932  1.00  0.00     0.004 A 
HETATM   14  C   UNL     1     -39.480  50.257 -51.546  1.00  0.00     0.030 A 
HETATM   15  C   UNL     1     -40.180  51.306 -54.071  1.00  0.00     0.014 A 
HETATM   16  C   UNL     1     -39.781  49.972 -53.937  1.00  0.00     0.001 A 
HETATM   17  C   UNL     1     -39.436  49.457 -52.692  1.00  0.00     0.002 A 
ENDBRANCH   6   7
ENDBRANCH   1   5
BRANCH   2  18
HETATM   18  C   UNL     1     -42.854  57.785 -56.075  1.00  0.00     0.197 C 
BRANCH  18  19
HETATM   19  N   UNL     1     -42.041  57.251 -57.184  1.00  0.00    -0.282 NA
HETATM   20  H   UNL     1     -41.476  56.450 -56.876  1.00  0.00     0.128 HD
BRANCH  19  21
HETATM   21  C   UNL     1     -42.784  56.783 -58.298  1.00  0.00     0.042 A 
HETATM   22  C   UNL     1     -43.017  57.666 -59.375  1.00  0.00     0.089 A 
HETATM   23  C   UNL     1     -43.751  57.253 -60.490  1.00  0.00     0.038 A 
HETATM   24  C   UNL     1     -44.312  55.977 -60.515  1.00  0.00     0.003 A 
HETATM   25  C   UNL     1     -44.146  55.120 -59.428  1.00  0.00     0.002 A 
HETATM   26  C   UNL     1     -43.395  55.525 -58.321  1.00  0.00     0.026 A 
BRANCH  22  27
HETATM   27  O   UNL     1     -42.408  58.899 -59.286  1.00  0.00    -0.354 OA
HETATM   28  C   UNL     1     -42.105  59.488 -60.547  1.00  0.00     0.210 C 
ENDBRANCH  22  27
ENDBRANCH  19  21
ENDBRANCH  18  19
ENDBRANCH   2  18
TORSDOF 6
ENDMDL
MODEL 6
REMARK VINA RESULT:      -7.7      1.979      2.262
REMARK  6 active torsions:
REMARK  status: ('A' for Active; 'I' for Inactive)
REMARK    1  A    between atoms: C_7  and  C_8 
REMARK    2  A    between atoms: N_9  and  N_10 
REMARK       I    between atoms: N_10  and  C_11 
REMARK    3  A    between atoms: C_11  and  C_12 
REMARK    4  A    between atoms: C_12  and  N_13 
REMARK    5  A    between atoms: N_13  and  C_14 
REMARK    6  A    between atoms: C_15  and  O_16 
ROOT
HETATM    1  N   UNL     1     -41.968  57.698 -53.603  1.00  0.00    -0.246 N 
HETATM    2  C   UNL     1     -41.494  58.989 -53.818  1.00  0.00     0.250 C 
HETATM    3  O   UNL     1     -40.360  59.388 -53.555  1.00  0.00    -0.270 OA
HETATM    4  H   UNL     1     -42.803  57.430 -54.124  1.00  0.00     0.192 HD
ENDROOT
BRANCH   1   5
HETATM    5  N   UNL     1     -41.240  56.658 -53.080  1.00  0.00    -0.184 NA
HETATM    6  C   UNL     1     -41.902  55.707 -52.499  1.00  0.00     0.153 C 
BRANCH   6   7
HETATM    7  C   UNL     1     -41.212  54.575 -51.905  1.00  0.00     0.018 A 
HETATM    8  C   UNL     1     -40.875  54.390 -50.571  1.00  0.00     0.018 A 
HETATM    9  C   UNL     1     -41.113  55.238 -49.374  1.00  0.00     0.069 C 
HETATM   10  N   UNL     1     -40.225  53.185 -50.468  1.00  0.00    -0.358 N 
HETATM   11  H   UNL     1     -39.866  52.790 -49.611  1.00  0.00     0.166 HD
HETATM   12  C   UNL     1     -40.127  52.577 -51.697  1.00  0.00     0.043 A 
HETATM   13  C   UNL     1     -40.742  53.421 -52.620  1.00  0.00     0.004 A 
HETATM   14  C   UNL     1     -39.544  51.354 -52.055  1.00  0.00     0.030 A 
HETATM   15  C   UNL     1     -40.777  53.019 -53.973  1.00  0.00     0.014 A 
HETATM   16  C   UNL     1     -40.198  51.802 -54.350  1.00  0.00     0.001 A 
HETATM   17  C   UNL     1     -39.591  50.984 -53.403  1.00  0.00     0.002 A 
ENDBRANCH   6   7
ENDBRANCH   1   5
BRANCH   2  18
HETATM   18  C   UNL     1     -42.539  59.905 -54.466  1.00  0.00     0.197 C 
BRANCH  18  19
HETATM   19  N   UNL     1     -43.391  59.157 -55.410  1.00  0.00    -0.282 NA
HETATM   20  H   UNL     1     -44.355  59.512 -55.400  1.00  0.00     0.128 HD
BRANCH  19  21
HETATM   21  C   UNL     1     -42.978  59.220 -56.766  1.00  0.00     0.042 A 
HETATM   22  C   UNL     1     -42.461  58.054 -57.372  1.00  0.00     0.089 A 
HETATM   23  C   UNL     1     -42.035  58.071 -58.702  1.00  0.00     0.038 A 
HETATM   24  C   UNL     1     -42.062  59.265 -59.422  1.00  0.00     0.003 A 
HETATM   25  C   UNL     1     -42.507  60.437 -58.814  1.00  0.00     0.002 A 
HETATM   26  C   UNL     1     -42.953  60.417 -57.490  1.00  0.00     0.026 A 
BRANCH  22  27
HETATM   27  O   UNL     1     -42.491  56.912 -56.602  1.00  0.00    -0.354 OA
HETATM   28  C   UNL     1     -42.953  55.757 -57.296  1.00  0.00     0.210 C 
ENDBRANCH  22  27
ENDBRANCH  19  21
ENDBRANCH  18  19
ENDBRANCH   2  18
TORSDOF 6
ENDMDL
MODEL 7
REMARK VINA RESULT:      -7.6      4.292      5.478
REMARK  6 active torsions:
REMARK  status: ('A' for Active; 'I' for Inactive)
REMARK    1  A    between atoms: C_7  and  C_8 
REMARK    2  A    between atoms: N_9  and  N_10 
REMARK       I    between atoms: N_10  and  C_11 
REMARK    3  A    between atoms: C_11  and  C_12 
REMARK    4  A    between atoms: C_12  and  N_13 
REMARK    5  A    between atoms: N_13  and  C_14 
REMARK    6  A    between atoms: C_15  and  O_16 
ROOT
HETATM    1  N   UNL     1     -41.394  58.072 -50.384  1.00  0.00    -0.246 N 
HETATM    2  C   UNL     1     -40.875  59.309 -50.758  1.00  0.00     0.250 C 
HETATM    3  O   UNL     1     -39.778  59.496 -51.282  1.00  0.00    -0.270 OA
HETATM    4  H   UNL     1     -42.403  58.030 -50.240  1.00  0.00     0.192 HD
ENDROOT
BRANCH   1   5
HETATM    5  N   UNL     1     -40.773  56.860 -50.560  1.00  0.00    -0.184 NA
HETATM    6  C   UNL     1     -41.532  55.812 -50.633  1.00  0.00     0.153 C 
BRANCH   6   7
HETATM    7  C   UNL     1     -40.958  54.488 -50.805  1.00  0.00     0.018 A 
HETATM    8  C   UNL     1     -40.522  53.617 -49.815  1.00  0.00     0.018 A 
HETATM    9  C   UNL     1     -40.513  53.742 -48.334  1.00  0.00     0.069 C 
HETATM   10  N   UNL     1     -40.047  52.487 -50.435  1.00  0.00    -0.358 N 
HETATM   11  H   UNL     1     -39.665  51.682 -49.960  1.00  0.00     0.166 HD
HETATM   12  C   UNL     1     -40.161  52.595 -51.800  1.00  0.00     0.043 A 
HETATM   13  C   UNL     1     -40.736  53.837 -52.065  1.00  0.00     0.004 A 
HETATM   14  C   UNL     1     -39.802  51.693 -52.810  1.00  0.00     0.030 A 
HETATM   15  C   UNL     1     -40.963  54.194 -53.412  1.00  0.00     0.014 A 
HETATM   16  C   UNL     1     -40.608  53.307 -54.434  1.00  0.00     0.001 A 
HETATM   17  C   UNL     1     -40.035  52.074 -54.134  1.00  0.00     0.002 A 
ENDBRANCH   6   7
ENDBRANCH   1   5
BRANCH   2  18
HETATM   18  C   UNL     1     -41.839  60.466 -50.474  1.00  0.00     0.197 C 
BRANCH  18  19
HETATM   19  N   UNL     1     -43.204  59.972 -50.216  1.00  0.00    -0.282 NA
HETATM   20  H   UNL     1     -43.561  60.320 -49.318  1.00  0.00     0.128 HD
BRANCH  19  21
HETATM   21  C   UNL     1     -44.171  60.357 -51.180  1.00  0.00     0.042 A 
HETATM   22  C   UNL     1     -44.403  59.506 -52.284  1.00  0.00     0.089 A 
HETATM   23  C   UNL     1     -45.339  59.847 -53.263  1.00  0.00     0.038 A 
HETATM   24  C   UNL     1     -46.009  61.068 -53.185  1.00  0.00     0.003 A 
HETATM   25  C   UNL     1     -45.739  61.946 -52.136  1.00  0.00     0.002 A 
HETATM   26  C   UNL     1     -44.817  61.597 -51.145  1.00  0.00     0.026 A 
BRANCH  22  27
HETATM   27  O   UNL     1     -43.722  58.309 -52.274  1.00  0.00    -0.354 OA
HETATM   28  C   UNL     1     -44.438  57.230 -52.866  1.00  0.00     0.210 C 
ENDBRANCH  22  27
ENDBRANCH  19  21
ENDBRANCH  18  19
ENDBRANCH   2  18
TORSDOF 6
ENDMDL
MODEL 8
REMARK VINA RESULT:      -7.6      1.762      2.063
REMARK  6 active torsions:
REMARK  status: ('A' for Active; 'I' for Inactive)
REMARK    1  A    between atoms: C_7  and  C_8 
REMARK    2  A    between atoms: N_9  and  N_10 
REMARK       I    between atoms: N_10  and  C_11 
REMARK    3  A    between atoms: C_11  and  C_12 
REMARK    4  A    between atoms: C_12  and  N_13 
REMARK    5  A    between atoms: N_13  and  C_14 
REMARK    6  A    between atoms: C_15  and  O_16 
ROOT
HETATM    1  N   UNL     1     -44.225  55.831 -54.431  1.00  0.00    -0.246 N 
HETATM    2  C   UNL     1     -44.728  57.094 -54.127  1.00  0.00     0.250 C 
HETATM    3  O   UNL     1     -44.628  57.662 -53.041  1.00  0.00    -0.270 OA
HETATM    4  H   UNL     1     -44.119  55.613 -55.421  1.00  0.00     0.192 HD
ENDROOT
BRANCH   1   5
HETATM    5  N   UNL     1     -43.520  55.027 -53.571  1.00  0.00    -0.184 NA
HETATM    6  C   UNL     1     -42.226  55.093 -53.626  1.00  0.00     0.153 C 
BRANCH   6   7
HETATM    7  C   UNL     1     -41.400  54.266 -52.763  1.00  0.00     0.018 A 
HETATM    8  C   UNL     1     -40.991  54.539 -51.465  1.00  0.00     0.018 A 
HETATM    9  C   UNL     1     -41.262  55.699 -50.575  1.00  0.00     0.069 C 
HETATM   10  N   UNL     1     -40.218  53.486 -51.041  1.00  0.00    -0.358 N 
HETATM   11  H   UNL     1     -39.785  53.413 -50.132  1.00  0.00     0.166 HD
HETATM   12  C   UNL     1     -40.111  52.533 -52.025  1.00  0.00     0.043 A 
HETATM   13  C   UNL     1     -40.847  52.989 -53.117  1.00  0.00     0.004 A 
HETATM   14  C   UNL     1     -39.423  51.312 -52.028  1.00  0.00     0.030 A 
HETATM   15  C   UNL     1     -40.899  52.181 -54.273  1.00  0.00     0.014 A 
HETATM   16  C   UNL     1     -40.215  50.959 -54.296  1.00  0.00     0.001 A 
HETATM   17  C   UNL     1     -39.489  50.534 -53.188  1.00  0.00     0.002 A 
ENDBRANCH   6   7
ENDBRANCH   1   5
BRANCH   2  18
HETATM   18  C   UNL     1     -45.422  57.759 -55.322  1.00  0.00     0.197 C 
BRANCH  18  19
HETATM   19  N   UNL     1     -44.560  57.736 -56.519  1.00  0.00    -0.282 NA
HETATM   20  H   UNL     1     -44.003  56.874 -56.558  1.00  0.00     0.128 HD
BRANCH  19  21
HETATM   21  C   UNL     1     -45.254  57.795 -57.755  1.00  0.00     0.042 A 
HETATM   22  C   UNL     1     -44.560  57.454 -58.937  1.00  0.00     0.089 A 
HETATM   23  C   UNL     1     -45.199  57.504 -60.178  1.00  0.00     0.038 A 
HETATM   24  C   UNL     1     -46.517  57.955 -60.261  1.00  0.00     0.003 A 
HETATM   25  C   UNL     1     -47.189  58.358 -59.109  1.00  0.00     0.002 A 
HETATM   26  C   UNL     1     -46.558  58.288 -57.863  1.00  0.00     0.026 A 
BRANCH  22  27
HETATM   27  O   UNL     1     -43.273  56.995 -58.769  1.00  0.00    -0.354 OA
HETATM   28  C   UNL     1     -42.912  55.940 -59.655  1.00  0.00     0.210 C 
ENDBRANCH  22  27
ENDBRANCH  19  21
ENDBRANCH  18  19
ENDBRANCH   2  18
TORSDOF 6
ENDMDL
MODEL 9
REMARK VINA RESULT:      -7.6      2.219      3.758
REMARK  6 active torsions:
REMARK  status: ('A' for Active; 'I' for Inactive)
REMARK    1  A    between atoms: C_7  and  C_8 
REMARK    2  A    between atoms: N_9  and  N_10 
REMARK       I    between atoms: N_10  and  C_11 
REMARK    3  A    between atoms: C_11  and  C_12 
REMARK    4  A    between atoms: C_12  and  N_13 
REMARK    5  A    between atoms: N_13  and  C_14 
REMARK    6  A    between atoms: C_15  and  O_16 
ROOT
HETATM    1  N   UNL     1     -42.778  55.973 -54.399  1.00  0.00    -0.246 N 
HETATM    2  C   UNL     1     -42.869  55.958 -55.789  1.00  0.00     0.250 C 
HETATM    3  O   UNL     1     -42.594  55.003 -56.514  1.00  0.00    -0.270 OA
HETATM    4  H   UNL     1     -43.304  56.704 -53.920  1.00  0.00     0.192 HD
ENDROOT
BRANCH   1   5
HETATM    5  N   UNL     1     -42.387  54.916 -53.615  1.00  0.00    -0.184 NA
HETATM    6  C   UNL     1     -41.136  54.860 -53.280  1.00  0.00     0.153 C 
BRANCH   6   7
HETATM    7  C   UNL     1     -40.631  53.770 -52.464  1.00  0.00     0.018 A 
HETATM    8  C   UNL     1     -40.335  53.791 -51.107  1.00  0.00     0.018 A 
HETATM    9  C   UNL     1     -40.448  54.875 -50.096  1.00  0.00     0.069 C 
HETATM   10  N   UNL     1     -39.878  52.543 -50.761  1.00  0.00    -0.358 N 
HETATM   11  H   UNL     1     -39.589  52.267 -49.834  1.00  0.00     0.166 HD
HETATM   12  C   UNL     1     -39.867  51.708 -51.852  1.00  0.00     0.043 A 
HETATM   13  C   UNL     1     -40.340  52.445 -52.936  1.00  0.00     0.004 A 
HETATM   14  C   UNL     1     -39.477  50.366 -51.958  1.00  0.00     0.030 A 
HETATM   15  C   UNL     1     -40.428  51.806 -54.192  1.00  0.00     0.014 A 
HETATM   16  C   UNL     1     -40.040  50.468 -54.317  1.00  0.00     0.001 A 
HETATM   17  C   UNL     1     -39.572  49.760 -53.214  1.00  0.00     0.002 A 
ENDBRANCH   6   7
ENDBRANCH   1   5
BRANCH   2  18
HETATM   18  C   UNL     1     -43.389  57.280 -56.363  1.00  0.00     0.197 C 
BRANCH  18  19
HETATM   19  N   UNL     1     -42.340  58.317 -56.351  1.00  0.00    -0.282 NA
HETATM   20  H   UNL     1     -42.184  58.697 -57.293  1.00  0.00     0.128 HD
BRANCH  19  21
HETATM   21  C   UNL     1     -42.620  59.441 -55.532  1.00  0.00     0.042 A 
HETATM   22  C   UNL     1     -41.984  59.537 -54.274  1.00  0.00     0.089 A 
HETATM   23  C   UNL     1     -42.235  60.621 -53.430  1.00  0.00     0.038 A 
HETATM   24  C   UNL     1     -43.168  61.588 -53.803  1.00  0.00     0.003 A 
HETATM   25  C   UNL     1     -43.851  61.468 -55.012  1.00  0.00     0.002 A 
HETATM   26  C   UNL     1     -43.587  60.394 -55.867  1.00  0.00     0.026 A 
BRANCH  22  27
HETATM   27  O   UNL     1     -41.058  58.557 -53.991  1.00  0.00    -0.354 OA
HETATM   28  C   UNL     1     -40.652  58.520 -52.627  1.00  0.00     0.210 C 
ENDBRANCH  22  27
ENDBRANCH  19  21
ENDBRANCH  18  19
ENDBRANCH   2  18
TORSDOF 6
ENDMDL
MODEL 10
REMARK VINA RESULT:      -7.4      4.801      6.871
REMARK  6 active torsions:
REMARK  status: ('A' for Active; 'I' for Inactive)
REMARK    1  A    between atoms: C_7  and  C_8 
REMARK    2  A    between atoms: N_9  and  N_10 
REMARK       I    between atoms: N_10  and  C_11 
REMARK    3  A    between atoms: C_11  and  C_12 
REMARK    4  A    between atoms: C_12  and  N_13 
REMARK    5  A    between atoms: N_13  and  C_14 
REMARK    6  A    between atoms: C_15  and  O_16 
ROOT
HETATM    1  N   UNL     1     -41.458  58.093 -50.385  1.00  0.00    -0.246 N 
HETATM    2  C   UNL     1     -41.009  59.300 -50.915  1.00  0.00     0.250 C 
HETATM    3  O   UNL     1     -39.965  59.460 -51.546  1.00  0.00    -0.270 OA
HETATM    4  H   UNL     1     -42.450  58.043 -50.152  1.00  0.00     0.192 HD
ENDROOT
BRANCH   1   5
HETATM    5  N   UNL     1     -40.817  56.885 -50.500  1.00  0.00    -0.184 NA
HETATM    6  C   UNL     1     -41.555  55.845 -50.736  1.00  0.00     0.153 C 
BRANCH   6   7
HETATM    7  C   UNL     1     -40.962  54.524 -50.858  1.00  0.00     0.018 A 
HETATM    8  C   UNL     1     -40.522  53.693 -49.836  1.00  0.00     0.018 A 
HETATM    9  C   UNL     1     -40.527  53.868 -48.360  1.00  0.00     0.069 C 
HETATM   10  N   UNL     1     -40.027  52.549 -50.413  1.00  0.00    -0.358 N 
HETATM   11  H   UNL     1     -39.639  51.766 -49.908  1.00  0.00     0.166 HD
HETATM   12  C   UNL     1     -40.131  52.609 -51.782  1.00  0.00     0.043 A 
HETATM   13  C   UNL     1     -40.720  53.833 -52.094  1.00  0.00     0.004 A 
HETATM   14  C   UNL     1     -39.752  51.678 -52.758  1.00  0.00     0.030 A 
HETATM   15  C   UNL     1     -40.942  54.142 -53.453  1.00  0.00     0.014 A 
HETATM   16  C   UNL     1     -40.566  53.225 -54.442  1.00  0.00     0.001 A 
HETATM   17  C   UNL     1     -39.980  52.012 -54.096  1.00  0.00     0.002 A 
ENDBRANCH   6   7
ENDBRANCH   1   5
BRANCH   2  18
HETATM   18  C   UNL     1     -41.980  60.458 -50.660  1.00  0.00     0.197 C 
BRANCH  18  19
HETATM   19  N   UNL     1     -43.233  59.978 -50.048  1.00  0.00    -0.282 NA
HETATM   20  H   UNL     1     -43.229  60.124 -49.031  1.00  0.00     0.128 HD
BRANCH  19  21
HETATM   21  C   UNL     1     -44.410  60.617 -50.517  1.00  0.00     0.042 A 
HETATM   22  C   UNL     1     -45.097  61.492 -49.647  1.00  0.00     0.089 A 
HETATM   23  C   UNL     1     -46.264  62.138 -50.061  1.00  0.00     0.038 A 
HETATM   24  C   UNL     1     -46.793  61.870 -51.324  1.00  0.00     0.003 A 
HETATM   25  C   UNL     1     -46.160  60.957 -52.165  1.00  0.00     0.002 A 
HETATM   26  C   UNL     1     -44.980  60.326 -51.760  1.00  0.00     0.026 A 
BRANCH  22  27
HETATM   27  O   UNL     1     -44.498  61.723 -48.428  1.00  0.00    -0.354 OA
HETATM   28  C   UNL     1     -45.101  62.769 -47.674  1.00  0.00     0.210 C 
ENDBRANCH  22  27
ENDBRANCH  19  21
ENDBRANCH  18  19
ENDBRANCH   2  18
TORSDOF 6
ENDMDL
