MODEL 1
REMARK VINA RESULT:      -9.2      0.000      0.000
REMARK  9 active torsions:
REMARK  status: ('A' for Active; 'I' for Inactive)
REMARK       I    between atoms: C_2  and  N_3 
REMARK    1  A    between atoms: N_3  and  C_4 
REMARK    2  A    between atoms: C_7  and  O_8 
REMARK    3  A    between atoms: O_8  and  C_9 
REMARK    4  A    between atoms: C_9  and  C_10 
REMARK    5  A    between atoms: C_11  and  O_12 
REMARK    6  A    between atoms: C_16  and  C_17 
REMARK    7  A    between atoms: C_31  and  O_32 
REMARK    8  A    between atoms: O_32  and  C_33 
REMARK    9  A    between atoms: C_33  and  C_34 
ROOT
HETATM    1  C   UNL     1     -43.335  59.277 -51.314  1.00  0.00     0.269 C 
HETATM    2  N   UNL     1     -42.210  59.454 -50.320  1.00  0.00    -0.061 N 
HETATM    3  H   UNL     1     -42.418  58.854 -49.516  1.00  0.00     0.278 HD
HETATM    4  H   UNL     1     -42.219  60.425 -49.991  1.00  0.00     0.278 HD
HETATM    5  C   UNL     1     -40.837  59.103 -50.844  1.00  0.00     0.238 C 
HETATM    6  C   UNL     1     -40.760  57.622 -51.256  1.00  0.00     0.069 C 
HETATM    7  C   UNL     1     -41.970  57.229 -52.032  1.00  0.00    -0.019 A 
HETATM    8  C   UNL     1     -43.126  57.987 -52.028  1.00  0.00     0.052 A 
HETATM    9  N   UNL     1     -44.053  57.354 -52.816  1.00  0.00    -0.356 N 
HETATM   10  H   UNL     1     -44.991  57.674 -53.026  1.00  0.00     0.166 HD
HETATM   11  C   UNL     1     -43.506  56.200 -53.334  1.00  0.00     0.043 A 
HETATM   12  C   UNL     1     -42.192  56.105 -52.871  1.00  0.00     0.002 A 
HETATM   13  C   UNL     1     -44.077  55.242 -54.177  1.00  0.00     0.033 A 
HETATM   14  C   UNL     1     -43.268  54.175 -54.579  1.00  0.00     0.039 A 
HETATM   15  C   UNL     1     -41.940  54.072 -54.168  1.00  0.00     0.070 A 
HETATM   16  C   UNL     1     -41.399  55.015 -53.287  1.00  0.00     0.051 A 
ENDROOT
BRANCH   1  17
HETATM   17  C   UNL     1     -43.467  60.500 -52.204  1.00  0.00    -0.021 A 
HETATM   18  C   UNL     1     -43.861  61.723 -51.637  1.00  0.00     0.012 A 
HETATM   19  C   UNL     1     -43.915  62.889 -52.410  1.00  0.00     0.038 A 
HETATM   20  C   UNL     1     -43.576  62.864 -53.764  1.00  0.00     0.076 A 
HETATM   21  C   UNL     1     -43.200  61.648 -54.361  1.00  0.00    -0.000 A 
HETATM   22  C   UNL     1     -43.136  60.483 -53.569  1.00  0.00     0.021 A 
BRANCH  20  23
HETATM   23  O   UNL     1     -43.557  63.963 -54.579  1.00  0.00    -0.355 OA
HETATM   24  C   UNL     1     -44.803  64.519 -54.979  1.00  0.00     0.210 C 
ENDBRANCH  20  23
BRANCH  21  25
HETATM   25  C   UNL     1     -42.791  61.590 -55.823  1.00  0.00     0.217 C 
BRANCH  25  26
HETATM   26  O   UNL     1     -41.873  60.507 -56.024  1.00  0.00    -0.347 OA
BRANCH  26  27
HETATM   27  C   UNL     1     -42.407  59.374 -56.575  1.00  0.00     0.069 A 
HETATM   28  C   UNL     1     -43.389  59.585 -57.543  1.00  0.00     0.039 A 
HETATM   29  C   UNL     1     -44.004  58.501 -58.181  1.00  0.00     0.032 A 
HETATM   30  C   UNL     1     -43.657  57.187 -57.849  1.00  0.00     0.034 A 
HETATM   31  C   UNL     1     -42.686  56.981 -56.867  1.00  0.00     0.032 A 
HETATM   32  C   UNL     1     -42.066  58.067 -56.234  1.00  0.00     0.039 A 
BRANCH  30  33
HETATM   33  N   UNL     1     -44.315  56.146 -58.535  1.00  0.00    -0.328 N 
HETATM   34  C   UNL     1     -44.042  55.672 -59.807  1.00  0.00     0.218 C 
HETATM   35  C   UNL     1     -44.975  54.557 -60.208  1.00  0.00     0.117 C 
HETATM   36  O   UNL     1     -43.173  56.074 -60.572  1.00  0.00    -0.274 OA
HETATM   37  H   UNL     1     -45.078  55.698 -58.041  1.00  0.00     0.169 HD
ENDBRANCH  30  33
ENDBRANCH  26  27
ENDBRANCH  25  26
ENDBRANCH  21  25
ENDBRANCH   1  17
BRANCH  15  38
HETATM   38  O   UNL     1     -41.262  52.996 -54.673  1.00  0.00    -0.347 OA
BRANCH  38  39
HETATM   39  C   UNL     1     -39.916  52.832 -54.217  1.00  0.00     0.214 C 
BRANCH  39  40
HETATM   40  C   UNL     1     -39.866  51.742 -53.173  1.00  0.00    -0.034 A 
HETATM   41  C   UNL     1     -39.712  50.399 -53.552  1.00  0.00     0.009 A 
HETATM   42  C   UNL     1     -39.611  49.396 -52.587  1.00  0.00     0.001 A 
HETATM   43  C   UNL     1     -39.653  49.724 -51.234  1.00  0.00     0.000 A 
HETATM   44  C   UNL     1     -39.794  51.054 -50.845  1.00  0.00     0.001 A 
HETATM   45  C   UNL     1     -39.897  52.060 -51.808  1.00  0.00     0.009 A 
ENDBRANCH  39  40
ENDBRANCH  38  39
ENDBRANCH  15  38
TORSDOF 9
ENDMDL
MODEL 2
REMARK VINA RESULT:      -9.2      1.575      1.798
REMARK  9 active torsions:
REMARK  status: ('A' for Active; 'I' for Inactive)
REMARK       I    between atoms: C_2  and  N_3 
REMARK    1  A    between atoms: N_3  and  C_4 
REMARK    2  A    between atoms: C_7  and  O_8 
REMARK    3  A    between atoms: O_8  and  C_9 
REMARK    4  A    between atoms: C_9  and  C_10 
REMARK    5  A    between atoms: C_11  and  O_12 
REMARK    6  A    between atoms: C_16  and  C_17 
REMARK    7  A    between atoms: C_31  and  O_32 
REMARK    8  A    between atoms: O_32  and  C_33 
REMARK    9  A    between atoms: C_33  and  C_34 
ROOT
HETATM    1  C   UNL     1     -44.902  59.058 -51.329  1.00  0.00     0.269 C 
HETATM    2  N   UNL     1     -44.025  59.752 -50.313  1.00  0.00    -0.061 N 
HETATM    3  H   UNL     1     -43.989  59.153 -49.482  1.00  0.00     0.278 HD
HETATM    4  H   UNL     1     -44.477  60.631 -50.041  1.00  0.00     0.278 HD
HETATM    5  C   UNL     1     -42.611  60.024 -50.774  1.00  0.00     0.238 C 
HETATM    6  C   UNL     1     -41.869  58.715 -51.097  1.00  0.00     0.069 C 
HETATM    7  C   UNL     1     -42.740  57.798 -51.885  1.00  0.00    -0.019 A 
HETATM    8  C   UNL     1     -44.110  57.966 -51.960  1.00  0.00     0.052 A 
HETATM    9  N   UNL     1     -44.621  56.959 -52.738  1.00  0.00    -0.356 N 
HETATM   10  H   UNL     1     -45.591  56.823 -52.995  1.00  0.00     0.166 HD
HETATM   11  C   UNL     1     -43.595  56.147 -53.172  1.00  0.00     0.043 A 
HETATM   12  C   UNL     1     -42.400  56.661 -52.665  1.00  0.00     0.002 A 
HETATM   13  C   UNL     1     -43.641  55.004 -53.974  1.00  0.00     0.033 A 
HETATM   14  C   UNL     1     -42.425  54.390 -54.290  1.00  0.00     0.039 A 
HETATM   15  C   UNL     1     -41.211  54.900 -53.833  1.00  0.00     0.070 A 
HETATM   16  C   UNL     1     -41.188  56.019 -52.992  1.00  0.00     0.051 A 
ENDROOT
BRANCH   1  17
HETATM   17  C   UNL     1     -45.513  60.061 -52.291  1.00  0.00    -0.021 A 
HETATM   18  C   UNL     1     -46.670  60.760 -51.913  1.00  0.00     0.012 A 
HETATM   19  C   UNL     1     -47.214  61.751 -52.739  1.00  0.00     0.038 A 
HETATM   20  C   UNL     1     -46.616  62.068 -53.960  1.00  0.00     0.076 A 
HETATM   21  C   UNL     1     -45.469  61.367 -54.373  1.00  0.00    -0.000 A 
HETATM   22  C   UNL     1     -44.923  60.382 -53.526  1.00  0.00     0.021 A 
BRANCH  20  23
HETATM   23  O   UNL     1     -47.053  63.052 -54.805  1.00  0.00    -0.355 OA
HETATM   24  C   UNL     1     -47.911  64.054 -54.275  1.00  0.00     0.210 C 
ENDBRANCH  20  23
BRANCH  21  25
HETATM   25  C   UNL     1     -44.772  61.710 -55.679  1.00  0.00     0.217 C 
BRANCH  25  26
HETATM   26  O   UNL     1     -43.636  60.854 -55.857  1.00  0.00    -0.347 OA
BRANCH  26  27
HETATM   27  C   UNL     1     -43.871  59.697 -56.550  1.00  0.00     0.069 A 
HETATM   28  C   UNL     1     -44.746  59.813 -57.631  1.00  0.00     0.039 A 
HETATM   29  C   UNL     1     -45.058  58.697 -58.417  1.00  0.00     0.032 A 
HETATM   30  C   UNL     1     -44.511  57.443 -58.125  1.00  0.00     0.034 A 
HETATM   31  C   UNL     1     -43.651  57.329 -57.032  1.00  0.00     0.032 A 
HETATM   32  C   UNL     1     -43.333  58.447 -56.250  1.00  0.00     0.039 A 
BRANCH  30  33
HETATM   33  N   UNL     1     -44.868  56.366 -58.961  1.00  0.00    -0.328 N 
HETATM   34  C   UNL     1     -44.146  55.853 -60.025  1.00  0.00     0.218 C 
HETATM   35  C   UNL     1     -44.861  54.707 -60.695  1.00  0.00     0.117 C 
HETATM   36  O   UNL     1     -43.058  56.243 -60.434  1.00  0.00    -0.274 OA
HETATM   37  H   UNL     1     -45.756  55.922 -58.763  1.00  0.00     0.169 HD
ENDBRANCH  30  33
ENDBRANCH  26  27
ENDBRANCH  25  26
ENDBRANCH  21  25
ENDBRANCH   1  17
BRANCH  15  38
HETATM   38  O   UNL     1     -40.103  54.216 -54.254  1.00  0.00    -0.347 OA
BRANCH  38  39
HETATM   39  C   UNL     1     -40.338  52.915 -54.799  1.00  0.00     0.214 C 
BRANCH  39  40
HETATM   40  C   UNL     1     -40.007  51.867 -53.765  1.00  0.00    -0.034 A 
HETATM   41  C   UNL     1     -39.912  52.210 -52.407  1.00  0.00     0.009 A 
HETATM   42  C   UNL     1     -39.659  51.233 -51.443  1.00  0.00     0.001 A 
HETATM   43  C   UNL     1     -39.508  49.902 -51.823  1.00  0.00     0.000 A 
HETATM   44  C   UNL     1     -39.611  49.546 -53.166  1.00  0.00     0.001 A 
HETATM   45  C   UNL     1     -39.862  50.522 -54.133  1.00  0.00     0.009 A 
ENDBRANCH  39  40
ENDBRANCH  38  39
ENDBRANCH  15  38
TORSDOF 9
ENDMDL
MODEL 3
REMARK VINA RESULT:      -8.6      2.372      2.989
REMARK  9 active torsions:
REMARK  status: ('A' for Active; 'I' for Inactive)
REMARK       I    between atoms: C_2  and  N_3 
REMARK    1  A    between atoms: N_3  and  C_4 
REMARK    2  A    between atoms: C_7  and  O_8 
REMARK    3  A    between atoms: O_8  and  C_9 
REMARK    4  A    between atoms: C_9  and  C_10 
REMARK    5  A    between atoms: C_11  and  O_12 
REMARK    6  A    between atoms: C_16  and  C_17 
REMARK    7  A    between atoms: C_31  and  O_32 
REMARK    8  A    between atoms: O_32  and  C_33 
REMARK    9  A    between atoms: C_33  and  C_34 
ROOT
HETATM    1  C   UNL     1     -44.653  60.213 -50.581  1.00  0.00     0.269 C 
HETATM    2  N   UNL     1     -43.601  61.218 -50.174  1.00  0.00    -0.061 N 
HETATM    3  H   UNL     1     -43.375  61.041 -49.190  1.00  0.00     0.278 HD
HETATM    4  H   UNL     1     -44.010  62.156 -50.232  1.00  0.00     0.278 HD
HETATM    5  C   UNL     1     -42.324  61.165 -50.980  1.00  0.00     0.238 C 
HETATM    6  C   UNL     1     -41.631  59.798 -50.836  1.00  0.00     0.069 C 
HETATM    7  C   UNL     1     -42.623  58.692 -50.946  1.00  0.00    -0.019 A 
HETATM    8  C   UNL     1     -43.982  58.904 -50.811  1.00  0.00     0.052 A 
HETATM    9  N   UNL     1     -44.617  57.696 -50.945  1.00  0.00    -0.356 N 
HETATM   10  H   UNL     1     -45.616  57.529 -50.915  1.00  0.00     0.166 HD
HETATM   11  C   UNL     1     -43.684  56.707 -51.173  1.00  0.00     0.043 A 
HETATM   12  C   UNL     1     -42.423  57.308 -51.196  1.00  0.00     0.002 A 
HETATM   13  C   UNL     1     -43.867  55.335 -51.362  1.00  0.00     0.033 A 
HETATM   14  C   UNL     1     -42.728  54.563 -51.612  1.00  0.00     0.039 A 
HETATM   15  C   UNL     1     -41.459  55.137 -51.681  1.00  0.00     0.070 A 
HETATM   16  C   UNL     1     -41.290  56.505 -51.442  1.00  0.00     0.051 A 
ENDROOT
BRANCH   1  17
HETATM   17  C   UNL     1     -45.480  60.736 -51.742  1.00  0.00    -0.021 A 
HETATM   18  C   UNL     1     -46.620  61.512 -51.481  1.00  0.00     0.012 A 
HETATM   19  C   UNL     1     -47.359  62.079 -52.526  1.00  0.00     0.038 A 
HETATM   20  C   UNL     1     -46.978  61.886 -53.855  1.00  0.00     0.076 A 
HETATM   21  C   UNL     1     -45.854  61.094 -54.145  1.00  0.00    -0.000 A 
HETATM   22  C   UNL     1     -45.109  60.540 -53.083  1.00  0.00     0.021 A 
BRANCH  20  23
HETATM   23  O   UNL     1     -47.615  62.440 -54.932  1.00  0.00    -0.355 OA
HETATM   24  C   UNL     1     -47.905  63.832 -54.892  1.00  0.00     0.210 C 
ENDBRANCH  20  23
BRANCH  21  25
HETATM   25  C   UNL     1     -45.390  60.891 -55.577  1.00  0.00     0.217 C 
BRANCH  25  26
HETATM   26  O   UNL     1     -45.735  59.570 -56.014  1.00  0.00    -0.347 OA
BRANCH  26  27
HETATM   27  C   UNL     1     -44.766  58.619 -55.841  1.00  0.00     0.069 A 
HETATM   28  C   UNL     1     -43.644  58.750 -56.660  1.00  0.00     0.039 A 
HETATM   29  C   UNL     1     -42.585  57.839 -56.570  1.00  0.00     0.032 A 
HETATM   30  C   UNL     1     -42.639  56.771 -55.667  1.00  0.00     0.034 A 
HETATM   31  C   UNL     1     -43.771  56.634 -54.862  1.00  0.00     0.032 A 
HETATM   32  C   UNL     1     -44.827  57.551 -54.948  1.00  0.00     0.039 A 
BRANCH  30  33
HETATM   33  N   UNL     1     -41.535  55.895 -55.628  1.00  0.00    -0.328 N 
HETATM   34  C   UNL     1     -41.547  54.540 -55.344  1.00  0.00     0.218 C 
HETATM   35  C   UNL     1     -40.163  53.942 -55.380  1.00  0.00     0.117 C 
HETATM   36  O   UNL     1     -42.525  53.852 -55.074  1.00  0.00    -0.274 OA
HETATM   37  H   UNL     1     -40.631  56.306 -55.826  1.00  0.00     0.169 HD
ENDBRANCH  30  33
ENDBRANCH  26  27
ENDBRANCH  25  26
ENDBRANCH  21  25
ENDBRANCH   1  17
BRANCH  15  38
HETATM   38  O   UNL     1     -40.446  54.263 -51.970  1.00  0.00    -0.347 OA
BRANCH  38  39
HETATM   39  C   UNL     1     -40.058  53.379 -50.914  1.00  0.00     0.214 C 
BRANCH  39  40
HETATM   40  C   UNL     1     -39.943  51.973 -51.450  1.00  0.00    -0.034 A 
HETATM   41  C   UNL     1     -39.786  51.745 -52.826  1.00  0.00     0.009 A 
HETATM   42  C   UNL     1     -39.624  50.448 -53.318  1.00  0.00     0.001 A 
HETATM   43  C   UNL     1     -39.609  49.367 -52.439  1.00  0.00     0.000 A 
HETATM   44  C   UNL     1     -39.753  49.581 -51.070  1.00  0.00     0.001 A 
HETATM   45  C   UNL     1     -39.916  50.877 -50.575  1.00  0.00     0.009 A 
ENDBRANCH  39  40
ENDBRANCH  38  39
ENDBRANCH  15  38
TORSDOF 9
ENDMDL
MODEL 4
REMARK VINA RESULT:      -8.6      1.891      2.205
REMARK  9 active torsions:
REMARK  status: ('A' for Active; 'I' for Inactive)
REMARK       I    between atoms: C_2  and  N_3 
REMARK    1  A    between atoms: N_3  and  C_4 
REMARK    2  A    between atoms: C_7  and  O_8 
REMARK    3  A    between atoms: O_8  and  C_9 
REMARK    4  A    between atoms: C_9  and  C_10 
REMARK    5  A    between atoms: C_11  and  O_12 
REMARK    6  A    between atoms: C_16  and  C_17 
REMARK    7  A    between atoms: C_31  and  O_32 
REMARK    8  A    between atoms: O_32  and  C_33 
REMARK    9  A    between atoms: C_33  and  C_34 
ROOT
HETATM    1  C   UNL     1     -43.710  59.842 -51.135  1.00  0.00     0.269 C 
HETATM    2  N   UNL     1     -42.581  60.699 -50.610  1.00  0.00    -0.061 N 
HETATM    3  H   UNL     1     -42.645  60.694 -49.588  1.00  0.00     0.278 HD
HETATM    4  H   UNL     1     -42.733  61.663 -50.925  1.00  0.00     0.278 HD
HETATM    5  C   UNL     1     -41.197  60.242 -51.010  1.00  0.00     0.238 C 
HETATM    6  C   UNL     1     -40.898  58.833 -50.469  1.00  0.00     0.069 C 
HETATM    7  C   UNL     1     -42.064  57.930 -50.680  1.00  0.00    -0.019 A 
HETATM    8  C   UNL     1     -43.329  58.413 -50.965  1.00  0.00     0.052 A 
HETATM    9  N   UNL     1     -44.177  57.343 -51.082  1.00  0.00    -0.356 N 
HETATM   10  H   UNL     1     -45.165  57.373 -51.308  1.00  0.00     0.166 HD
HETATM   11  C   UNL     1     -43.474  56.174 -50.886  1.00  0.00     0.043 A 
HETATM   12  C   UNL     1     -42.140  56.513 -50.648  1.00  0.00     0.002 A 
HETATM   13  C   UNL     1     -43.922  54.850 -50.905  1.00  0.00     0.033 A 
HETATM   14  C   UNL     1     -42.970  53.846 -50.704  1.00  0.00     0.039 A 
HETATM   15  C   UNL     1     -41.623  54.148 -50.503  1.00  0.00     0.070 A 
HETATM   16  C   UNL     1     -41.201  55.481 -50.441  1.00  0.00     0.051 A 
ENDROOT
BRANCH   1  17
HETATM   17  C   UNL     1     -44.088  60.252 -52.547  1.00  0.00    -0.021 A 
HETATM   18  C   UNL     1     -45.413  60.628 -52.823  1.00  0.00     0.012 A 
HETATM   19  C   UNL     1     -45.780  61.090 -54.093  1.00  0.00     0.038 A 
HETATM   20  C   UNL     1     -44.835  61.188 -55.116  1.00  0.00     0.076 A 
HETATM   21  C   UNL     1     -43.507  60.796 -54.873  1.00  0.00    -0.000 A 
HETATM   22  C   UNL     1     -43.147  60.347 -53.586  1.00  0.00     0.021 A 
BRANCH  20  23
HETATM   23  O   UNL     1     -45.097  61.671 -56.369  1.00  0.00    -0.355 OA
HETATM   24  C   UNL     1     -46.437  61.604 -56.844  1.00  0.00     0.210 C 
ENDBRANCH  20  23
BRANCH  21  25
HETATM   25  C   UNL     1     -42.445  60.923 -55.952  1.00  0.00     0.217 C 
BRANCH  25  26
HETATM   26  O   UNL     1     -41.683  59.712 -56.023  1.00  0.00    -0.347 OA
BRANCH  26  27
HETATM   27  C   UNL     1     -42.162  58.763 -56.886  1.00  0.00     0.069 A 
HETATM   28  C   UNL     1     -42.230  59.149 -58.224  1.00  0.00     0.039 A 
HETATM   29  C   UNL     1     -42.699  58.260 -59.199  1.00  0.00     0.032 A 
HETATM   30  C   UNL     1     -43.122  56.974 -58.847  1.00  0.00     0.034 A 
HETATM   31  C   UNL     1     -43.068  56.598 -57.504  1.00  0.00     0.032 A 
HETATM   32  C   UNL     1     -42.591  57.486 -56.529  1.00  0.00     0.039 A 
BRANCH  30  33
HETATM   33  N   UNL     1     -43.578  56.132 -59.881  1.00  0.00    -0.328 N 
HETATM   34  C   UNL     1     -44.891  55.854 -60.221  1.00  0.00     0.218 C 
HETATM   35  C   UNL     1     -44.985  54.890 -61.377  1.00  0.00     0.117 C 
HETATM   36  O   UNL     1     -45.901  56.293 -59.683  1.00  0.00    -0.274 OA
HETATM   37  H   UNL     1     -42.863  55.675 -60.434  1.00  0.00     0.169 HD
ENDBRANCH  30  33
ENDBRANCH  26  27
ENDBRANCH  25  26
ENDBRANCH  21  25
ENDBRANCH   1  17
BRANCH  15  38
HETATM   38  O   UNL     1     -40.803  53.062 -50.361  1.00  0.00    -0.347 OA
BRANCH  38  39
HETATM   39  C   UNL     1     -39.628  53.051 -51.176  1.00  0.00     0.214 C 
BRANCH  39  40
HETATM   40  C   UNL     1     -39.758  51.984 -52.236  1.00  0.00    -0.034 A 
HETATM   41  C   UNL     1     -39.438  50.649 -51.946  1.00  0.00     0.009 A 
HETATM   42  C   UNL     1     -39.610  49.652 -52.908  1.00  0.00     0.001 A 
HETATM   43  C   UNL     1     -40.112  49.977 -54.166  1.00  0.00     0.000 A 
HETATM   44  C   UNL     1     -40.443  51.297 -54.463  1.00  0.00     0.001 A 
HETATM   45  C   UNL     1     -40.271  52.297 -53.503  1.00  0.00     0.009 A 
ENDBRANCH  39  40
ENDBRANCH  38  39
ENDBRANCH  15  38
TORSDOF 9
ENDMDL
MODEL 5
REMARK VINA RESULT:      -8.6      2.324      6.007
REMARK  9 active torsions:
REMARK  status: ('A' for Active; 'I' for Inactive)
REMARK       I    between atoms: C_2  and  N_3 
REMARK    1  A    between atoms: N_3  and  C_4 
REMARK    2  A    between atoms: C_7  and  O_8 
REMARK    3  A    between atoms: O_8  and  C_9 
REMARK    4  A    between atoms: C_9  and  C_10 
REMARK    5  A    between atoms: C_11  and  O_12 
REMARK    6  A    between atoms: C_16  and  C_17 
REMARK    7  A    between atoms: C_31  and  O_32 
REMARK    8  A    between atoms: O_32  and  C_33 
REMARK    9  A    between atoms: C_33  and  C_34 
ROOT
HETATM    1  C   UNL     1     -43.725  57.961 -59.697  1.00  0.00     0.269 C 
HETATM    2  N   UNL     1     -44.149  56.916 -60.703  1.00  0.00    -0.061 N 
HETATM    3  H   UNL     1     -43.296  56.537 -61.126  1.00  0.00     0.278 HD
HETATM    4  H   UNL     1     -44.683  57.379 -61.445  1.00  0.00     0.278 HD
HETATM    5  C   UNL     1     -44.954  55.772 -60.130  1.00  0.00     0.238 C 
HETATM    6  C   UNL     1     -44.143  54.992 -59.079  1.00  0.00     0.069 C 
HETATM    7  C   UNL     1     -43.433  55.928 -58.163  1.00  0.00    -0.019 A 
HETATM    8  C   UNL     1     -43.243  57.262 -58.473  1.00  0.00     0.052 A 
HETATM    9  N   UNL     1     -42.546  57.843 -57.446  1.00  0.00    -0.356 N 
HETATM   10  H   UNL     1     -42.273  58.816 -57.372  1.00  0.00     0.166 HD
HETATM   11  C   UNL     1     -42.290  56.903 -56.472  1.00  0.00     0.043 A 
HETATM   12  C   UNL     1     -42.851  55.693 -56.889  1.00  0.00     0.002 A 
HETATM   13  C   UNL     1     -41.610  57.037 -55.259  1.00  0.00     0.033 A 
HETATM   14  C   UNL     1     -41.529  55.908 -54.438  1.00  0.00     0.039 A 
HETATM   15  C   UNL     1     -42.112  54.696 -54.806  1.00  0.00     0.070 A 
HETATM   16  C   UNL     1     -42.750  54.568 -56.045  1.00  0.00     0.051 A 
ENDROOT
BRANCH   1  17
HETATM   17  C   UNL     1     -44.830  58.978 -59.475  1.00  0.00    -0.021 A 
HETATM   18  C   UNL     1     -45.657  59.340 -60.550  1.00  0.00     0.012 A 
HETATM   19  C   UNL     1     -46.738  60.211 -60.364  1.00  0.00     0.038 A 
HETATM   20  C   UNL     1     -47.018  60.740 -59.103  1.00  0.00     0.076 A 
HETATM   21  C   UNL     1     -46.192  60.411 -58.015  1.00  0.00    -0.000 A 
HETATM   22  C   UNL     1     -45.116  59.521 -58.211  1.00  0.00     0.021 A 
BRANCH  20  23
HETATM   23  O   UNL     1     -48.078  61.559 -58.824  1.00  0.00    -0.355 OA
HETATM   24  C   UNL     1     -49.390  61.038 -59.004  1.00  0.00     0.210 C 
ENDBRANCH  20  23
BRANCH  21  25
HETATM   25  C   UNL     1     -46.488  60.939 -56.621  1.00  0.00     0.217 C 
BRANCH  25  26
HETATM   26  O   UNL     1     -45.371  61.700 -56.146  1.00  0.00    -0.347 OA
BRANCH  26  27
HETATM   27  C   UNL     1     -44.635  61.112 -55.153  1.00  0.00     0.069 A 
HETATM   28  C   UNL     1     -43.600  61.889 -54.633  1.00  0.00     0.039 A 
HETATM   29  C   UNL     1     -42.783  61.394 -53.609  1.00  0.00     0.032 A 
HETATM   30  C   UNL     1     -42.980  60.106 -53.099  1.00  0.00     0.034 A 
HETATM   31  C   UNL     1     -44.006  59.326 -53.635  1.00  0.00     0.032 A 
HETATM   32  C   UNL     1     -44.828  59.824 -54.655  1.00  0.00     0.039 A 
BRANCH  30  33
HETATM   33  N   UNL     1     -42.122  59.676 -52.067  1.00  0.00    -0.328 N 
HETATM   34  C   UNL     1     -40.801  59.277 -52.183  1.00  0.00     0.218 C 
HETATM   35  C   UNL     1     -40.214  58.867 -50.855  1.00  0.00     0.117 C 
HETATM   36  O   UNL     1     -40.134  59.227 -53.210  1.00  0.00    -0.274 OA
HETATM   37  H   UNL     1     -42.520  59.651 -51.136  1.00  0.00     0.169 HD
ENDBRANCH  30  33
ENDBRANCH  26  27
ENDBRANCH  25  26
ENDBRANCH  21  25
ENDBRANCH   1  17
BRANCH  15  38
HETATM   38  O   UNL     1     -41.985  53.692 -53.885  1.00  0.00    -0.347 OA
BRANCH  38  39
HETATM   39  C   UNL     1     -40.740  53.639 -53.182  1.00  0.00     0.214 C 
BRANCH  39  40
HETATM   40  C   UNL     1     -40.272  52.206 -53.092  1.00  0.00    -0.034 A 
HETATM   41  C   UNL     1     -39.847  51.672 -51.866  1.00  0.00     0.009 A 
HETATM   42  C   UNL     1     -39.465  50.332 -51.768  1.00  0.00     0.001 A 
HETATM   43  C   UNL     1     -39.513  49.511 -52.893  1.00  0.00     0.000 A 
HETATM   44  C   UNL     1     -39.944  50.027 -54.113  1.00  0.00     0.001 A 
HETATM   45  C   UNL     1     -40.325  51.367 -54.213  1.00  0.00     0.009 A 
ENDBRANCH  39  40
ENDBRANCH  38  39
ENDBRANCH  15  38
TORSDOF 9
ENDMDL
MODEL 6
REMARK VINA RESULT:      -8.2      1.633      2.314
REMARK  9 active torsions:
REMARK  status: ('A' for Active; 'I' for Inactive)
REMARK       I    between atoms: C_2  and  N_3 
REMARK    1  A    between atoms: N_3  and  C_4 
REMARK    2  A    between atoms: C_7  and  O_8 
REMARK    3  A    between atoms: O_8  and  C_9 
REMARK    4  A    between atoms: C_9  and  C_10 
REMARK    5  A    between atoms: C_11  and  O_12 
REMARK    6  A    between atoms: C_16  and  C_17 
REMARK    7  A    between atoms: C_31  and  O_32 
REMARK    8  A    between atoms: O_32  and  C_33 
REMARK    9  A    between atoms: C_33  and  C_34 
ROOT
HETATM    1  C   UNL     1     -45.464  60.339 -53.566  1.00  0.00     0.269 C 
HETATM    2  N   UNL     1     -45.376  60.972 -52.197  1.00  0.00    -0.061 N 
HETATM    3  H   UNL     1     -46.060  60.500 -51.598  1.00  0.00     0.278 HD
HETATM    4  H   UNL     1     -45.660  61.954 -52.276  1.00  0.00     0.278 HD
HETATM    5  C   UNL     1     -44.017  60.883 -51.541  1.00  0.00     0.238 C 
HETATM    6  C   UNL     1     -43.602  59.418 -51.317  1.00  0.00     0.069 C 
HETATM    7  C   UNL     1     -43.894  58.598 -52.527  1.00  0.00    -0.019 A 
HETATM    8  C   UNL     1     -44.753  59.031 -53.521  1.00  0.00     0.052 A 
HETATM    9  N   UNL     1     -44.825  58.052 -54.478  1.00  0.00    -0.356 N 
HETATM   10  H   UNL     1     -45.356  58.083 -55.340  1.00  0.00     0.166 HD
HETATM   11  C   UNL     1     -44.017  56.995 -54.118  1.00  0.00     0.043 A 
HETATM   12  C   UNL     1     -43.407  57.319 -52.904  1.00  0.00     0.002 A 
HETATM   13  C   UNL     1     -43.783  55.786 -54.778  1.00  0.00     0.033 A 
HETATM   14  C   UNL     1     -42.875  54.898 -54.192  1.00  0.00     0.039 A 
HETATM   15  C   UNL     1     -42.219  55.207 -53.001  1.00  0.00     0.070 A 
HETATM   16  C   UNL     1     -42.501  56.403 -52.330  1.00  0.00     0.051 A 
ENDROOT
BRANCH   1  17
HETATM   17  C   UNL     1     -44.990  61.302 -54.639  1.00  0.00    -0.021 A 
HETATM   18  C   UNL     1     -45.610  62.556 -54.759  1.00  0.00     0.012 A 
HETATM   19  C   UNL     1     -45.147  63.502 -55.682  1.00  0.00     0.038 A 
HETATM   20  C   UNL     1     -44.055  63.220 -56.505  1.00  0.00     0.076 A 
HETATM   21  C   UNL     1     -43.431  61.963 -56.420  1.00  0.00    -0.000 A 
HETATM   22  C   UNL     1     -43.898  61.025 -55.477  1.00  0.00     0.021 A 
BRANCH  20  23
HETATM   23  O   UNL     1     -43.510  64.101 -57.398  1.00  0.00    -0.355 OA
HETATM   24  C   UNL     1     -44.307  64.510 -58.503  1.00  0.00     0.210 C 
ENDBRANCH  20  23
BRANCH  21  25
HETATM   25  C   UNL     1     -42.219  61.634 -57.275  1.00  0.00     0.217 C 
BRANCH  25  26
HETATM   26  O   UNL     1     -42.646  61.199 -58.571  1.00  0.00    -0.347 OA
BRANCH  26  27
HETATM   27  C   UNL     1     -43.132  59.920 -58.634  1.00  0.00     0.069 A 
HETATM   28  C   UNL     1     -42.193  58.911 -58.423  1.00  0.00     0.039 A 
HETATM   29  C   UNL     1     -42.574  57.564 -58.458  1.00  0.00     0.032 A 
HETATM   30  C   UNL     1     -43.901  57.205 -58.720  1.00  0.00     0.034 A 
HETATM   31  C   UNL     1     -44.833  58.219 -58.948  1.00  0.00     0.032 A 
HETATM   32  C   UNL     1     -44.452  59.567 -58.906  1.00  0.00     0.039 A 
BRANCH  30  33
HETATM   33  N   UNL     1     -44.213  55.831 -58.737  1.00  0.00    -0.328 N 
HETATM   34  C   UNL     1     -44.365  55.016 -59.846  1.00  0.00     0.218 C 
HETATM   35  C   UNL     1     -44.718  53.600 -59.465  1.00  0.00     0.117 C 
HETATM   36  O   UNL     1     -44.253  55.344 -61.021  1.00  0.00    -0.274 OA
HETATM   37  H   UNL     1     -44.347  55.393 -57.834  1.00  0.00     0.169 HD
ENDBRANCH  30  33
ENDBRANCH  26  27
ENDBRANCH  25  26
ENDBRANCH  21  25
ENDBRANCH   1  17
BRANCH  15  38
HETATM   38  O   UNL     1     -41.331  54.260 -52.569  1.00  0.00    -0.347 OA
BRANCH  38  39
HETATM   39  C   UNL     1     -40.454  53.722 -53.563  1.00  0.00     0.214 C 
BRANCH  39  40
HETATM   40  C   UNL     1     -40.195  52.264 -53.272  1.00  0.00    -0.034 A 
HETATM   41  C   UNL     1     -40.288  51.306 -54.293  1.00  0.00     0.009 A 
HETATM   42  C   UNL     1     -39.996  49.964 -54.039  1.00  0.00     0.001 A 
HETATM   43  C   UNL     1     -39.599  49.568 -52.764  1.00  0.00     0.000 A 
HETATM   44  C   UNL     1     -39.492  50.510 -51.744  1.00  0.00     0.001 A 
HETATM   45  C   UNL     1     -39.785  51.853 -51.995  1.00  0.00     0.009 A 
ENDBRANCH  39  40
ENDBRANCH  38  39
ENDBRANCH  15  38
TORSDOF 9
ENDMDL
MODEL 7
REMARK VINA RESULT:      -8.1      1.890      2.868
REMARK  9 active torsions:
REMARK  status: ('A' for Active; 'I' for Inactive)
REMARK       I    between atoms: C_2  and  N_3 
REMARK    1  A    between atoms: N_3  and  C_4 
REMARK    2  A    between atoms: C_7  and  O_8 
REMARK    3  A    between atoms: O_8  and  C_9 
REMARK    4  A    between atoms: C_9  and  C_10 
REMARK    5  A    between atoms: C_11  and  O_12 
REMARK    6  A    between atoms: C_16  and  C_17 
REMARK    7  A    between atoms: C_31  and  O_32 
REMARK    8  A    between atoms: O_32  and  C_33 
REMARK    9  A    between atoms: C_33  and  C_34 
ROOT
HETATM    1  C   UNL     1     -43.467  59.769 -52.239  1.00  0.00     0.269 C 
HETATM    2  N   UNL     1     -42.708  60.641 -51.266  1.00  0.00    -0.061 N 
HETATM    3  H   UNL     1     -43.206  60.604 -50.372  1.00  0.00     0.278 HD
HETATM    4  H   UNL     1     -42.745  61.609 -51.601  1.00  0.00     0.278 HD
HETATM    5  C   UNL     1     -41.270  60.234 -51.035  1.00  0.00     0.238 C 
HETATM    6  C   UNL     1     -41.181  58.818 -50.438  1.00  0.00     0.069 C 
HETATM    7  C   UNL     1     -42.108  57.891 -51.146  1.00  0.00    -0.019 A 
HETATM    8  C   UNL     1     -43.143  58.347 -51.941  1.00  0.00     0.052 A 
HETATM    9  N   UNL     1     -43.817  57.257 -52.430  1.00  0.00    -0.356 N 
HETATM   10  H   UNL     1     -44.611  57.267 -53.059  1.00  0.00     0.166 HD
HETATM   11  C   UNL     1     -43.224  56.103 -51.966  1.00  0.00     0.043 A 
HETATM   12  C   UNL     1     -42.137  56.471 -51.170  1.00  0.00     0.002 A 
HETATM   13  C   UNL     1     -43.570  54.768 -52.195  1.00  0.00     0.033 A 
HETATM   14  C   UNL     1     -42.760  53.786 -51.618  1.00  0.00     0.039 A 
HETATM   15  C   UNL     1     -41.644  54.119 -50.851  1.00  0.00     0.070 A 
HETATM   16  C   UNL     1     -41.341  55.460 -50.593  1.00  0.00     0.051 A 
ENDROOT
BRANCH   1  17
HETATM   17  C   UNL     1     -43.214  60.210 -53.670  1.00  0.00    -0.021 A 
HETATM   18  C   UNL     1     -42.073  59.743 -54.342  1.00  0.00     0.012 A 
HETATM   19  C   UNL     1     -41.849  60.061 -55.687  1.00  0.00     0.038 A 
HETATM   20  C   UNL     1     -42.758  60.851 -56.393  1.00  0.00     0.076 A 
HETATM   21  C   UNL     1     -43.897  61.350 -55.737  1.00  0.00    -0.000 A 
HETATM   22  C   UNL     1     -44.119  61.011 -54.387  1.00  0.00     0.021 A 
BRANCH  20  23
HETATM   23  O   UNL     1     -42.641  61.171 -57.718  1.00  0.00    -0.355 OA
HETATM   24  C   UNL     1     -42.088  60.196 -58.594  1.00  0.00     0.210 C 
ENDBRANCH  20  23
BRANCH  21  25
HETATM   25  C   UNL     1     -44.926  62.183 -56.483  1.00  0.00     0.217 C 
BRANCH  25  26
HETATM   26  O   UNL     1     -46.114  61.410 -56.691  1.00  0.00    -0.347 OA
BRANCH  26  27
HETATM   27  C   UNL     1     -46.015  60.415 -57.626  1.00  0.00     0.069 A 
HETATM   28  C   UNL     1     -46.179  59.117 -57.140  1.00  0.00     0.039 A 
HETATM   29  C   UNL     1     -46.104  58.018 -58.004  1.00  0.00     0.032 A 
HETATM   30  C   UNL     1     -45.848  58.199 -59.368  1.00  0.00     0.034 A 
HETATM   31  C   UNL     1     -45.667  59.498 -59.846  1.00  0.00     0.032 A 
HETATM   32  C   UNL     1     -45.749  60.598 -58.982  1.00  0.00     0.039 A 
BRANCH  30  33
HETATM   33  N   UNL     1     -45.789  57.048 -60.178  1.00  0.00    -0.328 N 
HETATM   34  C   UNL     1     -44.756  56.131 -60.263  1.00  0.00     0.218 C 
HETATM   35  C   UNL     1     -45.049  55.036 -61.258  1.00  0.00     0.117 C 
HETATM   36  O   UNL     1     -43.698  56.153 -59.644  1.00  0.00    -0.274 OA
HETATM   37  H   UNL     1     -46.593  56.876 -60.769  1.00  0.00     0.169 HD
ENDBRANCH  30  33
ENDBRANCH  26  27
ENDBRANCH  25  26
ENDBRANCH  21  25
ENDBRANCH   1  17
BRANCH  15  38
HETATM   38  O   UNL     1     -40.926  53.051 -50.384  1.00  0.00    -0.347 OA
BRANCH  38  39
HETATM   39  C   UNL     1     -39.623  52.877 -50.947  1.00  0.00     0.214 C 
BRANCH  39  40
HETATM   40  C   UNL     1     -39.673  51.808 -52.012  1.00  0.00    -0.034 A 
HETATM   41  C   UNL     1     -39.487  50.458 -51.676  1.00  0.00     0.009 A 
HETATM   42  C   UNL     1     -39.586  49.462 -52.650  1.00  0.00     0.001 A 
HETATM   43  C   UNL     1     -39.882  49.805 -53.968  1.00  0.00     0.000 A 
HETATM   44  C   UNL     1     -40.079  51.140 -54.312  1.00  0.00     0.001 A 
HETATM   45  C   UNL     1     -39.979  52.138 -53.340  1.00  0.00     0.009 A 
ENDBRANCH  39  40
ENDBRANCH  38  39
ENDBRANCH  15  38
TORSDOF 9
ENDMDL
MODEL 8
REMARK VINA RESULT:      -8.1      2.815      6.321
REMARK  9 active torsions:
REMARK  status: ('A' for Active; 'I' for Inactive)
REMARK       I    between atoms: C_2  and  N_3 
REMARK    1  A    between atoms: N_3  and  C_4 
REMARK    2  A    between atoms: C_7  and  O_8 
REMARK    3  A    between atoms: O_8  and  C_9 
REMARK    4  A    between atoms: C_9  and  C_10 
REMARK    5  A    between atoms: C_11  and  O_12 
REMARK    6  A    between atoms: C_16  and  C_17 
REMARK    7  A    between atoms: C_31  and  O_32 
REMARK    8  A    between atoms: O_32  and  C_33 
REMARK    9  A    between atoms: C_33  and  C_34 
ROOT
HETATM    1  C   UNL     1     -42.010  59.837 -55.058  1.00  0.00     0.269 C 
HETATM    2  N   UNL     1     -42.038  59.244 -56.447  1.00  0.00    -0.061 N 
HETATM    3  H   UNL     1     -41.066  59.093 -56.734  1.00  0.00     0.278 HD
HETATM    4  H   UNL     1     -42.445  59.935 -57.086  1.00  0.00     0.278 HD
HETATM    5  C   UNL     1     -42.785  57.935 -56.565  1.00  0.00     0.238 C 
HETATM    6  C   UNL     1     -42.140  56.844 -55.692  1.00  0.00     0.069 C 
HETATM    7  C   UNL     1     -41.800  57.383 -54.345  1.00  0.00    -0.019 A 
HETATM    8  C   UNL     1     -41.732  58.740 -54.089  1.00  0.00     0.052 A 
HETATM    9  N   UNL     1     -41.381  58.909 -52.775  1.00  0.00    -0.356 N 
HETATM   10  H   UNL     1     -41.271  59.788 -52.283  1.00  0.00     0.166 HD
HETATM   11  C   UNL     1     -41.228  57.677 -52.176  1.00  0.00     0.043 A 
HETATM   12  C   UNL     1     -41.503  56.699 -53.136  1.00  0.00     0.002 A 
HETATM   13  C   UNL     1     -40.874  57.360 -50.862  1.00  0.00     0.033 A 
HETATM   14  C   UNL     1     -40.828  56.007 -50.516  1.00  0.00     0.039 A 
HETATM   15  C   UNL     1     -41.135  55.007 -51.439  1.00  0.00     0.070 A 
HETATM   16  C   UNL     1     -41.443  55.341 -52.763  1.00  0.00     0.051 A 
ENDROOT
BRANCH   1  17
HETATM   17  C   UNL     1     -43.268  60.643 -54.788  1.00  0.00    -0.021 A 
HETATM   18  C   UNL     1     -44.517  60.103 -55.133  1.00  0.00     0.012 A 
HETATM   19  C   UNL     1     -45.703  60.780 -54.825  1.00  0.00     0.038 A 
HETATM   20  C   UNL     1     -45.670  62.010 -54.165  1.00  0.00     0.076 A 
HETATM   21  C   UNL     1     -44.431  62.583 -53.828  1.00  0.00    -0.000 A 
HETATM   22  C   UNL     1     -43.245  61.884 -54.131  1.00  0.00     0.021 A 
BRANCH  20  23
HETATM   23  O   UNL     1     -46.779  62.716 -53.785  1.00  0.00    -0.355 OA
HETATM   24  C   UNL     1     -47.617  63.244 -54.807  1.00  0.00     0.210 C 
ENDBRANCH  20  23
BRANCH  21  25
HETATM   25  C   UNL     1     -44.359  63.903 -53.079  1.00  0.00     0.217 C 
BRANCH  25  26
HETATM   26  O   UNL     1     -43.610  63.730 -51.869  1.00  0.00    -0.347 OA
BRANCH  26  27
HETATM   27  C   UNL     1     -44.208  62.957 -50.910  1.00  0.00     0.069 A 
HETATM   28  C   UNL     1     -43.402  61.966 -50.350  1.00  0.00     0.039 A 
HETATM   29  C   UNL     1     -43.903  61.117 -49.356  1.00  0.00     0.032 A 
HETATM   30  C   UNL     1     -45.226  61.238 -48.915  1.00  0.00     0.034 A 
HETATM   31  C   UNL     1     -46.033  62.221 -49.490  1.00  0.00     0.032 A 
HETATM   32  C   UNL     1     -45.529  63.074 -50.481  1.00  0.00     0.039 A 
BRANCH  30  33
HETATM   33  N   UNL     1     -45.661  60.353 -47.909  1.00  0.00    -0.328 N 
HETATM   34  C   UNL     1     -46.113  60.677 -46.641  1.00  0.00     0.218 C 
HETATM   35  C   UNL     1     -46.474  59.452 -45.838  1.00  0.00     0.117 C 
HETATM   36  O   UNL     1     -46.218  61.799 -46.161  1.00  0.00    -0.274 OA
HETATM   37  H   UNL     1     -45.633  59.367 -48.139  1.00  0.00     0.169 HD
ENDBRANCH  30  33
ENDBRANCH  26  27
ENDBRANCH  25  26
ENDBRANCH  21  25
ENDBRANCH   1  17
BRANCH  15  38
HETATM   38  O   UNL     1     -41.085  53.732 -50.946  1.00  0.00    -0.347 OA
BRANCH  38  39
HETATM   39  C   UNL     1     -39.804  53.097 -50.975  1.00  0.00     0.214 C 
BRANCH  39  40
HETATM   40  C   UNL     1     -39.838  51.935 -51.938  1.00  0.00    -0.034 A 
HETATM   41  C   UNL     1     -40.024  52.153 -53.312  1.00  0.00     0.009 A 
HETATM   42  C   UNL     1     -40.002  51.086 -54.211  1.00  0.00     0.001 A 
HETATM   43  C   UNL     1     -39.784  49.790 -53.748  1.00  0.00     0.000 A 
HETATM   44  C   UNL     1     -39.587  49.561 -52.388  1.00  0.00     0.001 A 
HETATM   45  C   UNL     1     -39.610  50.627 -51.487  1.00  0.00     0.009 A 
ENDBRANCH  39  40
ENDBRANCH  38  39
ENDBRANCH  15  38
TORSDOF 9
ENDMDL
MODEL 9
REMARK VINA RESULT:      -8.1      3.962      6.088
REMARK  9 active torsions:
REMARK  status: ('A' for Active; 'I' for Inactive)
REMARK       I    between atoms: C_2  and  N_3 
REMARK    1  A    between atoms: N_3  and  C_4 
REMARK    2  A    between atoms: C_7  and  O_8 
REMARK    3  A    between atoms: O_8  and  C_9 
REMARK    4  A    between atoms: C_9  and  C_10 
REMARK    5  A    between atoms: C_11  and  O_12 
REMARK    6  A    between atoms: C_16  and  C_17 
REMARK    7  A    between atoms: C_31  and  O_32 
REMARK    8  A    between atoms: O_32  and  C_33 
REMARK    9  A    between atoms: C_33  and  C_34 
ROOT
HETATM    1  C   UNL     1     -44.109  58.777 -54.309  1.00  0.00     0.269 C 
HETATM    2  N   UNL     1     -43.082  59.883 -54.235  1.00  0.00    -0.061 N 
HETATM    3  H   UNL     1     -43.195  60.343 -53.327  1.00  0.00     0.278 HD
HETATM    4  H   UNL     1     -43.297  60.574 -54.961  1.00  0.00     0.278 HD
HETATM    5  C   UNL     1     -41.647  59.428 -54.371  1.00  0.00     0.238 C 
HETATM    6  C   UNL     1     -41.259  58.463 -53.236  1.00  0.00     0.069 C 
HETATM    7  C   UNL     1     -42.335  57.457 -53.011  1.00  0.00    -0.019 A 
HETATM    8  C   UNL     1     -43.619  57.631 -53.494  1.00  0.00     0.052 A 
HETATM    9  N   UNL     1     -44.369  56.551 -53.107  1.00  0.00    -0.356 N 
HETATM   10  H   UNL     1     -45.344  56.379 -53.325  1.00  0.00     0.166 HD
HETATM   11  C   UNL     1     -43.583  55.677 -52.387  1.00  0.00     0.043 A 
HETATM   12  C   UNL     1     -42.295  56.214 -52.326  1.00  0.00     0.002 A 
HETATM   13  C   UNL     1     -43.918  54.458 -51.793  1.00  0.00     0.033 A 
HETATM   14  C   UNL     1     -42.897  53.756 -51.145  1.00  0.00     0.039 A 
HETATM   15  C   UNL     1     -41.591  54.244 -51.101  1.00  0.00     0.070 A 
HETATM   16  C   UNL     1     -41.285  55.489 -51.661  1.00  0.00     0.051 A 
ENDROOT
BRANCH   1  17
HETATM   17  C   UNL     1     -44.450  58.452 -55.752  1.00  0.00    -0.021 A 
HETATM   18  C   UNL     1     -43.547  57.699 -56.519  1.00  0.00     0.012 A 
HETATM   19  C   UNL     1     -43.863  57.310 -57.827  1.00  0.00     0.038 A 
HETATM   20  C   UNL     1     -45.087  57.662 -58.399  1.00  0.00     0.076 A 
HETATM   21  C   UNL     1     -46.000  58.434 -57.660  1.00  0.00    -0.000 A 
HETATM   22  C   UNL     1     -45.676  58.807 -56.340  1.00  0.00     0.021 A 
BRANCH  20  23
HETATM   23  O   UNL     1     -45.495  57.285 -59.649  1.00  0.00    -0.355 OA
HETATM   24  C   UNL     1     -45.154  55.979 -60.098  1.00  0.00     0.210 C 
ENDBRANCH  20  23
BRANCH  21  25
HETATM   25  C   UNL     1     -47.355  58.805 -58.237  1.00  0.00     0.217 C 
BRANCH  25  26
HETATM   26  O   UNL     1     -47.489  60.232 -58.277  1.00  0.00    -0.347 OA
BRANCH  26  27
HETATM   27  C   UNL     1     -48.562  60.744 -57.598  1.00  0.00     0.069 A 
HETATM   28  C   UNL     1     -48.271  61.780 -56.711  1.00  0.00     0.039 A 
HETATM   29  C   UNL     1     -49.289  62.385 -55.965  1.00  0.00     0.032 A 
HETATM   30  C   UNL     1     -50.614  61.953 -56.084  1.00  0.00     0.034 A 
HETATM   31  C   UNL     1     -50.898  60.905 -56.961  1.00  0.00     0.032 A 
HETATM   32  C   UNL     1     -49.879  60.303 -57.713  1.00  0.00     0.039 A 
BRANCH  30  33
HETATM   33  N   UNL     1     -51.587  62.611 -55.305  1.00  0.00    -0.328 N 
HETATM   34  C   UNL     1     -51.902  62.375 -53.977  1.00  0.00     0.218 C 
HETATM   35  C   UNL     1     -53.015  63.269 -53.491  1.00  0.00     0.117 C 
HETATM   36  O   UNL     1     -51.388  61.547 -53.234  1.00  0.00    -0.274 OA
HETATM   37  H   UNL     1     -52.119  63.335 -55.772  1.00  0.00     0.169 HD
ENDBRANCH  30  33
ENDBRANCH  26  27
ENDBRANCH  25  26
ENDBRANCH  21  25
ENDBRANCH   1  17
BRANCH  15  38
HETATM   38  O   UNL     1     -40.693  53.430 -50.466  1.00  0.00    -0.347 OA
BRANCH  38  39
HETATM   39  C   UNL     1     -39.481  53.160 -51.177  1.00  0.00     0.214 C 
BRANCH  39  40
HETATM   40  C   UNL     1     -39.692  51.993 -52.111  1.00  0.00    -0.034 A 
HETATM   41  C   UNL     1     -40.032  52.209 -53.456  1.00  0.00     0.009 A 
HETATM   42  C   UNL     1     -40.175  51.134 -54.335  1.00  0.00     0.001 A 
HETATM   43  C   UNL     1     -39.971  49.833 -53.882  1.00  0.00     0.000 A 
HETATM   44  C   UNL     1     -39.623  49.605 -52.552  1.00  0.00     0.001 A 
HETATM   45  C   UNL     1     -39.481  50.679 -51.671  1.00  0.00     0.009 A 
ENDBRANCH  39  40
ENDBRANCH  38  39
ENDBRANCH  15  38
TORSDOF 9
ENDMDL
MODEL 10
REMARK VINA RESULT:      -8.1      2.285      7.421
REMARK  9 active torsions:
REMARK  status: ('A' for Active; 'I' for Inactive)
REMARK       I    between atoms: C_2  and  N_3 
REMARK    1  A    between atoms: N_3  and  C_4 
REMARK    2  A    between atoms: C_7  and  O_8 
REMARK    3  A    between atoms: O_8  and  C_9 
REMARK    4  A    between atoms: C_9  and  C_10 
REMARK    5  A    between atoms: C_11  and  O_12 
REMARK    6  A    between atoms: C_16  and  C_17 
REMARK    7  A    between atoms: C_31  and  O_32 
REMARK    8  A    between atoms: O_32  and  C_33 
REMARK    9  A    between atoms: C_33  and  C_34 
ROOT
HETATM    1  C   UNL     1     -42.229  59.181 -51.365  1.00  0.00     0.269 C 
HETATM    2  N   UNL     1     -43.348  59.486 -50.396  1.00  0.00    -0.061 N 
HETATM    3  H   UNL     1     -43.277  60.478 -50.152  1.00  0.00     0.278 HD
HETATM    4  H   UNL     1     -43.190  58.945 -49.539  1.00  0.00     0.278 HD
HETATM    5  C   UNL     1     -44.738  59.216 -50.923  1.00  0.00     0.238 C 
HETATM    6  C   UNL     1     -45.045  60.087 -52.155  1.00  0.00     0.069 C 
HETATM    7  C   UNL     1     -43.887  60.097 -53.093  1.00  0.00    -0.019 A 
HETATM    8  C   UNL     1     -42.621  59.698 -52.706  1.00  0.00     0.052 A 
HETATM    9  N   UNL     1     -41.782  59.841 -53.781  1.00  0.00    -0.356 N 
HETATM   10  H   UNL     1     -40.796  59.611 -53.816  1.00  0.00     0.166 HD
HETATM   11  C   UNL     1     -42.493  60.321 -54.859  1.00  0.00     0.043 A 
HETATM   12  C   UNL     1     -43.822  60.475 -54.460  1.00  0.00     0.002 A 
HETATM   13  C   UNL     1     -42.056  60.624 -56.152  1.00  0.00     0.033 A 
HETATM   14  C   UNL     1     -43.015  61.068 -57.067  1.00  0.00     0.039 A 
HETATM   15  C   UNL     1     -44.358  61.194 -56.713  1.00  0.00     0.070 A 
HETATM   16  C   UNL     1     -44.769  60.931 -55.401  1.00  0.00     0.051 A 
ENDROOT
BRANCH   1  17
HETATM   17  C   UNL     1     -41.857  57.710 -51.316  1.00  0.00    -0.021 A 
HETATM   18  C   UNL     1     -41.244  57.194 -50.164  1.00  0.00     0.012 A 
HETATM   19  C   UNL     1     -40.961  55.828 -50.050  1.00  0.00     0.038 A 
HETATM   20  C   UNL     1     -41.284  54.945 -51.082  1.00  0.00     0.076 A 
HETATM   21  C   UNL     1     -41.877  55.440 -52.257  1.00  0.00    -0.000 A 
HETATM   22  C   UNL     1     -42.170  56.815 -52.353  1.00  0.00     0.021 A 
BRANCH  20  23
HETATM   23  O   UNL     1     -41.085  53.592 -51.036  1.00  0.00    -0.355 OA
HETATM   24  C   UNL     1     -39.749  53.110 -51.110  1.00  0.00     0.210 C 
ENDBRANCH  20  23
BRANCH  21  25
HETATM   25  C   UNL     1     -42.274  54.503 -53.386  1.00  0.00     0.217 C 
BRANCH  25  26
HETATM   26  O   UNL     1     -43.533  54.915 -53.933  1.00  0.00    -0.347 OA
BRANCH  26  27
HETATM   27  C   UNL     1     -43.479  55.476 -55.181  1.00  0.00     0.069 A 
HETATM   28  C   UNL     1     -43.957  56.784 -55.271  1.00  0.00     0.039 A 
HETATM   29  C   UNL     1     -43.947  57.463 -56.495  1.00  0.00     0.032 A 
HETATM   30  C   UNL     1     -43.472  56.839 -57.653  1.00  0.00     0.034 A 
HETATM   31  C   UNL     1     -43.011  55.524 -57.561  1.00  0.00     0.032 A 
HETATM   32  C   UNL     1     -43.014  54.847 -56.334  1.00  0.00     0.039 A 
BRANCH  30  33
HETATM   33  N   UNL     1     -43.489  57.584 -58.849  1.00  0.00    -0.328 N 
HETATM   34  C   UNL     1     -42.458  58.338 -59.385  1.00  0.00     0.218 C 
HETATM   35  C   UNL     1     -42.859  59.011 -60.674  1.00  0.00     0.117 C 
HETATM   36  O   UNL     1     -41.337  58.494 -58.914  1.00  0.00    -0.274 OA
HETATM   37  H   UNL     1     -44.356  57.571 -59.372  1.00  0.00     0.169 HD
ENDBRANCH  30  33
ENDBRANCH  26  27
ENDBRANCH  25  26
ENDBRANCH  21  25
ENDBRANCH   1  17
BRANCH  15  38
HETATM   38  O   UNL     1     -45.185  61.602 -57.724  1.00  0.00    -0.347 OA
BRANCH  38  39
HETATM   39  C   UNL     1     -46.540  61.151 -57.646  1.00  0.00     0.214 C 
BRANCH  39  40
HETATM   40  C   UNL     1     -46.692  59.872 -58.434  1.00  0.00    -0.034 A 
HETATM   41  C   UNL     1     -46.469  59.858 -59.820  1.00  0.00     0.009 A 
HETATM   42  C   UNL     1     -46.556  58.667 -60.542  1.00  0.00     0.001 A 
HETATM   43  C   UNL     1     -46.857  57.476 -59.886  1.00  0.00     0.000 A 
HETATM   44  C   UNL     1     -47.070  57.474 -58.510  1.00  0.00     0.001 A 
HETATM   45  C   UNL     1     -46.986  58.665 -57.785  1.00  0.00     0.009 A 
ENDBRANCH  39  40
ENDBRANCH  38  39
ENDBRANCH  15  38
TORSDOF 9
ENDMDL
