MODEL 1
REMARK VINA RESULT:      -7.4      0.000      0.000
REMARK  7 active torsions:
REMARK  status: ('A' for Active; 'I' for Inactive)
REMARK    1  A    between atoms: C_5  and  N_6 
REMARK    2  A    between atoms: N_6  and  C_9 
REMARK    3  A    between atoms: C_9  and  C_10 
REMARK    4  A    between atoms: C_10  and  C_11 
REMARK    5  A    between atoms: C_10  and  C_13 
REMARK    6  A    between atoms: C_11  and  O_12 
REMARK    7  A    between atoms: C_13  and  C_14 
ROOT
HETATM    1  N   UNL     1     -40.787  56.326 -50.673  1.00  0.00    -0.066 N 
HETATM    2  H   UNL     1     -40.592  55.865 -49.767  1.00  0.00     0.278 HD
HETATM    3  H   UNL     1     -39.888  56.316 -51.192  1.00  0.00     0.278 HD
ENDROOT
BRANCH   1   4
HETATM    4  C   UNL     1     -41.787  55.560 -51.452  1.00  0.00     0.220 C 
HETATM    5  C   UNL     1     -41.232  55.075 -52.754  1.00  0.00    -0.021 A 
HETATM    6  C   UNL     1     -40.975  53.697 -52.729  1.00  0.00    -0.040 A 
HETATM    7  C   UNL     1     -40.962  55.839 -53.881  1.00  0.00     0.010 A 
HETATM    8  C   UNL     1     -40.459  53.047 -53.848  1.00  0.00    -0.055 A 
HETATM    9  C   UNL     1     -41.327  53.111 -51.388  1.00  0.00     0.018 C 
HETATM   10  C   UNL     1     -40.155  51.578 -53.863  1.00  0.00     0.049 C 
HETATM   11  C   UNL     1     -40.175  53.825 -54.981  1.00  0.00     0.007 A 
HETATM   12  C   UNL     1     -40.426  55.203 -54.999  1.00  0.00     0.001 A 
HETATM   13  C   UNL     1     -42.163  54.246 -50.749  1.00  0.00     0.047 C 
HETATM   14  C   UNL     1     -40.093  52.749 -50.569  1.00  0.00     0.015 C 
ENDBRANCH   1   4
BRANCH   1  15
HETATM   15  C   UNL     1     -41.107  57.755 -50.398  1.00  0.00     0.240 C 
BRANCH  15  16
HETATM   16  C   UNL     1     -40.469  58.675 -51.459  1.00  0.00     0.040 C 
BRANCH  16  17
HETATM   17  C   UNL     1     -39.255  59.402 -50.861  1.00  0.00     0.170 C 
BRANCH  17  18
HETATM   18  O   UNL     1     -38.253  59.551 -51.869  1.00  0.00    -0.400 OA
HETATM   19  H   UNL     1     -38.363  58.792 -52.479  1.00  0.00     0.209 HD
ENDBRANCH  17  18
ENDBRANCH  16  17
BRANCH  16  20
HETATM   20  C   UNL     1     -41.433  59.719 -52.066  1.00  0.00     0.067 C 
BRANCH  20  21
HETATM   21  C   UNL     1     -42.117  59.245 -53.320  1.00  0.00     0.034 A 
HETATM   22  N   UNL     1     -41.479  59.512 -54.492  1.00  0.00    -0.266 NA
HETATM   23  C   UNL     1     -42.087  59.073 -55.623  1.00  0.00     0.117 A 
HETATM   24  C   UNL     1     -43.296  58.398 -55.644  1.00  0.00     0.019 A 
HETATM   25  C   UNL     1     -43.929  58.147 -54.436  1.00  0.00     0.003 A 
HETATM   26  C   UNL     1     -43.335  58.575 -53.253  1.00  0.00     0.027 A 
ENDBRANCH  20  21
ENDBRANCH  16  20
ENDBRANCH  15  16
ENDBRANCH   1  15
TORSDOF 7
ENDMDL
MODEL 2
REMARK VINA RESULT:      -7.3      2.443      4.432
REMARK  7 active torsions:
REMARK  status: ('A' for Active; 'I' for Inactive)
REMARK    1  A    between atoms: C_5  and  N_6 
REMARK    2  A    between atoms: N_6  and  C_9 
REMARK    3  A    between atoms: C_9  and  C_10 
REMARK    4  A    between atoms: C_10  and  C_11 
REMARK    5  A    between atoms: C_10  and  C_13 
REMARK    6  A    between atoms: C_11  and  O_12 
REMARK    7  A    between atoms: C_13  and  C_14 
ROOT
HETATM    1  N   UNL     1     -42.158  53.638 -54.450  1.00  0.00    -0.066 N 
HETATM    2  H   UNL     1     -42.296  52.806 -55.050  1.00  0.00     0.278 HD
HETATM    3  H   UNL     1     -42.800  53.510 -53.643  1.00  0.00     0.278 HD
ENDROOT
BRANCH   1   4
HETATM    4  C   UNL     1     -40.769  53.695 -53.939  1.00  0.00     0.220 C 
HETATM    5  C   UNL     1     -40.668  53.198 -52.531  1.00  0.00    -0.021 A 
HETATM    6  C   UNL     1     -40.077  51.928 -52.469  1.00  0.00    -0.040 A 
HETATM    7  C   UNL     1     -41.102  53.850 -51.384  1.00  0.00     0.010 A 
HETATM    8  C   UNL     1     -39.887  51.289 -51.245  1.00  0.00    -0.055 A 
HETATM    9  C   UNL     1     -39.726  51.432 -53.846  1.00  0.00     0.018 C 
HETATM   10  C   UNL     1     -39.273  49.925 -51.131  1.00  0.00     0.049 C 
HETATM   11  C   UNL     1     -40.338  51.946 -50.089  1.00  0.00     0.007 A 
HETATM   12  C   UNL     1     -40.935  53.212 -50.157  1.00  0.00     0.001 A 
HETATM   13  C   UNL     1     -39.849  52.721 -54.694  1.00  0.00     0.047 C 
HETATM   14  C   UNL     1     -40.653  50.320 -54.318  1.00  0.00     0.015 C 
ENDBRANCH   1   4
BRANCH   1  15
HETATM   15  C   UNL     1     -42.643  54.829 -55.201  1.00  0.00     0.240 C 
BRANCH  15  16
HETATM   16  C   UNL     1     -42.768  56.052 -54.270  1.00  0.00     0.040 C 
BRANCH  16  17
HETATM   17  C   UNL     1     -44.109  56.761 -54.515  1.00  0.00     0.170 C 
BRANCH  17  18
HETATM   18  O   UNL     1     -45.167  55.802 -54.453  1.00  0.00    -0.400 OA
HETATM   19  H   UNL     1     -45.993  56.293 -54.645  1.00  0.00     0.209 HD
ENDBRANCH  17  18
ENDBRANCH  16  17
BRANCH  16  20
HETATM   20  C   UNL     1     -41.623  57.080 -54.403  1.00  0.00     0.067 C 
BRANCH  20  21
HETATM   21  C   UNL     1     -41.142  57.617 -53.082  1.00  0.00     0.034 A 
HETATM   22  N   UNL     1     -40.236  58.630 -53.138  1.00  0.00    -0.266 NA
HETATM   23  C   UNL     1     -39.812  59.126 -51.948  1.00  0.00     0.117 A 
HETATM   24  C   UNL     1     -40.234  58.657 -50.715  1.00  0.00     0.019 A 
HETATM   25  C   UNL     1     -41.152  57.618 -50.688  1.00  0.00     0.003 A 
HETATM   26  C   UNL     1     -41.616  57.085 -51.886  1.00  0.00     0.027 A 
ENDBRANCH  20  21
ENDBRANCH  16  20
ENDBRANCH  15  16
ENDBRANCH   1  15
TORSDOF 7
ENDMDL
MODEL 3
REMARK VINA RESULT:      -7.2      3.593      5.188
REMARK  7 active torsions:
REMARK  status: ('A' for Active; 'I' for Inactive)
REMARK    1  A    between atoms: C_5  and  N_6 
REMARK    2  A    between atoms: N_6  and  C_9 
REMARK    3  A    between atoms: C_9  and  C_10 
REMARK    4  A    between atoms: C_10  and  C_11 
REMARK    5  A    between atoms: C_10  and  C_13 
REMARK    6  A    between atoms: C_11  and  O_12 
REMARK    7  A    between atoms: C_13  and  C_14 
ROOT
HETATM    1  N   UNL     1     -41.823  54.676 -55.631  1.00  0.00    -0.066 N 
HETATM    2  H   UNL     1     -41.271  55.428 -55.184  1.00  0.00     0.278 HD
HETATM    3  H   UNL     1     -41.149  54.142 -56.214  1.00  0.00     0.278 HD
ENDROOT
BRANCH   1   4
HETATM    4  C   UNL     1     -42.392  53.761 -54.615  1.00  0.00     0.220 C 
HETATM    5  C   UNL     1     -41.326  53.030 -53.860  1.00  0.00    -0.021 A 
HETATM    6  C   UNL     1     -41.174  53.530 -52.558  1.00  0.00    -0.040 A 
HETATM    7  C   UNL     1     -40.535  51.991 -54.331  1.00  0.00     0.010 A 
HETATM    8  C   UNL     1     -40.234  52.980 -51.689  1.00  0.00    -0.055 A 
HETATM    9  C   UNL     1     -42.126  54.668 -52.307  1.00  0.00     0.018 C 
HETATM   10  C   UNL     1     -40.026  53.491 -50.294  1.00  0.00     0.049 C 
HETATM   11  C   UNL     1     -39.428  51.938 -52.173  1.00  0.00     0.007 A 
HETATM   12  C   UNL     1     -39.579  51.447 -53.477  1.00  0.00     0.001 A 
HETATM   13  C   UNL     1     -43.108  54.536 -53.496  1.00  0.00     0.047 C 
HETATM   14  C   UNL     1     -41.422  56.018 -52.266  1.00  0.00     0.015 C 
ENDBRANCH   1   4
BRANCH   1  15
HETATM   15  C   UNL     1     -42.788  55.315 -56.569  1.00  0.00     0.240 C 
BRANCH  15  16
HETATM   16  C   UNL     1     -42.492  56.821 -56.720  1.00  0.00     0.040 C 
BRANCH  16  17
HETATM   17  C   UNL     1     -43.426  57.633 -55.810  1.00  0.00     0.170 C 
BRANCH  17  18
HETATM   18  O   UNL     1     -44.647  56.913 -55.627  1.00  0.00    -0.400 OA
HETATM   19  H   UNL     1     -45.203  57.113 -56.410  1.00  0.00     0.209 HD
ENDBRANCH  17  18
ENDBRANCH  16  17
BRANCH  16  20
HETATM   20  C   UNL     1     -42.607  57.355 -58.165  1.00  0.00     0.067 C 
BRANCH  20  21
HETATM   21  C   UNL     1     -43.735  56.736 -58.945  1.00  0.00     0.034 A 
HETATM   22  N   UNL     1     -44.966  57.288 -58.764  1.00  0.00    -0.266 NA
HETATM   23  C   UNL     1     -45.982  56.741 -59.478  1.00  0.00     0.117 A 
HETATM   24  C   UNL     1     -45.836  55.673 -60.347  1.00  0.00     0.019 A 
HETATM   25  C   UNL     1     -44.572  55.125 -60.505  1.00  0.00     0.003 A 
HETATM   26  C   UNL     1     -43.502  55.660 -59.796  1.00  0.00     0.027 A 
ENDBRANCH  20  21
ENDBRANCH  16  20
ENDBRANCH  15  16
ENDBRANCH   1  15
TORSDOF 7
ENDMDL
MODEL 4
REMARK VINA RESULT:      -7.1      2.831      3.934
REMARK  7 active torsions:
REMARK  status: ('A' for Active; 'I' for Inactive)
REMARK    1  A    between atoms: C_5  and  N_6 
REMARK    2  A    between atoms: N_6  and  C_9 
REMARK    3  A    between atoms: C_9  and  C_10 
REMARK    4  A    between atoms: C_10  and  C_11 
REMARK    5  A    between atoms: C_10  and  C_13 
REMARK    6  A    between atoms: C_11  and  O_12 
REMARK    7  A    between atoms: C_13  and  C_14 
ROOT
HETATM    1  N   UNL     1     -42.057  53.978 -51.321  1.00  0.00    -0.066 N 
HETATM    2  H   UNL     1     -42.660  53.828 -52.149  1.00  0.00     0.278 HD
HETATM    3  H   UNL     1     -42.340  53.251 -50.634  1.00  0.00     0.278 HD
ENDROOT
BRANCH   1   4
HETATM    4  C   UNL     1     -40.631  53.772 -51.660  1.00  0.00     0.220 C 
HETATM    5  C   UNL     1     -40.260  52.322 -51.670  1.00  0.00    -0.021 A 
HETATM    6  C   UNL     1     -40.094  51.836 -52.975  1.00  0.00    -0.040 A 
HETATM    7  C   UNL     1     -40.101  51.496 -50.566  1.00  0.00     0.010 A 
HETATM    8  C   UNL     1     -39.742  50.507 -53.201  1.00  0.00    -0.055 A 
HETATM    9  C   UNL     1     -40.350  52.920 -53.987  1.00  0.00     0.018 C 
HETATM   10  C   UNL     1     -39.568  49.939 -54.578  1.00  0.00     0.049 C 
HETATM   11  C   UNL     1     -39.594  49.672 -52.083  1.00  0.00     0.007 A 
HETATM   12  C   UNL     1     -39.768  50.160 -50.781  1.00  0.00     0.001 A 
HETATM   13  C   UNL     1     -40.329  54.194 -53.108  1.00  0.00     0.047 C 
HETATM   14  C   UNL     1     -41.670  52.729 -54.723  1.00  0.00     0.015 C 
ENDBRANCH   1   4
BRANCH   1  15
HETATM   15  C   UNL     1     -42.419  55.294 -50.726  1.00  0.00     0.240 C 
BRANCH  15  16
HETATM   16  C   UNL     1     -42.985  56.245 -51.801  1.00  0.00     0.040 C 
BRANCH  16  17
HETATM   17  C   UNL     1     -44.001  57.208 -51.167  1.00  0.00     0.170 C 
BRANCH  17  18
HETATM   18  O   UNL     1     -45.084  56.453 -50.618  1.00  0.00    -0.400 OA
HETATM   19  H   UNL     1     -45.001  56.524 -49.643  1.00  0.00     0.209 HD
ENDBRANCH  17  18
ENDBRANCH  16  17
BRANCH  16  20
HETATM   20  C   UNL     1     -43.646  55.535 -53.003  1.00  0.00     0.067 C 
BRANCH  20  21
HETATM   21  C   UNL     1     -43.652  56.362 -54.260  1.00  0.00     0.034 A 
HETATM   22  N   UNL     1     -44.799  57.043 -54.527  1.00  0.00    -0.266 NA
HETATM   23  C   UNL     1     -44.802  57.801 -55.652  1.00  0.00     0.117 A 
HETATM   24  C   UNL     1     -43.731  57.904 -56.524  1.00  0.00     0.019 A 
HETATM   25  C   UNL     1     -42.577  57.192 -56.231  1.00  0.00     0.003 A 
HETATM   26  C   UNL     1     -42.531  56.407 -55.084  1.00  0.00     0.027 A 
ENDBRANCH  20  21
ENDBRANCH  16  20
ENDBRANCH  15  16
ENDBRANCH   1  15
TORSDOF 7
ENDMDL
MODEL 5
REMARK VINA RESULT:      -7.1      3.312      4.959
REMARK  7 active torsions:
REMARK  status: ('A' for Active; 'I' for Inactive)
REMARK    1  A    between atoms: C_5  and  N_6 
REMARK    2  A    between atoms: N_6  and  C_9 
REMARK    3  A    between atoms: C_9  and  C_10 
REMARK    4  A    between atoms: C_10  and  C_11 
REMARK    5  A    between atoms: C_10  and  C_13 
REMARK    6  A    between atoms: C_11  and  O_12 
REMARK    7  A    between atoms: C_13  and  C_14 
ROOT
HETATM    1  N   UNL     1     -42.550  54.186 -54.524  1.00  0.00    -0.066 N 
HETATM    2  H   UNL     1     -42.801  53.184 -54.600  1.00  0.00     0.278 HD
HETATM    3  H   UNL     1     -43.180  54.577 -53.797  1.00  0.00     0.278 HD
ENDROOT
BRANCH   1   4
HETATM    4  C   UNL     1     -41.151  54.347 -54.067  1.00  0.00     0.220 C 
HETATM    5  C   UNL     1     -40.963  53.880 -52.657  1.00  0.00    -0.021 A 
HETATM    6  C   UNL     1     -40.283  52.655 -52.601  1.00  0.00    -0.040 A 
HETATM    7  C   UNL     1     -41.398  54.518 -51.504  1.00  0.00     0.010 A 
HETATM    8  C   UNL     1     -40.004  52.050 -51.377  1.00  0.00    -0.055 A 
HETATM    9  C   UNL     1     -39.950  52.163 -53.984  1.00  0.00     0.018 C 
HETATM   10  C   UNL     1     -39.293  50.734 -51.269  1.00  0.00     0.049 C 
HETATM   11  C   UNL     1     -40.456  52.692 -50.214  1.00  0.00     0.007 A 
HETATM   12  C   UNL     1     -41.142  53.912 -50.276  1.00  0.00     0.001 A 
HETATM   13  C   UNL     1     -40.194  53.428 -54.843  1.00  0.00     0.047 C 
HETATM   14  C   UNL     1     -40.814  50.982 -54.406  1.00  0.00     0.015 C 
ENDBRANCH   1   4
BRANCH   1  15
HETATM   15  C   UNL     1     -42.913  54.847 -55.808  1.00  0.00     0.240 C 
BRANCH  15  16
HETATM   16  C   UNL     1     -42.777  56.379 -55.695  1.00  0.00     0.040 C 
BRANCH  16  17
HETATM   17  C   UNL     1     -44.033  56.969 -55.034  1.00  0.00     0.170 C 
BRANCH  17  18
HETATM   18  O   UNL     1     -44.861  55.903 -54.562  1.00  0.00    -0.400 OA
HETATM   19  H   UNL     1     -45.772  56.112 -54.859  1.00  0.00     0.209 HD
ENDBRANCH  17  18
ENDBRANCH  16  17
BRANCH  16  20
HETATM   20  C   UNL     1     -42.528  57.102 -57.037  1.00  0.00     0.067 C 
BRANCH  20  21
HETATM   21  C   UNL     1     -43.485  56.695 -58.125  1.00  0.00     0.034 A 
HETATM   22  N   UNL     1     -44.643  57.403 -58.204  1.00  0.00    -0.266 NA
HETATM   23  C   UNL     1     -45.501  57.048 -59.193  1.00  0.00     0.117 A 
HETATM   24  C   UNL     1     -45.269  56.021 -60.093  1.00  0.00     0.019 A 
HETATM   25  C   UNL     1     -44.083  55.309 -59.983  1.00  0.00     0.003 A 
HETATM   26  C   UNL     1     -43.174  55.646 -58.986  1.00  0.00     0.027 A 
ENDBRANCH  20  21
ENDBRANCH  16  20
ENDBRANCH  15  16
ENDBRANCH   1  15
TORSDOF 7
ENDMDL
MODEL 6
REMARK VINA RESULT:      -7.0      2.412      4.185
REMARK  7 active torsions:
REMARK  status: ('A' for Active; 'I' for Inactive)
REMARK    1  A    between atoms: C_5  and  N_6 
REMARK    2  A    between atoms: N_6  and  C_9 
REMARK    3  A    between atoms: C_9  and  C_10 
REMARK    4  A    between atoms: C_10  and  C_11 
REMARK    5  A    between atoms: C_10  and  C_13 
REMARK    6  A    between atoms: C_11  and  O_12 
REMARK    7  A    between atoms: C_13  and  C_14 
ROOT
HETATM    1  N   UNL     1     -40.441  54.783 -53.661  1.00  0.00    -0.066 N 
HETATM    2  H   UNL     1     -40.392  55.528 -52.945  1.00  0.00     0.278 HD
HETATM    3  H   UNL     1     -39.480  54.391 -53.722  1.00  0.00     0.278 HD
ENDROOT
BRANCH   1   4
HETATM    4  C   UNL     1     -41.361  53.703 -53.239  1.00  0.00     0.220 C 
HETATM    5  C   UNL     1     -40.731  52.350 -53.355  1.00  0.00    -0.021 A 
HETATM    6  C   UNL     1     -40.387  51.826 -52.101  1.00  0.00    -0.040 A 
HETATM    7  C   UNL     1     -40.470  51.651 -54.526  1.00  0.00     0.010 A 
HETATM    8  C   UNL     1     -39.792  50.571 -51.991  1.00  0.00    -0.055 A 
HETATM    9  C   UNL     1     -40.748  52.789 -51.001  1.00  0.00     0.018 C 
HETATM   10  C   UNL     1     -39.394  49.977 -50.672  1.00  0.00     0.049 C 
HETATM   11  C   UNL     1     -39.518  49.873 -53.178  1.00  0.00     0.007 A 
HETATM   12  C   UNL     1     -39.856  50.404 -54.429  1.00  0.00     0.001 A 
HETATM   13  C   UNL     1     -41.677  53.785 -51.736  1.00  0.00     0.047 C 
HETATM   14  C   UNL     1     -39.523  53.459 -50.391  1.00  0.00     0.015 C 
ENDBRANCH   1   4
BRANCH   1  15
HETATM   15  C   UNL     1     -40.725  55.428 -54.973  1.00  0.00     0.240 C 
BRANCH  15  16
HETATM   16  C   UNL     1     -42.130  56.065 -54.978  1.00  0.00     0.040 C 
BRANCH  16  17
HETATM   17  C   UNL     1     -42.804  55.838 -56.340  1.00  0.00     0.170 C 
BRANCH  17  18
HETATM   18  O   UNL     1     -43.452  54.564 -56.337  1.00  0.00    -0.400 OA
HETATM   19  H   UNL     1     -43.270  54.166 -55.460  1.00  0.00     0.209 HD
ENDBRANCH  17  18
ENDBRANCH  16  17
BRANCH  16  20
HETATM   20  C   UNL     1     -42.151  57.575 -54.651  1.00  0.00     0.067 C 
BRANCH  20  21
HETATM   21  C   UNL     1     -41.604  57.901 -53.287  1.00  0.00     0.034 A 
HETATM   22  N   UNL     1     -42.219  57.302 -52.233  1.00  0.00    -0.266 NA
HETATM   23  C   UNL     1     -41.718  57.583 -51.003  1.00  0.00     0.117 A 
HETATM   24  C   UNL     1     -40.650  58.434 -50.774  1.00  0.00     0.019 A 
HETATM   25  C   UNL     1     -40.047  59.038 -51.867  1.00  0.00     0.003 A 
HETATM   26  C   UNL     1     -40.527  58.771 -53.146  1.00  0.00     0.027 A 
ENDBRANCH  20  21
ENDBRANCH  16  20
ENDBRANCH  15  16
ENDBRANCH   1  15
TORSDOF 7
ENDMDL
MODEL 7
REMARK VINA RESULT:      -7.0      2.730      4.397
REMARK  7 active torsions:
REMARK  status: ('A' for Active; 'I' for Inactive)
REMARK    1  A    between atoms: C_5  and  N_6 
REMARK    2  A    between atoms: N_6  and  C_9 
REMARK    3  A    between atoms: C_9  and  C_10 
REMARK    4  A    between atoms: C_10  and  C_11 
REMARK    5  A    between atoms: C_10  and  C_13 
REMARK    6  A    between atoms: C_11  and  O_12 
REMARK    7  A    between atoms: C_13  and  C_14 
ROOT
HETATM    1  N   UNL     1     -41.904  54.829 -55.552  1.00  0.00    -0.066 N 
HETATM    2  H   UNL     1     -41.590  55.713 -55.113  1.00  0.00     0.278 HD
HETATM    3  H   UNL     1     -41.048  54.393 -55.947  1.00  0.00     0.278 HD
ENDROOT
BRANCH   1   4
HETATM    4  C   UNL     1     -42.475  53.910 -54.541  1.00  0.00     0.220 C 
HETATM    5  C   UNL     1     -41.414  53.149 -53.812  1.00  0.00    -0.021 A 
HETATM    6  C   UNL     1     -41.235  53.627 -52.505  1.00  0.00    -0.040 A 
HETATM    7  C   UNL     1     -40.648  52.103 -54.309  1.00  0.00     0.010 A 
HETATM    8  C   UNL     1     -40.294  53.047 -51.656  1.00  0.00    -0.055 A 
HETATM    9  C   UNL     1     -42.163  54.778 -52.224  1.00  0.00     0.018 C 
HETATM   10  C   UNL     1     -40.058  53.534 -50.257  1.00  0.00     0.049 C 
HETATM   11  C   UNL     1     -39.513  51.999 -52.167  1.00  0.00     0.007 A 
HETATM   12  C   UNL     1     -39.690  51.530 -53.475  1.00  0.00     0.001 A 
HETATM   13  C   UNL     1     -43.163  54.681 -53.402  1.00  0.00     0.047 C 
HETATM   14  C   UNL     1     -41.434  56.114 -52.173  1.00  0.00     0.015 C 
ENDBRANCH   1   4
BRANCH   1  15
HETATM   15  C   UNL     1     -42.779  55.180 -56.706  1.00  0.00     0.240 C 
BRANCH  15  16
HETATM   16  C   UNL     1     -43.261  56.642 -56.605  1.00  0.00     0.040 C 
BRANCH  16  17
HETATM   17  C   UNL     1     -43.894  57.077 -57.936  1.00  0.00     0.170 C 
BRANCH  17  18
HETATM   18  O   UNL     1     -44.430  55.930 -58.599  1.00  0.00    -0.400 OA
HETATM   19  H   UNL     1     -43.953  55.155 -58.235  1.00  0.00     0.209 HD
ENDBRANCH  17  18
ENDBRANCH  16  17
BRANCH  16  20
HETATM   20  C   UNL     1     -42.162  57.655 -56.215  1.00  0.00     0.067 C 
BRANCH  20  21
HETATM   21  C   UNL     1     -42.455  58.396 -54.938  1.00  0.00     0.034 A 
HETATM   22  N   UNL     1     -41.483  59.237 -54.494  1.00  0.00    -0.266 NA
HETATM   23  C   UNL     1     -41.751  59.918 -53.351  1.00  0.00     0.117 A 
HETATM   24  C   UNL     1     -42.926  59.793 -52.629  1.00  0.00     0.019 A 
HETATM   25  C   UNL     1     -43.896  58.921 -53.100  1.00  0.00     0.003 A 
HETATM   26  C   UNL     1     -43.662  58.209 -54.272  1.00  0.00     0.027 A 
ENDBRANCH  20  21
ENDBRANCH  16  20
ENDBRANCH  15  16
ENDBRANCH   1  15
TORSDOF 7
ENDMDL
MODEL 8
REMARK VINA RESULT:      -7.0      2.637      4.197
REMARK  7 active torsions:
REMARK  status: ('A' for Active; 'I' for Inactive)
REMARK    1  A    between atoms: C_5  and  N_6 
REMARK    2  A    between atoms: N_6  and  C_9 
REMARK    3  A    between atoms: C_9  and  C_10 
REMARK    4  A    between atoms: C_10  and  C_11 
REMARK    5  A    between atoms: C_10  and  C_13 
REMARK    6  A    between atoms: C_11  and  O_12 
REMARK    7  A    between atoms: C_13  and  C_14 
ROOT
HETATM    1  N   UNL     1     -42.380  54.479 -54.371  1.00  0.00    -0.066 N 
HETATM    2  H   UNL     1     -42.465  54.225 -55.371  1.00  0.00     0.278 HD
HETATM    3  H   UNL     1     -42.875  53.731 -53.849  1.00  0.00     0.278 HD
ENDROOT
BRANCH   1   4
HETATM    4  C   UNL     1     -40.961  54.488 -53.946  1.00  0.00     0.220 C 
HETATM    5  C   UNL     1     -40.789  53.963 -52.556  1.00  0.00    -0.021 A 
HETATM    6  C   UNL     1     -40.234  52.675 -52.551  1.00  0.00    -0.040 A 
HETATM    7  C   UNL     1     -41.132  54.606 -51.374  1.00  0.00     0.010 A 
HETATM    8  C   UNL     1     -39.987  52.009 -51.352  1.00  0.00    -0.055 A 
HETATM    9  C   UNL     1     -39.982  52.195 -53.954  1.00  0.00     0.018 C 
HETATM   10  C   UNL     1     -39.409  50.626 -51.298  1.00  0.00     0.049 C 
HETATM   11  C   UNL     1     -40.347  52.657 -50.160  1.00  0.00     0.007 A 
HETATM   12  C   UNL     1     -40.909  53.941 -50.170  1.00  0.00     0.001 A 
HETATM   13  C   UNL     1     -40.119  53.502 -54.772  1.00  0.00     0.047 C 
HETATM   14  C   UNL     1     -40.970  51.118 -54.387  1.00  0.00     0.015 C 
ENDBRANCH   1   4
BRANCH   1  15
HETATM   15  C   UNL     1     -43.150  55.736 -54.153  1.00  0.00     0.240 C 
BRANCH  15  16
HETATM   16  C   UNL     1     -42.624  56.866 -55.062  1.00  0.00     0.040 C 
BRANCH  16  17
HETATM   17  C   UNL     1     -42.216  58.077 -54.208  1.00  0.00     0.170 C 
BRANCH  17  18
HETATM   18  O   UNL     1     -41.540  59.028 -55.034  1.00  0.00    -0.400 OA
HETATM   19  H   UNL     1     -41.586  58.678 -55.948  1.00  0.00     0.209 HD
ENDBRANCH  17  18
ENDBRANCH  16  17
BRANCH  16  20
HETATM   20  C   UNL     1     -43.617  57.329 -56.150  1.00  0.00     0.067 C 
BRANCH  20  21
HETATM   21  C   UNL     1     -43.081  57.192 -57.549  1.00  0.00     0.034 A 
HETATM   22  N   UNL     1     -42.392  58.258 -58.037  1.00  0.00    -0.266 NA
HETATM   23  C   UNL     1     -41.894  58.131 -59.293  1.00  0.00     0.117 A 
HETATM   24  C   UNL     1     -42.059  57.007 -60.085  1.00  0.00     0.019 A 
HETATM   25  C   UNL     1     -42.774  55.938 -59.566  1.00  0.00     0.003 A 
HETATM   26  C   UNL     1     -43.296  56.026 -58.279  1.00  0.00     0.027 A 
ENDBRANCH  20  21
ENDBRANCH  16  20
ENDBRANCH  15  16
ENDBRANCH   1  15
TORSDOF 7
ENDMDL
MODEL 9
REMARK VINA RESULT:      -6.9      2.106      2.942
REMARK  7 active torsions:
REMARK  status: ('A' for Active; 'I' for Inactive)
REMARK    1  A    between atoms: C_5  and  N_6 
REMARK    2  A    between atoms: N_6  and  C_9 
REMARK    3  A    between atoms: C_9  and  C_10 
REMARK    4  A    between atoms: C_10  and  C_11 
REMARK    5  A    between atoms: C_10  and  C_13 
REMARK    6  A    between atoms: C_11  and  O_12 
REMARK    7  A    between atoms: C_13  and  C_14 
ROOT
HETATM    1  N   UNL     1     -40.823  56.180 -52.832  1.00  0.00    -0.066 N 
HETATM    2  H   UNL     1     -39.998  56.129 -52.209  1.00  0.00     0.278 HD
HETATM    3  H   UNL     1     -40.446  56.150 -53.799  1.00  0.00     0.278 HD
ENDROOT
BRANCH   1   4
HETATM    4  C   UNL     1     -41.705  55.007 -52.637  1.00  0.00     0.220 C 
HETATM    5  C   UNL     1     -41.048  53.733 -53.067  1.00  0.00    -0.021 A 
HETATM    6  C   UNL     1     -40.653  52.954 -51.970  1.00  0.00    -0.040 A 
HETATM    7  C   UNL     1     -40.809  53.318 -54.371  1.00  0.00     0.010 A 
HETATM    8  C   UNL     1     -40.026  51.724 -52.158  1.00  0.00    -0.055 A 
HETATM    9  C   UNL     1     -41.000  53.638 -50.675  1.00  0.00     0.018 C 
HETATM   10  C   UNL     1     -39.573  50.864 -51.015  1.00  0.00     0.049 C 
HETATM   11  C   UNL     1     -39.775  51.314 -53.476  1.00  0.00     0.007 A 
HETATM   12  C   UNL     1     -40.164  52.099 -54.569  1.00  0.00     0.001 A 
HETATM   13  C   UNL     1     -41.975  54.745 -51.146  1.00  0.00     0.047 C 
HETATM   14  C   UNL     1     -39.773  54.192 -49.963  1.00  0.00     0.015 C 
ENDBRANCH   1   4
BRANCH   1  15
HETATM   15  C   UNL     1     -41.447  57.521 -52.655  1.00  0.00     0.240 C 
BRANCH  15  16
HETATM   16  C   UNL     1     -41.768  58.161 -54.021  1.00  0.00     0.040 C 
BRANCH  16  17
HETATM   17  C   UNL     1     -41.638  59.689 -53.927  1.00  0.00     0.170 C 
BRANCH  17  18
HETATM   18  O   UNL     1     -41.619  60.242 -55.245  1.00  0.00    -0.400 OA
HETATM   19  H   UNL     1     -41.031  59.664 -55.776  1.00  0.00     0.209 HD
ENDBRANCH  17  18
ENDBRANCH  16  17
BRANCH  16  20
HETATM   20  C   UNL     1     -43.163  57.808 -54.583  1.00  0.00     0.067 C 
BRANCH  20  21
HETATM   21  C   UNL     1     -43.116  57.156 -55.938  1.00  0.00     0.034 A 
HETATM   22  N   UNL     1     -43.162  57.992 -57.011  1.00  0.00    -0.266 NA
HETATM   23  C   UNL     1     -43.105  57.406 -58.234  1.00  0.00     0.117 A 
HETATM   24  C   UNL     1     -43.018  56.040 -58.439  1.00  0.00     0.019 A 
HETATM   25  C   UNL     1     -42.982  55.211 -57.328  1.00  0.00     0.003 A 
HETATM   26  C   UNL     1     -43.032  55.771 -56.056  1.00  0.00     0.027 A 
ENDBRANCH  20  21
ENDBRANCH  16  20
ENDBRANCH  15  16
ENDBRANCH   1  15
TORSDOF 7
ENDMDL
MODEL 10
REMARK VINA RESULT:      -6.9      2.258      3.986
REMARK  7 active torsions:
REMARK  status: ('A' for Active; 'I' for Inactive)
REMARK    1  A    between atoms: C_5  and  N_6 
REMARK    2  A    between atoms: N_6  and  C_9 
REMARK    3  A    between atoms: C_9  and  C_10 
REMARK    4  A    between atoms: C_10  and  C_11 
REMARK    5  A    between atoms: C_10  and  C_13 
REMARK    6  A    between atoms: C_11  and  O_12 
REMARK    7  A    between atoms: C_13  and  C_14 
ROOT
HETATM    1  N   UNL     1     -42.965  55.645 -52.456  1.00  0.00    -0.066 N 
HETATM    2  H   UNL     1     -43.337  55.666 -53.421  1.00  0.00     0.278 HD
HETATM    3  H   UNL     1     -43.332  54.770 -52.034  1.00  0.00     0.278 HD
ENDROOT
BRANCH   1   4
HETATM    4  C   UNL     1     -41.486  55.580 -52.460  1.00  0.00     0.220 C 
HETATM    5  C   UNL     1     -40.978  54.320 -51.831  1.00  0.00    -0.021 A 
HETATM    6  C   UNL     1     -40.494  53.418 -52.789  1.00  0.00    -0.040 A 
HETATM    7  C   UNL     1     -40.973  54.008 -50.478  1.00  0.00     0.010 A 
HETATM    8  C   UNL     1     -39.971  52.185 -52.407  1.00  0.00    -0.055 A 
HETATM    9  C   UNL     1     -40.638  53.982 -54.177  1.00  0.00     0.018 C 
HETATM   10  C   UNL     1     -39.455  51.182 -53.397  1.00  0.00     0.049 C 
HETATM   11  C   UNL     1     -39.979  51.868 -51.039  1.00  0.00     0.007 A 
HETATM   12  C   UNL     1     -40.471  52.769 -50.086  1.00  0.00     0.001 A 
HETATM   13  C   UNL     1     -40.930  55.475 -53.890  1.00  0.00     0.047 C 
HETATM   14  C   UNL     1     -41.747  53.302 -54.969  1.00  0.00     0.015 C 
ENDBRANCH   1   4
BRANCH   1  15
HETATM   15  C   UNL     1     -43.581  56.774 -51.705  1.00  0.00     0.240 C 
BRANCH  15  16
HETATM   16  C   UNL     1     -44.223  57.791 -52.671  1.00  0.00     0.040 C 
BRANCH  16  17
HETATM   17  C   UNL     1     -44.160  57.257 -54.111  1.00  0.00     0.170 C 
BRANCH  17  18
HETATM   18  O   UNL     1     -45.159  56.249 -54.283  1.00  0.00    -0.400 OA
HETATM   19  H   UNL     1     -44.879  55.489 -53.730  1.00  0.00     0.209 HD
ENDBRANCH  17  18
ENDBRANCH  16  17
BRANCH  16  20
HETATM   20  C   UNL     1     -43.595  59.201 -52.629  1.00  0.00     0.067 C 
BRANCH  20  21
HETATM   21  C   UNL     1     -42.182  59.213 -52.111  1.00  0.00     0.034 A 
HETATM   22  N   UNL     1     -42.033  59.409 -50.773  1.00  0.00    -0.266 NA
HETATM   23  C   UNL     1     -40.760  59.406 -50.302  1.00  0.00     0.117 A 
HETATM   24  C   UNL     1     -39.638  59.230 -51.093  1.00  0.00     0.019 A 
HETATM   25  C   UNL     1     -39.819  59.041 -52.455  1.00  0.00     0.003 A 
HETATM   26  C   UNL     1     -41.108  59.032 -52.977  1.00  0.00     0.027 A 
ENDBRANCH  20  21
ENDBRANCH  16  20
ENDBRANCH  15  16
ENDBRANCH   1  15
TORSDOF 7
ENDMDL
