MODEL 1
REMARK VINA RESULT:      -8.2      0.000      0.000
REMARK  8 active torsions:
REMARK  status: ('A' for Active; 'I' for Inactive)
REMARK    1  A    between atoms: C_2  and  N_3 
REMARK    2  A    between atoms: N_3  and  N_4 
REMARK       I    between atoms: N_4  and  C_5 
REMARK    3  A    between atoms: C_5  and  C_6 
REMARK       I    between atoms: C_6  and  N_7 
REMARK    4  A    between atoms: N_7  and  C_8 
REMARK    5  A    between atoms: C_8  and  C_9 
REMARK    6  A    between atoms: C_17  and  C_18 
REMARK       I    between atoms: C_18  and  N_19 
REMARK    7  A    between atoms: N_19  and  C_20 
REMARK    8  A    between atoms: C_21  and  O_22 
ROOT
HETATM    1  N   UNL     1     -43.065  57.943 -50.695  1.00  0.00    -0.302 N 
HETATM    2  H   UNL     1     -42.396  58.607 -50.287  1.00  0.00     0.186 HD
ENDROOT
BRANCH   1   3
HETATM    3  C   UNL     1     -43.676  58.382 -51.857  1.00  0.00     0.027 C 
HETATM    4  C   UNL     1     -45.188  58.458 -51.748  1.00  0.00     0.070 C 
HETATM    5  C   UNL     1     -43.124  58.701 -53.046  1.00  0.00     0.100 C 
BRANCH   5   6
HETATM    6  C   UNL     1     -41.693  58.611 -53.448  1.00  0.00     0.247 C 
HETATM    7  N   UNL     1     -41.302  57.561 -54.231  1.00  0.00    -0.321 N 
HETATM    8  H   UNL     1     -40.301  57.395 -54.182  1.00  0.00     0.169 HD
HETATM    9  O   UNL     1     -40.831  59.363 -52.995  1.00  0.00    -0.268 OA
BRANCH   7  10
HETATM   10  C   UNL     1     -42.009  56.682 -55.071  1.00  0.00     0.070 A 
HETATM   11  C   UNL     1     -42.427  55.452 -54.533  1.00  0.00     0.095 A 
HETATM   12  C   UNL     1     -43.056  54.492 -55.326  1.00  0.00     0.041 A 
HETATM   13  C   UNL     1     -43.297  54.763 -56.671  1.00  0.00     0.026 A 
HETATM   14  C   UNL     1     -42.884  55.978 -57.214  1.00  0.00     0.036 A 
HETATM   15 CL   UNL     1     -43.156  56.297 -58.884  1.00  0.00    -0.084 Cl
HETATM   16  C   UNL     1     -42.235  56.934 -56.426  1.00  0.00     0.056 A 
BRANCH  11  17
HETATM   17  O   UNL     1     -42.218  55.139 -53.212  1.00  0.00    -0.354 OA
HETATM   18  C   UNL     1     -43.266  54.303 -52.714  1.00  0.00     0.210 C 
ENDBRANCH  11  17
ENDBRANCH   7  10
ENDBRANCH   5   6
ENDBRANCH   1   3
BRANCH   1  19
HETATM   19  N   UNL     1     -42.667  56.619 -50.493  1.00  0.00    -0.262 N 
HETATM   20  C   UNL     1     -41.325  56.391 -50.263  1.00  0.00     0.327 C 
HETATM   21  O   UNL     1     -40.426  57.212 -50.421  1.00  0.00    -0.261 OA
HETATM   22  H   UNL     1     -43.368  55.974 -50.108  1.00  0.00     0.190 HD
BRANCH  20  23
HETATM   23  C   UNL     1     -41.000  54.975 -49.751  1.00  0.00     0.311 C 
HETATM   24  N   UNL     1     -40.429  54.167 -50.707  1.00  0.00    -0.349 N 
HETATM   25  H   UNL     1     -40.212  54.588 -51.608  1.00  0.00     0.163 HD
HETATM   26  O   UNL     1     -41.239  54.648 -48.598  1.00  0.00    -0.262 OA
BRANCH  24  27
HETATM   27  C   UNL     1     -39.990  52.831 -50.406  1.00  0.00     0.161 C 
BRANCH  27  28
HETATM   28  C   UNL     1     -39.928  51.986 -51.649  1.00  0.00    -0.041 A 
HETATM   29  C   UNL     1     -39.613  50.622 -51.574  1.00  0.00     0.009 A 
HETATM   30  C   UNL     1     -39.547  49.847 -52.734  1.00  0.00     0.001 A 
HETATM   31  C   UNL     1     -39.788  50.427 -53.978  1.00  0.00     0.000 A 
HETATM   32  C   UNL     1     -40.094  51.784 -54.066  1.00  0.00     0.001 A 
HETATM   33  C   UNL     1     -40.163  52.559 -52.908  1.00  0.00     0.009 A 
ENDBRANCH  27  28
ENDBRANCH  24  27
ENDBRANCH  20  23
ENDBRANCH   1  19
TORSDOF 8
ENDMDL
MODEL 2
REMARK VINA RESULT:      -8.1      2.262      3.317
REMARK  8 active torsions:
REMARK  status: ('A' for Active; 'I' for Inactive)
REMARK    1  A    between atoms: C_2  and  N_3 
REMARK    2  A    between atoms: N_3  and  N_4 
REMARK       I    between atoms: N_4  and  C_5 
REMARK    3  A    between atoms: C_5  and  C_6 
REMARK       I    between atoms: C_6  and  N_7 
REMARK    4  A    between atoms: N_7  and  C_8 
REMARK    5  A    between atoms: C_8  and  C_9 
REMARK    6  A    between atoms: C_17  and  C_18 
REMARK       I    between atoms: C_18  and  N_19 
REMARK    7  A    between atoms: N_19  and  C_20 
REMARK    8  A    between atoms: C_21  and  O_22 
ROOT
HETATM    1  N   UNL     1     -44.365  56.578 -52.105  1.00  0.00    -0.302 N 
HETATM    2  H   UNL     1     -45.052  56.907 -51.415  1.00  0.00     0.186 HD
ENDROOT
BRANCH   1   3
HETATM    3  C   UNL     1     -44.344  57.300 -53.286  1.00  0.00     0.027 C 
HETATM    4  C   UNL     1     -44.850  58.722 -53.130  1.00  0.00     0.070 C 
HETATM    5  C   UNL     1     -43.983  56.904 -54.524  1.00  0.00     0.100 C 
BRANCH   5   6
HETATM    6  C   UNL     1     -43.556  55.548 -54.969  1.00  0.00     0.247 C 
HETATM    7  N   UNL     1     -43.340  55.338 -56.302  1.00  0.00    -0.321 N 
HETATM    8  H   UNL     1     -43.381  54.354 -56.549  1.00  0.00     0.169 HD
HETATM    9  O   UNL     1     -43.524  54.583 -54.206  1.00  0.00    -0.268 OA
BRANCH   7  10
HETATM   10  C   UNL     1     -43.082  56.210 -57.376  1.00  0.00     0.070 A 
HETATM   11  C   UNL     1     -43.371  55.756 -58.674  1.00  0.00     0.095 A 
HETATM   12  C   UNL     1     -43.062  56.528 -59.795  1.00  0.00     0.041 A 
HETATM   13  C   UNL     1     -42.477  57.781 -59.626  1.00  0.00     0.026 A 
HETATM   14  C   UNL     1     -42.185  58.238 -58.343  1.00  0.00     0.036 A 
HETATM   15 CL   UNL     1     -41.434  59.774 -58.139  1.00  0.00    -0.084 Cl
HETATM   16  C   UNL     1     -42.475  57.458 -57.218  1.00  0.00     0.056 A 
BRANCH  11  17
HETATM   17  O   UNL     1     -43.952  54.532 -58.894  1.00  0.00    -0.354 OA
HETATM   18  C   UNL     1     -44.860  54.588 -59.999  1.00  0.00     0.210 C 
ENDBRANCH  11  17
ENDBRANCH   7  10
ENDBRANCH   5   6
ENDBRANCH   1   3
BRANCH   1  19
HETATM   19  N   UNL     1     -43.212  56.083 -51.490  1.00  0.00    -0.262 N 
HETATM   20  C   UNL     1     -43.363  55.009 -50.637  1.00  0.00     0.327 C 
HETATM   21  O   UNL     1     -44.433  54.581 -50.213  1.00  0.00    -0.261 OA
HETATM   22  H   UNL     1     -42.322  56.220 -51.986  1.00  0.00     0.190 HD
BRANCH  20  23
HETATM   23  C   UNL     1     -42.042  54.325 -50.236  1.00  0.00     0.311 C 
HETATM   24  N   UNL     1     -41.391  53.734 -51.294  1.00  0.00    -0.349 N 
HETATM   25  H   UNL     1     -41.788  53.863 -52.221  1.00  0.00     0.163 HD
HETATM   26  O   UNL     1     -41.649  54.337 -49.079  1.00  0.00    -0.262 OA
BRANCH  24  27
HETATM   27  C   UNL     1     -40.107  53.104 -51.135  1.00  0.00     0.161 C 
BRANCH  27  28
HETATM   28  C   UNL     1     -39.947  51.950 -52.087  1.00  0.00    -0.041 A 
HETATM   29  C   UNL     1     -40.155  52.120 -53.463  1.00  0.00     0.009 A 
HETATM   30  C   UNL     1     -40.015  51.041 -54.338  1.00  0.00     0.001 A 
HETATM   31  C   UNL     1     -39.673  49.782 -53.848  1.00  0.00     0.000 A 
HETATM   32  C   UNL     1     -39.472  49.598 -52.482  1.00  0.00     0.001 A 
HETATM   33  C   UNL     1     -39.609  50.676 -51.605  1.00  0.00     0.009 A 
ENDBRANCH  27  28
ENDBRANCH  24  27
ENDBRANCH  20  23
ENDBRANCH   1  19
TORSDOF 8
ENDMDL
MODEL 3
REMARK VINA RESULT:      -7.7      1.611      2.138
REMARK  8 active torsions:
REMARK  status: ('A' for Active; 'I' for Inactive)
REMARK    1  A    between atoms: C_2  and  N_3 
REMARK    2  A    between atoms: N_3  and  N_4 
REMARK       I    between atoms: N_4  and  C_5 
REMARK    3  A    between atoms: C_5  and  C_6 
REMARK       I    between atoms: C_6  and  N_7 
REMARK    4  A    between atoms: N_7  and  C_8 
REMARK    5  A    between atoms: C_8  and  C_9 
REMARK    6  A    between atoms: C_17  and  C_18 
REMARK       I    between atoms: C_18  and  N_19 
REMARK    7  A    between atoms: N_19  and  C_20 
REMARK    8  A    between atoms: C_21  and  O_22 
ROOT
HETATM    1  N   UNL     1     -41.943  57.976 -50.482  1.00  0.00    -0.302 N 
HETATM    2  H   UNL     1     -42.008  58.745 -49.803  1.00  0.00     0.186 HD
ENDROOT
BRANCH   1   3
HETATM    3  C   UNL     1     -41.673  58.375 -51.779  1.00  0.00     0.027 C 
HETATM    4  C   UNL     1     -40.254  58.878 -51.971  1.00  0.00     0.070 C 
HETATM    5  C   UNL     1     -42.492  58.413 -52.851  1.00  0.00     0.100 C 
BRANCH   5   6
HETATM    6  C   UNL     1     -43.943  58.081 -52.911  1.00  0.00     0.247 C 
HETATM    7  N   UNL     1     -44.484  57.744 -54.120  1.00  0.00    -0.321 N 
HETATM    8  H   UNL     1     -45.494  57.859 -54.137  1.00  0.00     0.169 HD
HETATM    9  O   UNL     1     -44.695  58.231 -51.949  1.00  0.00    -0.268 OA
BRANCH   7  10
HETATM   10  C   UNL     1     -43.919  57.284 -55.323  1.00  0.00     0.070 A 
HETATM   11  C   UNL     1     -43.598  55.919 -55.418  1.00  0.00     0.095 A 
HETATM   12  C   UNL     1     -42.956  55.403 -56.544  1.00  0.00     0.041 A 
HETATM   13  C   UNL     1     -42.646  56.250 -57.606  1.00  0.00     0.026 A 
HETATM   14  C   UNL     1     -42.959  57.605 -57.520  1.00  0.00     0.036 A 
HETATM   15 CL   UNL     1     -42.548  58.655 -58.822  1.00  0.00    -0.084 Cl
HETATM   16  C   UNL     1     -43.584  58.129 -56.384  1.00  0.00     0.056 A 
BRANCH  11  17
HETATM   17  O   UNL     1     -43.887  55.041 -54.401  1.00  0.00    -0.354 OA
HETATM   18  C   UNL     1     -42.688  54.549 -53.795  1.00  0.00     0.210 C 
ENDBRANCH  11  17
ENDBRANCH   7  10
ENDBRANCH   5   6
ENDBRANCH   1   3
BRANCH   1  19
HETATM   19  N   UNL     1     -41.401  56.824 -49.906  1.00  0.00    -0.262 N 
HETATM   20  C   UNL     1     -42.098  55.646 -50.075  1.00  0.00     0.327 C 
HETATM   21  O   UNL     1     -43.245  55.551 -50.504  1.00  0.00    -0.261 OA
HETATM   22  H   UNL     1     -40.381  56.801 -49.780  1.00  0.00     0.190 HD
BRANCH  20  23
HETATM   23  C   UNL     1     -41.309  54.380 -49.688  1.00  0.00     0.311 C 
HETATM   24  N   UNL     1     -40.727  53.751 -50.764  1.00  0.00    -0.349 N 
HETATM   25  H   UNL     1     -40.804  54.205 -51.671  1.00  0.00     0.163 HD
HETATM   26  O   UNL     1     -41.233  54.012 -48.526  1.00  0.00    -0.262 OA
BRANCH  24  27
HETATM   27  C   UNL     1     -39.892  52.591 -50.601  1.00  0.00     0.161 C 
BRANCH  27  28
HETATM   28  C   UNL     1     -39.875  51.753 -51.851  1.00  0.00    -0.041 A 
HETATM   29  C   UNL     1     -40.134  52.327 -53.103  1.00  0.00     0.009 A 
HETATM   30  C   UNL     1     -40.127  51.541 -54.257  1.00  0.00     0.001 A 
HETATM   31  C   UNL     1     -39.868  50.175 -54.171  1.00  0.00     0.000 A 
HETATM   32  C   UNL     1     -39.617  49.590 -52.930  1.00  0.00     0.001 A 
HETATM   33  C   UNL     1     -39.621  50.375 -51.777  1.00  0.00     0.009 A 
ENDBRANCH  27  28
ENDBRANCH  24  27
ENDBRANCH  20  23
ENDBRANCH   1  19
TORSDOF 8
ENDMDL
MODEL 4
REMARK VINA RESULT:      -7.7      2.484      3.749
REMARK  8 active torsions:
REMARK  status: ('A' for Active; 'I' for Inactive)
REMARK    1  A    between atoms: C_2  and  N_3 
REMARK    2  A    between atoms: N_3  and  N_4 
REMARK       I    between atoms: N_4  and  C_5 
REMARK    3  A    between atoms: C_5  and  C_6 
REMARK       I    between atoms: C_6  and  N_7 
REMARK    4  A    between atoms: N_7  and  C_8 
REMARK    5  A    between atoms: C_8  and  C_9 
REMARK    6  A    between atoms: C_17  and  C_18 
REMARK       I    between atoms: C_18  and  N_19 
REMARK    7  A    between atoms: N_19  and  C_20 
REMARK    8  A    between atoms: C_21  and  O_22 
ROOT
HETATM    1  N   UNL     1     -45.028  56.564 -54.589  1.00  0.00    -0.302 N 
HETATM    2  H   UNL     1     -46.050  56.475 -54.518  1.00  0.00     0.186 HD
ENDROOT
BRANCH   1   3
HETATM    3  C   UNL     1     -44.587  57.798 -55.033  1.00  0.00     0.027 C 
HETATM    4  C   UNL     1     -45.689  58.839 -55.106  1.00  0.00     0.070 C 
HETATM    5  C   UNL     1     -43.355  58.172 -55.435  1.00  0.00     0.100 C 
BRANCH   5   6
HETATM    6  C   UNL     1     -42.133  57.329 -55.562  1.00  0.00     0.247 C 
HETATM    7  N   UNL     1     -42.010  56.523 -56.659  1.00  0.00    -0.321 N 
HETATM    8  H   UNL     1     -41.348  55.768 -56.510  1.00  0.00     0.169 HD
HETATM    9  O   UNL     1     -41.304  57.229 -54.659  1.00  0.00    -0.268 OA
BRANCH   7  10
HETATM   10  C   UNL     1     -42.619  56.538 -57.927  1.00  0.00     0.070 A 
HETATM   11  C   UNL     1     -42.385  57.650 -58.755  1.00  0.00     0.095 A 
HETATM   12  C   UNL     1     -43.021  57.778 -59.990  1.00  0.00     0.041 A 
HETATM   13  C   UNL     1     -43.888  56.777 -60.423  1.00  0.00     0.026 A 
HETATM   14  C   UNL     1     -44.128  55.673 -59.608  1.00  0.00     0.036 A 
HETATM   15 CL   UNL     1     -45.223  54.453 -60.133  1.00  0.00    -0.084 Cl
HETATM   16  C   UNL     1     -43.507  55.552 -58.361  1.00  0.00     0.056 A 
BRANCH  11  17
HETATM   17  O   UNL     1     -41.535  58.660 -58.377  1.00  0.00    -0.354 OA
HETATM   18  C   UNL     1     -42.206  59.924 -58.390  1.00  0.00     0.210 C 
ENDBRANCH  11  17
ENDBRANCH   7  10
ENDBRANCH   5   6
ENDBRANCH   1   3
BRANCH   1  19
HETATM   19  N   UNL     1     -44.377  55.831 -53.594  1.00  0.00    -0.262 N 
HETATM   20  C   UNL     1     -43.620  54.750 -53.999  1.00  0.00     0.327 C 
HETATM   21  O   UNL     1     -43.630  54.254 -55.122  1.00  0.00    -0.261 OA
HETATM   22  H   UNL     1     -44.133  56.330 -52.729  1.00  0.00     0.190 HD
BRANCH  20  23
HETATM   23  C   UNL     1     -42.695  54.177 -52.907  1.00  0.00     0.311 C 
HETATM   24  N   UNL     1     -41.377  54.104 -53.293  1.00  0.00    -0.349 N 
HETATM   25  H   UNL     1     -41.131  54.492 -54.200  1.00  0.00     0.163 HD
HETATM   26  O   UNL     1     -43.135  53.839 -51.819  1.00  0.00    -0.262 OA
BRANCH  24  27
HETATM   27  C   UNL     1     -40.348  53.661 -52.391  1.00  0.00     0.161 C 
BRANCH  27  28
HETATM   28  C   UNL     1     -40.078  52.190 -52.555  1.00  0.00    -0.041 A 
HETATM   29  C   UNL     1     -39.768  51.389 -51.447  1.00  0.00     0.009 A 
HETATM   30  C   UNL     1     -39.508  50.027 -51.610  1.00  0.00     0.001 A 
HETATM   31  C   UNL     1     -39.548  49.454 -52.879  1.00  0.00     0.000 A 
HETATM   32  C   UNL     1     -39.846  50.241 -53.990  1.00  0.00     0.001 A 
HETATM   33  C   UNL     1     -40.109  51.602 -53.829  1.00  0.00     0.009 A 
ENDBRANCH  27  28
ENDBRANCH  24  27
ENDBRANCH  20  23
ENDBRANCH   1  19
TORSDOF 8
ENDMDL
MODEL 5
REMARK VINA RESULT:      -7.7      1.459      2.267
REMARK  8 active torsions:
REMARK  status: ('A' for Active; 'I' for Inactive)
REMARK    1  A    between atoms: C_2  and  N_3 
REMARK    2  A    between atoms: N_3  and  N_4 
REMARK       I    between atoms: N_4  and  C_5 
REMARK    3  A    between atoms: C_5  and  C_6 
REMARK       I    between atoms: C_6  and  N_7 
REMARK    4  A    between atoms: N_7  and  C_8 
REMARK    5  A    between atoms: C_8  and  C_9 
REMARK    6  A    between atoms: C_17  and  C_18 
REMARK       I    between atoms: C_18  and  N_19 
REMARK    7  A    between atoms: N_19  and  C_20 
REMARK    8  A    between atoms: C_21  and  O_22 
ROOT
HETATM    1  N   UNL     1     -43.226  58.042 -50.771  1.00  0.00    -0.302 N 
HETATM    2  H   UNL     1     -42.411  58.631 -50.558  1.00  0.00     0.186 HD
ENDROOT
BRANCH   1   3
HETATM    3  C   UNL     1     -44.000  58.492 -51.827  1.00  0.00     0.027 C 
HETATM    4  C   UNL     1     -45.471  58.147 -51.684  1.00  0.00     0.070 C 
HETATM    5  C   UNL     1     -43.623  59.140 -52.949  1.00  0.00     0.100 C 
BRANCH   5   6
HETATM    6  C   UNL     1     -42.244  59.500 -53.384  1.00  0.00     0.247 C 
HETATM    7  N   UNL     1     -41.594  58.663 -54.247  1.00  0.00    -0.321 N 
HETATM    8  H   UNL     1     -40.587  58.795 -54.228  1.00  0.00     0.169 HD
HETATM    9  O   UNL     1     -41.622  60.442 -52.894  1.00  0.00    -0.268 OA
BRANCH   7  10
HETATM   10  C   UNL     1     -42.046  57.669 -55.135  1.00  0.00     0.070 A 
HETATM   11  C   UNL     1     -42.428  58.068 -56.427  1.00  0.00     0.095 A 
HETATM   12  C   UNL     1     -42.968  57.156 -57.335  1.00  0.00     0.041 A 
HETATM   13  C   UNL     1     -43.111  55.821 -56.965  1.00  0.00     0.026 A 
HETATM   14  C   UNL     1     -42.737  55.417 -55.684  1.00  0.00     0.036 A 
HETATM   15 CL   UNL     1     -42.943  53.772 -55.219  1.00  0.00    -0.084 Cl
HETATM   16  C   UNL     1     -42.215  56.333 -54.765  1.00  0.00     0.056 A 
BRANCH  11  17
HETATM   17  O   UNL     1     -42.302  59.371 -56.843  1.00  0.00    -0.354 OA
HETATM   18  C   UNL     1     -41.820  59.433 -58.189  1.00  0.00     0.210 C 
ENDBRANCH  11  17
ENDBRANCH   7  10
ENDBRANCH   5   6
ENDBRANCH   1   3
BRANCH   1  19
HETATM   19  N   UNL     1     -42.962  56.691 -50.536  1.00  0.00    -0.262 N 
HETATM   20  C   UNL     1     -41.731  56.209 -50.932  1.00  0.00     0.327 C 
HETATM   21  O   UNL     1     -40.931  56.803 -51.649  1.00  0.00    -0.261 OA
HETATM   22  H   UNL     1     -43.455  56.248 -49.751  1.00  0.00     0.190 HD
BRANCH  20  23
HETATM   23  C   UNL     1     -41.387  54.813 -50.379  1.00  0.00     0.311 C 
HETATM   24  N   UNL     1     -40.455  54.141 -51.136  1.00  0.00    -0.349 N 
HETATM   25  H   UNL     1     -40.039  54.639 -51.919  1.00  0.00     0.163 HD
HETATM   26  O   UNL     1     -41.912  54.389 -49.361  1.00  0.00    -0.262 OA
BRANCH  24  27
HETATM   27  C   UNL     1     -39.952  52.851 -50.747  1.00  0.00     0.161 C 
BRANCH  27  28
HETATM   28  C   UNL     1     -39.935  51.900 -51.913  1.00  0.00    -0.041 A 
HETATM   29  C   UNL     1     -39.608  50.549 -51.732  1.00  0.00     0.009 A 
HETATM   30  C   UNL     1     -39.584  49.675 -52.821  1.00  0.00     0.001 A 
HETATM   31  C   UNL     1     -39.878  50.143 -54.100  1.00  0.00     0.000 A 
HETATM   32  C   UNL     1     -40.197  51.486 -54.294  1.00  0.00     0.001 A 
HETATM   33  C   UNL     1     -40.224  52.360 -53.206  1.00  0.00     0.009 A 
ENDBRANCH  27  28
ENDBRANCH  24  27
ENDBRANCH  20  23
ENDBRANCH   1  19
TORSDOF 8
ENDMDL
MODEL 6
REMARK VINA RESULT:      -7.6      2.773      6.770
REMARK  8 active torsions:
REMARK  status: ('A' for Active; 'I' for Inactive)
REMARK    1  A    between atoms: C_2  and  N_3 
REMARK    2  A    between atoms: N_3  and  N_4 
REMARK       I    between atoms: N_4  and  C_5 
REMARK    3  A    between atoms: C_5  and  C_6 
REMARK       I    between atoms: C_6  and  N_7 
REMARK    4  A    between atoms: N_7  and  C_8 
REMARK    5  A    between atoms: C_8  and  C_9 
REMARK    6  A    between atoms: C_17  and  C_18 
REMARK       I    between atoms: C_18  and  N_19 
REMARK    7  A    between atoms: N_19  and  C_20 
REMARK    8  A    between atoms: C_21  and  O_22 
ROOT
HETATM    1  N   UNL     1     -42.638  58.306 -53.224  1.00  0.00    -0.302 N 
HETATM    2  H   UNL     1     -43.633  58.559 -53.183  1.00  0.00     0.186 HD
ENDROOT
BRANCH   1   3
HETATM    3  C   UNL     1     -42.059  58.051 -51.993  1.00  0.00     0.027 C 
HETATM    4  C   UNL     1     -40.735  58.766 -51.792  1.00  0.00     0.070 C 
HETATM    5  C   UNL     1     -42.484  57.245 -50.998  1.00  0.00     0.100 C 
BRANCH   5   6
HETATM    6  C   UNL     1     -43.680  56.358 -50.981  1.00  0.00     0.247 C 
HETATM    7  N   UNL     1     -43.558  55.091 -51.481  1.00  0.00    -0.321 N 
HETATM    8  H   UNL     1     -44.455  54.688 -51.733  1.00  0.00     0.169 HD
HETATM    9  O   UNL     1     -44.798  56.762 -50.663  1.00  0.00    -0.268 OA
BRANCH   7  10
HETATM   10  C   UNL     1     -42.447  54.260 -51.713  1.00  0.00     0.070 A 
HETATM   11  C   UNL     1     -41.687  53.854 -50.603  1.00  0.00     0.095 A 
HETATM   12  C   UNL     1     -40.522  53.102 -50.760  1.00  0.00     0.041 A 
HETATM   13  C   UNL     1     -40.114  52.726 -52.038  1.00  0.00     0.026 A 
HETATM   14  C   UNL     1     -40.860  53.126 -53.145  1.00  0.00     0.036 A 
HETATM   15 CL   UNL     1     -40.337  52.686 -54.725  1.00  0.00    -0.084 Cl
HETATM   16  C   UNL     1     -42.017  53.898 -52.992  1.00  0.00     0.056 A 
BRANCH  11  17
HETATM   17  O   UNL     1     -42.049  54.193 -49.322  1.00  0.00    -0.354 OA
HETATM   18  C   UNL     1     -40.923  54.675 -48.583  1.00  0.00     0.210 C 
ENDBRANCH  11  17
ENDBRANCH   7  10
ENDBRANCH   5   6
ENDBRANCH   1   3
BRANCH   1  19
HETATM   19  N   UNL     1     -42.338  57.577 -54.377  1.00  0.00    -0.262 N 
HETATM   20  C   UNL     1     -43.313  56.728 -54.860  1.00  0.00     0.327 C 
HETATM   21  O   UNL     1     -44.334  56.402 -54.261  1.00  0.00    -0.261 OA
HETATM   22  H   UNL     1     -41.652  57.987 -55.023  1.00  0.00     0.190 HD
BRANCH  20  23
HETATM   23  C   UNL     1     -43.044  56.193 -56.280  1.00  0.00     0.311 C 
HETATM   24  N   UNL     1     -43.199  57.146 -57.260  1.00  0.00    -0.349 N 
HETATM   25  H   UNL     1     -43.395  58.098 -56.962  1.00  0.00     0.163 HD
HETATM   26  O   UNL     1     -42.721  55.030 -56.467  1.00  0.00    -0.262 OA
BRANCH  24  27
HETATM   27  C   UNL     1     -42.926  56.860 -58.643  1.00  0.00     0.161 C 
BRANCH  27  28
HETATM   28  C   UNL     1     -44.191  56.537 -59.391  1.00  0.00    -0.041 A 
HETATM   29  C   UNL     1     -44.204  55.549 -60.385  1.00  0.00     0.009 A 
HETATM   30  C   UNL     1     -45.380  55.264 -61.082  1.00  0.00     0.001 A 
HETATM   31  C   UNL     1     -46.549  55.966 -60.799  1.00  0.00     0.000 A 
HETATM   32  C   UNL     1     -46.546  56.957 -59.819  1.00  0.00     0.001 A 
HETATM   33  C   UNL     1     -45.373  57.242 -59.119  1.00  0.00     0.009 A 
ENDBRANCH  27  28
ENDBRANCH  24  27
ENDBRANCH  20  23
ENDBRANCH   1  19
TORSDOF 8
ENDMDL
MODEL 7
REMARK VINA RESULT:      -7.5      4.773      8.522
REMARK  8 active torsions:
REMARK  status: ('A' for Active; 'I' for Inactive)
REMARK    1  A    between atoms: C_2  and  N_3 
REMARK    2  A    between atoms: N_3  and  N_4 
REMARK       I    between atoms: N_4  and  C_5 
REMARK    3  A    between atoms: C_5  and  C_6 
REMARK       I    between atoms: C_6  and  N_7 
REMARK    4  A    between atoms: N_7  and  C_8 
REMARK    5  A    between atoms: C_8  and  C_9 
REMARK    6  A    between atoms: C_17  and  C_18 
REMARK       I    between atoms: C_18  and  N_19 
REMARK    7  A    between atoms: N_19  and  C_20 
REMARK    8  A    between atoms: C_21  and  O_22 
ROOT
HETATM    1  N   UNL     1     -43.742  59.299 -51.494  1.00  0.00    -0.302 N 
HETATM    2  H   UNL     1     -43.716  60.094 -52.144  1.00  0.00     0.186 HD
ENDROOT
BRANCH   1   3
HETATM    3  C   UNL     1     -42.619  58.490 -51.528  1.00  0.00     0.027 C 
HETATM    4  C   UNL     1     -41.366  59.221 -51.974  1.00  0.00     0.070 C 
HETATM    5  C   UNL     1     -42.506  57.172 -51.266  1.00  0.00     0.100 C 
BRANCH   5   6
HETATM    6  C   UNL     1     -43.586  56.208 -50.916  1.00  0.00     0.247 C 
HETATM    7  N   UNL     1     -43.385  54.881 -51.181  1.00  0.00    -0.321 N 
HETATM    8  H   UNL     1     -44.256  54.361 -51.225  1.00  0.00     0.169 HD
HETATM    9  O   UNL     1     -44.696  56.571 -50.529  1.00  0.00    -0.268 OA
BRANCH   7  10
HETATM   10  C   UNL     1     -42.225  54.118 -51.403  1.00  0.00     0.070 A 
HETATM   11  C   UNL     1     -41.392  53.853 -50.303  1.00  0.00     0.095 A 
HETATM   12  C   UNL     1     -40.181  53.178 -50.459  1.00  0.00     0.041 A 
HETATM   13  C   UNL     1     -39.798  52.737 -51.724  1.00  0.00     0.026 A 
HETATM   14  C   UNL     1     -40.617  52.997 -52.821  1.00  0.00     0.036 A 
HETATM   15 CL   UNL     1     -40.127  52.476 -54.388  1.00  0.00    -0.084 Cl
HETATM   16  C   UNL     1     -41.822  53.691 -52.671  1.00  0.00     0.056 A 
BRANCH  11  17
HETATM   17  O   UNL     1     -41.725  54.262 -49.035  1.00  0.00    -0.354 OA
HETATM   18  C   UNL     1     -40.585  54.232 -48.171  1.00  0.00     0.210 C 
ENDBRANCH  11  17
ENDBRANCH   7  10
ENDBRANCH   5   6
ENDBRANCH   1   3
BRANCH   1  19
HETATM   19  N   UNL     1     -44.419  59.618 -50.314  1.00  0.00    -0.262 N 
HETATM   20  C   UNL     1     -44.489  60.952 -49.968  1.00  0.00     0.327 C 
HETATM   21  O   UNL     1     -43.842  61.858 -50.486  1.00  0.00    -0.261 OA
HETATM   22  H   UNL     1     -45.158  58.972 -50.010  1.00  0.00     0.190 HD
BRANCH  20  23
HETATM   23  C   UNL     1     -45.493  61.265 -48.841  1.00  0.00     0.311 C 
HETATM   24  N   UNL     1     -45.317  60.484 -47.722  1.00  0.00    -0.349 N 
HETATM   25  H   UNL     1     -44.522  59.850 -47.713  1.00  0.00     0.163 HD
HETATM   26  O   UNL     1     -46.342  62.133 -48.974  1.00  0.00    -0.262 OA
BRANCH  24  27
HETATM   27  C   UNL     1     -46.111  60.671 -46.537  1.00  0.00     0.161 C 
BRANCH  27  28
HETATM   28  C   UNL     1     -45.421  61.582 -45.559  1.00  0.00    -0.041 A 
HETATM   29  C   UNL     1     -45.712  62.952 -45.526  1.00  0.00     0.009 A 
HETATM   30  C   UNL     1     -45.058  63.793 -44.621  1.00  0.00     0.001 A 
HETATM   31  C   UNL     1     -44.105  63.275 -43.748  1.00  0.00     0.000 A 
HETATM   32  C   UNL     1     -43.801  61.915 -43.776  1.00  0.00     0.001 A 
HETATM   33  C   UNL     1     -44.455  61.073 -44.677  1.00  0.00     0.009 A 
ENDBRANCH  27  28
ENDBRANCH  24  27
ENDBRANCH  20  23
ENDBRANCH   1  19
TORSDOF 8
ENDMDL
MODEL 8
REMARK VINA RESULT:      -7.4      3.810      7.968
REMARK  8 active torsions:
REMARK  status: ('A' for Active; 'I' for Inactive)
REMARK    1  A    between atoms: C_2  and  N_3 
REMARK    2  A    between atoms: N_3  and  N_4 
REMARK       I    between atoms: N_4  and  C_5 
REMARK    3  A    between atoms: C_5  and  C_6 
REMARK       I    between atoms: C_6  and  N_7 
REMARK    4  A    between atoms: N_7  and  C_8 
REMARK    5  A    between atoms: C_8  and  C_9 
REMARK    6  A    between atoms: C_17  and  C_18 
REMARK       I    between atoms: C_18  and  N_19 
REMARK    7  A    between atoms: N_19  and  C_20 
REMARK    8  A    between atoms: C_21  and  O_22 
ROOT
HETATM    1  N   UNL     1     -42.833  57.148 -50.760  1.00  0.00    -0.302 N 
HETATM    2  H   UNL     1     -43.310  56.450 -51.344  1.00  0.00     0.186 HD
ENDROOT
BRANCH   1   3
HETATM    3  C   UNL     1     -41.464  56.973 -50.658  1.00  0.00     0.027 C 
HETATM    4  C   UNL     1     -40.666  58.140 -51.211  1.00  0.00     0.070 C 
HETATM    5  C   UNL     1     -40.769  55.918 -50.184  1.00  0.00     0.100 C 
BRANCH   5   6
HETATM    6  C   UNL     1     -41.298  54.617 -49.687  1.00  0.00     0.247 C 
HETATM    7  N   UNL     1     -41.779  53.719 -50.598  1.00  0.00    -0.321 N 
HETATM    8  H   UNL     1     -42.401  53.036 -50.176  1.00  0.00     0.169 HD
HETATM    9  O   UNL     1     -41.442  54.378 -48.489  1.00  0.00    -0.268 OA
BRANCH   7  10
HETATM   10  C   UNL     1     -41.585  53.569 -51.983  1.00  0.00     0.070 A 
HETATM   11  C   UNL     1     -40.429  52.895 -52.415  1.00  0.00     0.095 A 
HETATM   12  C   UNL     1     -40.123  52.782 -53.771  1.00  0.00     0.041 A 
HETATM   13  C   UNL     1     -40.988  53.326 -54.719  1.00  0.00     0.026 A 
HETATM   14  C   UNL     1     -42.134  53.998 -54.300  1.00  0.00     0.036 A 
HETATM   15 CL   UNL     1     -43.185  54.695 -55.472  1.00  0.00    -0.084 Cl
HETATM   16  C   UNL     1     -42.433  54.131 -52.940  1.00  0.00     0.056 A 
BRANCH  11  17
HETATM   17  O   UNL     1     -39.548  52.337 -51.522  1.00  0.00    -0.354 OA
HETATM   18  C   UNL     1     -39.439  50.925 -51.727  1.00  0.00     0.210 C 
ENDBRANCH  11  17
ENDBRANCH   7  10
ENDBRANCH   5   6
ENDBRANCH   1   3
BRANCH   1  19
HETATM   19  N   UNL     1     -43.440  58.403 -50.855  1.00  0.00    -0.262 N 
HETATM   20  C   UNL     1     -44.817  58.446 -50.773  1.00  0.00     0.327 C 
HETATM   21  O   UNL     1     -45.565  57.474 -50.828  1.00  0.00    -0.261 OA
HETATM   22  H   UNL     1     -42.884  59.214 -50.557  1.00  0.00     0.190 HD
BRANCH  20  23
HETATM   23  C   UNL     1     -45.397  59.860 -50.579  1.00  0.00     0.311 C 
HETATM   24  N   UNL     1     -45.441  60.257 -49.263  1.00  0.00    -0.349 N 
HETATM   25  H   UNL     1     -45.030  59.633 -48.572  1.00  0.00     0.163 HD
HETATM   26  O   UNL     1     -45.765  60.529 -51.533  1.00  0.00    -0.262 OA
BRANCH  24  27
HETATM   27  C   UNL     1     -45.886  61.570 -48.882  1.00  0.00     0.161 C 
BRANCH  27  28
HETATM   28  C   UNL     1     -45.513  61.879 -47.458  1.00  0.00    -0.041 A 
HETATM   29  C   UNL     1     -45.589  63.188 -46.964  1.00  0.00     0.009 A 
HETATM   30  C   UNL     1     -45.231  63.468 -45.643  1.00  0.00     0.001 A 
HETATM   31  C   UNL     1     -44.787  62.446 -44.807  1.00  0.00     0.000 A 
HETATM   32  C   UNL     1     -44.698  61.141 -45.289  1.00  0.00     0.001 A 
HETATM   33  C   UNL     1     -45.059  60.859 -46.607  1.00  0.00     0.009 A 
ENDBRANCH  27  28
ENDBRANCH  24  27
ENDBRANCH  20  23
ENDBRANCH   1  19
TORSDOF 8
ENDMDL
MODEL 9
REMARK VINA RESULT:      -7.4      5.465      7.852
REMARK  8 active torsions:
REMARK  status: ('A' for Active; 'I' for Inactive)
REMARK    1  A    between atoms: C_2  and  N_3 
REMARK    2  A    between atoms: N_3  and  N_4 
REMARK       I    between atoms: N_4  and  C_5 
REMARK    3  A    between atoms: C_5  and  C_6 
REMARK       I    between atoms: C_6  and  N_7 
REMARK    4  A    between atoms: N_7  and  C_8 
REMARK    5  A    between atoms: C_8  and  C_9 
REMARK    6  A    between atoms: C_17  and  C_18 
REMARK       I    between atoms: C_18  and  N_19 
REMARK    7  A    between atoms: N_19  and  C_20 
REMARK    8  A    between atoms: C_21  and  O_22 
ROOT
HETATM    1  N   UNL     1     -42.667  59.889 -50.216  1.00  0.00    -0.302 N 
HETATM    2  H   UNL     1     -41.669  60.055 -50.399  1.00  0.00     0.186 HD
ENDROOT
BRANCH   1   3
HETATM    3  C   UNL     1     -43.417  61.036 -50.026  1.00  0.00     0.027 C 
HETATM    4  C   UNL     1     -42.690  62.304 -50.435  1.00  0.00     0.070 C 
HETATM    5  C   UNL     1     -44.653  61.173 -49.502  1.00  0.00     0.100 C 
BRANCH   5   6
HETATM    6  C   UNL     1     -45.532  60.116 -48.930  1.00  0.00     0.247 C 
HETATM    7  N   UNL     1     -45.793  60.142 -47.589  1.00  0.00    -0.321 N 
HETATM    8  H   UNL     1     -46.105  59.241 -47.239  1.00  0.00     0.169 HD
HETATM    9  O   UNL     1     -45.917  59.150 -49.588  1.00  0.00    -0.268 OA
BRANCH   7  10
HETATM   10  C   UNL     1     -45.709  61.158 -46.620  1.00  0.00     0.070 A 
HETATM   11  C   UNL     1     -46.549  62.276 -46.766  1.00  0.00     0.095 A 
HETATM   12  C   UNL     1     -46.464  63.363 -45.896  1.00  0.00     0.041 A 
HETATM   13  C   UNL     1     -45.545  63.335 -44.849  1.00  0.00     0.026 A 
HETATM   14  C   UNL     1     -44.706  62.232 -44.698  1.00  0.00     0.036 A 
HETATM   15 CL   UNL     1     -43.551  62.213 -43.422  1.00  0.00    -0.084 Cl
HETATM   16  C   UNL     1     -44.776  61.150 -45.581  1.00  0.00     0.056 A 
BRANCH  11  17
HETATM   17  O   UNL     1     -47.476  62.350 -47.777  1.00  0.00    -0.354 OA
HETATM   18  C   UNL     1     -47.951  63.690 -47.937  1.00  0.00     0.210 C 
ENDBRANCH  11  17
ENDBRANCH   7  10
ENDBRANCH   5   6
ENDBRANCH   1   3
BRANCH   1  19
HETATM   19  N   UNL     1     -43.139  58.772 -50.910  1.00  0.00    -0.262 N 
HETATM   20  C   UNL     1     -42.281  57.698 -51.039  1.00  0.00     0.327 C 
HETATM   21  O   UNL     1     -41.081  57.711 -50.780  1.00  0.00    -0.261 OA
HETATM   22  H   UNL     1     -44.155  58.617 -50.909  1.00  0.00     0.190 HD
BRANCH  20  23
HETATM   23  C   UNL     1     -42.952  56.404 -51.537  1.00  0.00     0.311 C 
HETATM   24  N   UNL     1     -42.307  55.833 -52.608  1.00  0.00    -0.349 N 
HETATM   25  H   UNL     1     -41.435  56.259 -52.913  1.00  0.00     0.163 HD
HETATM   26  O   UNL     1     -43.956  55.964 -50.997  1.00  0.00    -0.262 OA
BRANCH  24  27
HETATM   27  C   UNL     1     -42.740  54.583 -53.174  1.00  0.00     0.161 C 
BRANCH  27  28
HETATM   28  C   UNL     1     -41.639  53.557 -53.132  1.00  0.00    -0.041 A 
HETATM   29  C   UNL     1     -41.344  52.775 -54.256  1.00  0.00     0.009 A 
HETATM   30  C   UNL     1     -40.328  51.818 -54.205  1.00  0.00     0.001 A 
HETATM   31  C   UNL     1     -39.604  51.628 -53.031  1.00  0.00     0.000 A 
HETATM   32  C   UNL     1     -39.893  52.395 -51.903  1.00  0.00     0.001 A 
HETATM   33  C   UNL     1     -40.906  53.353 -51.953  1.00  0.00     0.009 A 
ENDBRANCH  27  28
ENDBRANCH  24  27
ENDBRANCH  20  23
ENDBRANCH   1  19
TORSDOF 8
ENDMDL
MODEL 10
REMARK VINA RESULT:      -7.4      3.263      4.288
REMARK  8 active torsions:
REMARK  status: ('A' for Active; 'I' for Inactive)
REMARK    1  A    between atoms: C_2  and  N_3 
REMARK    2  A    between atoms: N_3  and  N_4 
REMARK       I    between atoms: N_4  and  C_5 
REMARK    3  A    between atoms: C_5  and  C_6 
REMARK       I    between atoms: C_6  and  N_7 
REMARK    4  A    between atoms: N_7  and  C_8 
REMARK    5  A    between atoms: C_8  and  C_9 
REMARK    6  A    between atoms: C_17  and  C_18 
REMARK       I    between atoms: C_18  and  N_19 
REMARK    7  A    between atoms: N_19  and  C_20 
REMARK    8  A    between atoms: C_21  and  O_22 
ROOT
HETATM    1  N   UNL     1     -44.911  56.232 -54.322  1.00  0.00    -0.302 N 
HETATM    2  H   UNL     1     -45.732  56.359 -53.716  1.00  0.00     0.186 HD
ENDROOT
BRANCH   1   3
HETATM    3  C   UNL     1     -44.516  57.371 -55.001  1.00  0.00     0.027 C 
HETATM    4  C   UNL     1     -45.017  58.654 -54.365  1.00  0.00     0.070 C 
HETATM    5  C   UNL     1     -43.801  57.482 -56.140  1.00  0.00     0.100 C 
BRANCH   5   6
HETATM    6  C   UNL     1     -43.286  56.391 -57.014  1.00  0.00     0.247 C 
HETATM    7  N   UNL     1     -43.447  56.510 -58.366  1.00  0.00    -0.321 N 
HETATM    8  H   UNL     1     -43.378  55.615 -58.842  1.00  0.00     0.169 HD
HETATM    9  O   UNL     1     -42.849  55.334 -56.561  1.00  0.00    -0.268 OA
BRANCH   7  10
HETATM   10  C   UNL     1     -43.689  57.612 -59.205  1.00  0.00     0.070 A 
HETATM   11  C   UNL     1     -45.022  57.896 -59.549  1.00  0.00     0.095 A 
HETATM   12  C   UNL     1     -45.335  58.919 -60.444  1.00  0.00     0.041 A 
HETATM   13  C   UNL     1     -44.312  59.689 -60.994  1.00  0.00     0.026 A 
HETATM   14  C   UNL     1     -42.988  59.412 -60.661  1.00  0.00     0.036 A 
HETATM   15 CL   UNL     1     -41.724  60.346 -61.365  1.00  0.00    -0.084 Cl
HETATM   16  C   UNL     1     -42.669  58.375 -59.779  1.00  0.00     0.056 A 
BRANCH  11  17
HETATM   17  O   UNL     1     -46.067  57.171 -59.031  1.00  0.00    -0.354 OA
HETATM   18  C   UNL     1     -46.867  57.977 -58.162  1.00  0.00     0.210 C 
ENDBRANCH  11  17
ENDBRANCH   7  10
ENDBRANCH   5   6
ENDBRANCH   1   3
BRANCH   1  19
HETATM   19  N   UNL     1     -44.010  55.309 -53.783  1.00  0.00    -0.262 N 
HETATM   20  C   UNL     1     -43.260  55.718 -52.700  1.00  0.00     0.327 C 
HETATM   21  O   UNL     1     -43.163  56.873 -52.295  1.00  0.00    -0.261 OA
HETATM   22  H   UNL     1     -44.233  54.313 -53.904  1.00  0.00     0.190 HD
BRANCH  20  23
HETATM   23  C   UNL     1     -42.521  54.578 -51.972  1.00  0.00     0.311 C 
HETATM   24  N   UNL     1     -41.158  54.606 -52.157  1.00  0.00    -0.349 N 
HETATM   25  H   UNL     1     -40.771  55.391 -52.674  1.00  0.00     0.163 HD
HETATM   26  O   UNL     1     -43.129  53.756 -51.303  1.00  0.00    -0.262 OA
BRANCH  24  27
HETATM   27  C   UNL     1     -40.287  53.667 -51.503  1.00  0.00     0.161 C 
BRANCH  27  28
HETATM   28  C   UNL     1     -40.112  52.422 -52.329  1.00  0.00    -0.041 A 
HETATM   29  C   UNL     1     -40.364  52.434 -53.708  1.00  0.00     0.009 A 
HETATM   30  C   UNL     1     -40.210  51.271 -54.466  1.00  0.00     0.001 A 
HETATM   31  C   UNL     1     -39.810  50.085 -53.853  1.00  0.00     0.000 A 
HETATM   32  C   UNL     1     -39.564  50.058 -52.482  1.00  0.00     0.001 A 
HETATM   33  C   UNL     1     -39.715  51.220 -51.723  1.00  0.00     0.009 A 
ENDBRANCH  27  28
ENDBRANCH  24  27
ENDBRANCH  20  23
ENDBRANCH   1  19
TORSDOF 8
ENDMDL
