MODEL 1
REMARK VINA RESULT:      -7.6      0.000      0.000
REMARK  8 active torsions:
REMARK  status: ('A' for Active; 'I' for Inactive)
REMARK    1  A    between atoms: C_2  and  N_3 
REMARK    2  A    between atoms: C_2  and  C_17 
REMARK    3  A    between atoms: N_3  and  C_6 
REMARK    4  A    between atoms: C_6  and  C_7 
REMARK    5  A    between atoms: C_7  and  O_8 
REMARK    6  A    between atoms: C_7  and  C_9 
REMARK    7  A    between atoms: C_11  and  O_12 
REMARK    8  A    between atoms: C_17  and  C_18 
ROOT
HETATM    1  N   UNL     1     -42.989  55.568 -53.419  1.00  0.00    -0.068 N 
HETATM    2  H   UNL     1     -42.896  54.530 -53.438  1.00  0.00     0.277 HD
HETATM    3  H   UNL     1     -43.687  55.735 -52.673  1.00  0.00     0.277 HD
ENDROOT
BRANCH   1   4
HETATM    4  C   UNL     1     -41.630  56.127 -53.097  1.00  0.00     0.188 C 
HETATM    5  C   UNL     1     -41.738  57.633 -52.891  1.00  0.00     0.040 C 
BRANCH   4   6
HETATM    6  C   UNL     1     -41.064  55.446 -51.832  1.00  0.00     0.099 C 
BRANCH   6   7
HETATM    7  C   UNL     1     -40.657  54.027 -52.104  1.00  0.00     0.078 A 
HETATM    8  S   UNL     1     -40.163  52.999 -50.831  1.00  0.00    -0.073 SA
HETATM    9  C   UNL     1     -39.959  51.708 -51.951  1.00  0.00     0.035 A 
HETATM   10  C   UNL     1     -40.289  52.160 -53.231  1.00  0.00     0.074 A 
HETATM   11  C   UNL     1     -39.541  50.389 -51.713  1.00  0.00     0.021 A 
HETATM   12  N   UNL     1     -40.688  53.492 -53.309  1.00  0.00    -0.245 NA
HETATM   13  C   UNL     1     -40.195  51.260 -54.313  1.00  0.00     0.033 A 
HETATM   14  C   UNL     1     -39.779  49.944 -54.086  1.00  0.00     0.002 A 
HETATM   15  C   UNL     1     -39.457  49.516 -52.801  1.00  0.00     0.002 A 
ENDBRANCH   6   7
ENDBRANCH   4   6
ENDBRANCH   1   4
BRANCH   1  16
HETATM   16  C   UNL     1     -43.633  55.984 -54.711  1.00  0.00     0.269 C 
BRANCH  16  17
HETATM   17  C   UNL     1     -42.952  55.202 -55.854  1.00  0.00     0.177 C 
BRANCH  17  18
HETATM   18  O   UNL     1     -43.683  53.978 -56.037  1.00  0.00    -0.389 OA
HETATM   19  H   UNL     1     -43.574  53.726 -56.977  1.00  0.00     0.210 HD
ENDBRANCH  17  18
BRANCH  17  20
HETATM   20  C   UNL     1     -42.889  56.005 -57.129  1.00  0.00    -0.025 A 
HETATM   21  C   UNL     1     -43.315  55.462 -58.358  1.00  0.00     0.046 A 
HETATM   22  C   UNL     1     -43.279  56.227 -59.525  1.00  0.00     0.068 A 
HETATM   23  C   UNL     1     -42.836  57.549 -59.463  1.00  0.00     0.037 A 
HETATM   24  C   UNL     1     -42.415  58.101 -58.255  1.00  0.00     0.003 A 
HETATM   25  C   UNL     1     -42.440  57.333 -57.092  1.00  0.00     0.010 A 
BRANCH  22  26
HETATM   26  O   UNL     1     -43.661  55.812 -60.769  1.00  0.00    -0.356 OA
HETATM   27  C   UNL     1     -44.998  55.353 -60.924  1.00  0.00     0.210 C 
ENDBRANCH  22  26
ENDBRANCH  17  20
ENDBRANCH  16  17
ENDBRANCH   1  16
TORSDOF 8
ENDMDL
MODEL 2
REMARK VINA RESULT:      -7.3      2.043      2.930
REMARK  8 active torsions:
REMARK  status: ('A' for Active; 'I' for Inactive)
REMARK    1  A    between atoms: C_2  and  N_3 
REMARK    2  A    between atoms: C_2  and  C_17 
REMARK    3  A    between atoms: N_3  and  C_6 
REMARK    4  A    between atoms: C_6  and  C_7 
REMARK    5  A    between atoms: C_7  and  O_8 
REMARK    6  A    between atoms: C_7  and  C_9 
REMARK    7  A    between atoms: C_11  and  O_12 
REMARK    8  A    between atoms: C_17  and  C_18 
ROOT
HETATM    1  N   UNL     1     -41.894  56.161 -56.142  1.00  0.00    -0.068 N 
HETATM    2  H   UNL     1     -41.283  56.923 -55.780  1.00  0.00     0.277 HD
HETATM    3  H   UNL     1     -41.477  55.931 -57.061  1.00  0.00     0.277 HD
ENDROOT
BRANCH   1   4
HETATM    4  C   UNL     1     -41.821  55.029 -55.156  1.00  0.00     0.188 C 
HETATM    5  C   UNL     1     -43.020  54.107 -55.353  1.00  0.00     0.040 C 
BRANCH   4   6
HETATM    6  C   UNL     1     -40.501  54.249 -55.342  1.00  0.00     0.099 C 
BRANCH   6   7
HETATM    7  C   UNL     1     -40.297  53.241 -54.249  1.00  0.00     0.078 A 
HETATM    8  S   UNL     1     -40.436  53.693 -52.606  1.00  0.00    -0.073 SA
HETATM    9  C   UNL     1     -40.124  52.068 -52.132  1.00  0.00     0.035 A 
HETATM   10  C   UNL     1     -39.936  51.288 -53.277  1.00  0.00     0.074 A 
HETATM   11  C   UNL     1     -40.055  51.521 -50.841  1.00  0.00     0.021 A 
HETATM   12  N   UNL     1     -40.037  51.970 -54.486  1.00  0.00    -0.245 NA
HETATM   13  C   UNL     1     -39.667  49.912 -53.122  1.00  0.00     0.033 A 
HETATM   14  C   UNL     1     -39.595  49.359 -51.840  1.00  0.00     0.002 A 
HETATM   15  C   UNL     1     -39.788  50.155 -50.715  1.00  0.00     0.002 A 
ENDBRANCH   6   7
ENDBRANCH   4   6
ENDBRANCH   1   4
BRANCH   1  16
HETATM   16  C   UNL     1     -43.242  56.765 -56.423  1.00  0.00     0.269 C 
BRANCH  16  17
HETATM   17  C   UNL     1     -43.207  57.365 -57.843  1.00  0.00     0.177 C 
BRANCH  17  18
HETATM   18  O   UNL     1     -41.838  57.358 -58.283  1.00  0.00    -0.389 OA
HETATM   19  H   UNL     1     -41.551  56.421 -58.289  1.00  0.00     0.210 HD
ENDBRANCH  17  18
BRANCH  17  20
HETATM   20  C   UNL     1     -44.098  56.611 -58.798  1.00  0.00    -0.025 A 
HETATM   21  C   UNL     1     -45.279  57.188 -59.308  1.00  0.00     0.046 A 
HETATM   22  C   UNL     1     -46.079  56.490 -60.214  1.00  0.00     0.068 A 
HETATM   23  C   UNL     1     -45.688  55.217 -60.632  1.00  0.00     0.037 A 
HETATM   24  C   UNL     1     -44.522  54.635 -60.140  1.00  0.00     0.003 A 
HETATM   25  C   UNL     1     -43.730  55.328 -59.226  1.00  0.00     0.010 A 
BRANCH  22  26
HETATM   26  O   UNL     1     -47.241  56.941 -60.772  1.00  0.00    -0.356 OA
HETATM   27  C   UNL     1     -47.415  58.349 -60.874  1.00  0.00     0.210 C 
ENDBRANCH  22  26
ENDBRANCH  17  20
ENDBRANCH  16  17
ENDBRANCH   1  16
TORSDOF 8
ENDMDL
MODEL 3
REMARK VINA RESULT:      -7.3      2.951      7.820
REMARK  8 active torsions:
REMARK  status: ('A' for Active; 'I' for Inactive)
REMARK    1  A    between atoms: C_2  and  N_3 
REMARK    2  A    between atoms: C_2  and  C_17 
REMARK    3  A    between atoms: N_3  and  C_6 
REMARK    4  A    between atoms: C_6  and  C_7 
REMARK    5  A    between atoms: C_7  and  O_8 
REMARK    6  A    between atoms: C_7  and  C_9 
REMARK    7  A    between atoms: C_11  and  O_12 
REMARK    8  A    between atoms: C_17  and  C_18 
ROOT
HETATM    1  N   UNL     1     -43.188  56.141 -54.961  1.00  0.00    -0.068 N 
HETATM    2  H   UNL     1     -44.228  56.187 -54.993  1.00  0.00     0.277 HD
HETATM    3  H   UNL     1     -42.932  55.781 -55.897  1.00  0.00     0.277 HD
ENDROOT
BRANCH   1   4
HETATM    4  C   UNL     1     -42.692  57.538 -54.706  1.00  0.00     0.188 C 
HETATM    5  C   UNL     1     -41.370  57.475 -53.949  1.00  0.00     0.040 C 
BRANCH   4   6
HETATM    6  C   UNL     1     -42.516  58.289 -56.044  1.00  0.00     0.099 C 
BRANCH   6   7
HETATM    7  C   UNL     1     -43.308  57.647 -57.144  1.00  0.00     0.078 A 
HETATM    8  S   UNL     1     -44.818  58.290 -57.626  1.00  0.00    -0.073 SA
HETATM    9  C   UNL     1     -44.950  57.075 -58.837  1.00  0.00     0.035 A 
HETATM   10  C   UNL     1     -43.818  56.257 -58.788  1.00  0.00     0.074 A 
HETATM   11  C   UNL     1     -45.980  56.862 -59.768  1.00  0.00     0.021 A 
HETATM   12  N   UNL     1     -42.882  56.593 -57.813  1.00  0.00    -0.245 NA
HETATM   13  C   UNL     1     -43.715  55.187 -59.701  1.00  0.00     0.033 A 
HETATM   14  C   UNL     1     -44.736  54.966 -60.630  1.00  0.00     0.002 A 
HETATM   15  C   UNL     1     -45.853  55.795 -60.662  1.00  0.00     0.002 A 
ENDBRANCH   6   7
ENDBRANCH   4   6
ENDBRANCH   1   4
BRANCH   1  16
HETATM   16  C   UNL     1     -42.817  55.071 -53.972  1.00  0.00     0.269 C 
BRANCH  16  17
HETATM   17  C   UNL     1     -42.073  53.957 -54.737  1.00  0.00     0.177 C 
BRANCH  17  18
HETATM   18  O   UNL     1     -41.359  54.577 -55.820  1.00  0.00    -0.389 OA
HETATM   19  H   UNL     1     -40.519  54.912 -55.445  1.00  0.00     0.210 HD
ENDBRANCH  17  18
BRANCH  17  20
HETATM   20  C   UNL     1     -41.147  53.175 -53.840  1.00  0.00    -0.025 A 
HETATM   21  C   UNL     1     -40.959  53.534 -52.490  1.00  0.00     0.046 A 
HETATM   22  C   UNL     1     -40.121  52.784 -51.663  1.00  0.00     0.068 A 
HETATM   23  C   UNL     1     -39.485  51.654 -52.179  1.00  0.00     0.037 A 
HETATM   24  C   UNL     1     -39.664  51.284 -53.510  1.00  0.00     0.003 A 
HETATM   25  C   UNL     1     -40.491  52.040 -54.338  1.00  0.00     0.010 A 
BRANCH  22  26
HETATM   26  O   UNL     1     -39.859  53.034 -50.346  1.00  0.00    -0.356 OA
HETATM   27  C   UNL     1     -40.366  54.245 -49.797  1.00  0.00     0.210 C 
ENDBRANCH  22  26
ENDBRANCH  17  20
ENDBRANCH  16  17
ENDBRANCH   1  16
TORSDOF 8
ENDMDL
MODEL 4
REMARK VINA RESULT:      -7.2      1.316      1.697
REMARK  8 active torsions:
REMARK  status: ('A' for Active; 'I' for Inactive)
REMARK    1  A    between atoms: C_2  and  N_3 
REMARK    2  A    between atoms: C_2  and  C_17 
REMARK    3  A    between atoms: N_3  and  C_6 
REMARK    4  A    between atoms: C_6  and  C_7 
REMARK    5  A    between atoms: C_7  and  O_8 
REMARK    6  A    between atoms: C_7  and  C_9 
REMARK    7  A    between atoms: C_11  and  O_12 
REMARK    8  A    between atoms: C_17  and  C_18 
ROOT
HETATM    1  N   UNL     1     -41.860  57.436 -54.006  1.00  0.00    -0.068 N 
HETATM    2  H   UNL     1     -40.973  57.970 -53.887  1.00  0.00     0.277 HD
HETATM    3  H   UNL     1     -41.540  56.459 -54.135  1.00  0.00     0.277 HD
ENDROOT
BRANCH   1   4
HETATM    4  C   UNL     1     -42.668  57.636 -52.754  1.00  0.00     0.188 C 
HETATM    5  C   UNL     1     -43.718  58.714 -52.996  1.00  0.00     0.040 C 
BRANCH   4   6
HETATM    6  C   UNL     1     -43.340  56.308 -52.341  1.00  0.00     0.099 C 
BRANCH   6   7
HETATM    7  C   UNL     1     -42.390  55.152 -52.450  1.00  0.00     0.078 A 
HETATM    8  S   UNL     1     -41.379  54.723 -51.140  1.00  0.00    -0.073 SA
HETATM    9  C   UNL     1     -40.749  53.408 -52.055  1.00  0.00     0.035 A 
HETATM   10  C   UNL     1     -41.364  53.391 -53.310  1.00  0.00     0.074 A 
HETATM   11  C   UNL     1     -39.781  52.459 -51.688  1.00  0.00     0.021 A 
HETATM   12  N   UNL     1     -42.304  54.394 -53.527  1.00  0.00    -0.245 NA
HETATM   13  C   UNL     1     -40.997  52.387 -54.230  1.00  0.00     0.033 A 
HETATM   14  C   UNL     1     -40.033  51.438 -53.874  1.00  0.00     0.002 A 
HETATM   15  C   UNL     1     -39.435  51.475 -52.618  1.00  0.00     0.002 A 
ENDBRANCH   6   7
ENDBRANCH   4   6
ENDBRANCH   1   4
BRANCH   1  16
HETATM   16  C   UNL     1     -42.469  57.864 -55.313  1.00  0.00     0.269 C 
BRANCH  16  17
HETATM   17  C   UNL     1     -42.589  56.615 -56.211  1.00  0.00     0.177 C 
BRANCH  17  18
HETATM   18  O   UNL     1     -43.766  55.898 -55.801  1.00  0.00    -0.389 OA
HETATM   19  H   UNL     1     -44.354  56.551 -55.369  1.00  0.00     0.210 HD
ENDBRANCH  17  18
BRANCH  17  20
HETATM   20  C   UNL     1     -42.642  56.974 -57.674  1.00  0.00    -0.025 A 
HETATM   21  C   UNL     1     -43.279  56.137 -58.612  1.00  0.00     0.046 A 
HETATM   22  C   UNL     1     -43.346  56.497 -59.959  1.00  0.00     0.068 A 
HETATM   23  C   UNL     1     -42.793  57.710 -60.371  1.00  0.00     0.037 A 
HETATM   24  C   UNL     1     -42.163  58.550 -59.455  1.00  0.00     0.003 A 
HETATM   25  C   UNL     1     -42.087  58.185 -58.113  1.00  0.00     0.010 A 
BRANCH  22  26
HETATM   26  O   UNL     1     -43.932  55.770 -60.956  1.00  0.00    -0.356 OA
HETATM   27  C   UNL     1     -45.035  54.945 -60.603  1.00  0.00     0.210 C 
ENDBRANCH  22  26
ENDBRANCH  17  20
ENDBRANCH  16  17
ENDBRANCH   1  16
TORSDOF 8
ENDMDL
MODEL 5
REMARK VINA RESULT:      -7.1      2.883      7.569
REMARK  8 active torsions:
REMARK  status: ('A' for Active; 'I' for Inactive)
REMARK    1  A    between atoms: C_2  and  N_3 
REMARK    2  A    between atoms: C_2  and  C_17 
REMARK    3  A    between atoms: N_3  and  C_6 
REMARK    4  A    between atoms: C_6  and  C_7 
REMARK    5  A    between atoms: C_7  and  O_8 
REMARK    6  A    between atoms: C_7  and  C_9 
REMARK    7  A    between atoms: C_11  and  O_12 
REMARK    8  A    between atoms: C_17  and  C_18 
ROOT
HETATM    1  N   UNL     1     -43.515  56.540 -54.692  1.00  0.00    -0.068 N 
HETATM    2  H   UNL     1     -44.523  56.497 -54.432  1.00  0.00     0.277 HD
HETATM    3  H   UNL     1     -43.478  56.047 -55.602  1.00  0.00     0.277 HD
ENDROOT
BRANCH   1   4
HETATM    4  C   UNL     1     -43.144  57.994 -54.788  1.00  0.00     0.188 C 
HETATM    5  C   UNL     1     -42.125  58.329 -53.705  1.00  0.00     0.040 C 
BRANCH   4   6
HETATM    6  C   UNL     1     -42.569  58.302 -56.188  1.00  0.00     0.099 C 
BRANCH   6   7
HETATM    7  C   UNL     1     -43.377  57.651 -57.271  1.00  0.00     0.078 A 
HETATM    8  S   UNL     1     -44.809  58.381 -57.854  1.00  0.00    -0.073 SA
HETATM    9  C   UNL     1     -45.006  57.097 -58.983  1.00  0.00     0.035 A 
HETATM   10  C   UNL     1     -43.951  56.193 -58.833  1.00  0.00     0.074 A 
HETATM   11  C   UNL     1     -46.020  56.905 -59.935  1.00  0.00     0.021 A 
HETATM   12  N   UNL     1     -43.022  56.519 -57.849  1.00  0.00    -0.245 NA
HETATM   13  C   UNL     1     -43.911  55.055 -59.665  1.00  0.00     0.033 A 
HETATM   14  C   UNL     1     -44.917  54.855 -60.617  1.00  0.00     0.002 A 
HETATM   15  C   UNL     1     -45.956  55.770 -60.748  1.00  0.00     0.002 A 
ENDBRANCH   6   7
ENDBRANCH   4   6
ENDBRANCH   1   4
BRANCH   1  16
HETATM   16  C   UNL     1     -42.763  55.684 -53.711  1.00  0.00     0.269 C 
BRANCH  16  17
HETATM   17  C   UNL     1     -42.123  54.518 -54.492  1.00  0.00     0.177 C 
BRANCH  17  18
HETATM   18  O   UNL     1     -41.376  55.085 -55.582  1.00  0.00    -0.389 OA
HETATM   19  H   UNL     1     -41.214  54.357 -56.218  1.00  0.00     0.210 HD
ENDBRANCH  17  18
BRANCH  17  20
HETATM   20  C   UNL     1     -41.251  53.658 -53.612  1.00  0.00    -0.025 A 
HETATM   21  C   UNL     1     -40.692  52.455 -54.086  1.00  0.00     0.046 A 
HETATM   22  C   UNL     1     -39.863  51.684 -53.269  1.00  0.00     0.068 A 
HETATM   23  C   UNL     1     -39.571  52.127 -51.979  1.00  0.00     0.037 A 
HETATM   24  C   UNL     1     -40.113  53.317 -51.497  1.00  0.00     0.003 A 
HETATM   25  C   UNL     1     -40.950  54.080 -52.309  1.00  0.00     0.010 A 
BRANCH  22  26
HETATM   26  O   UNL     1     -39.268  50.504 -53.615  1.00  0.00    -0.356 OA
HETATM   27  C   UNL     1     -39.856  49.760 -54.674  1.00  0.00     0.210 C 
ENDBRANCH  22  26
ENDBRANCH  17  20
ENDBRANCH  16  17
ENDBRANCH   1  16
TORSDOF 8
ENDMDL
MODEL 6
REMARK VINA RESULT:      -7.0      2.789      7.012
REMARK  8 active torsions:
REMARK  status: ('A' for Active; 'I' for Inactive)
REMARK    1  A    between atoms: C_2  and  N_3 
REMARK    2  A    between atoms: C_2  and  C_17 
REMARK    3  A    between atoms: N_3  and  C_6 
REMARK    4  A    between atoms: C_6  and  C_7 
REMARK    5  A    between atoms: C_7  and  O_8 
REMARK    6  A    between atoms: C_7  and  C_9 
REMARK    7  A    between atoms: C_11  and  O_12 
REMARK    8  A    between atoms: C_17  and  C_18 
ROOT
HETATM    1  N   UNL     1     -42.255  56.820 -53.175  1.00  0.00    -0.068 N 
HETATM    2  H   UNL     1     -42.272  56.514 -54.171  1.00  0.00     0.277 HD
HETATM    3  H   UNL     1     -41.382  56.403 -52.807  1.00  0.00     0.277 HD
ENDROOT
BRANCH   1   4
HETATM    4  C   UNL     1     -42.241  58.324 -53.175  1.00  0.00     0.188 C 
HETATM    5  C   UNL     1     -40.857  58.818 -53.580  1.00  0.00     0.040 C 
BRANCH   4   6
HETATM    6  C   UNL     1     -43.315  58.863 -54.146  1.00  0.00     0.099 C 
BRANCH   6   7
HETATM    7  C   UNL     1     -43.074  58.393 -55.550  1.00  0.00     0.078 A 
HETATM    8  S   UNL     1     -42.349  59.425 -56.706  1.00  0.00    -0.073 SA
HETATM    9  C   UNL     1     -42.419  58.165 -57.876  1.00  0.00     0.035 A 
HETATM   10  C   UNL     1     -42.997  57.033 -57.293  1.00  0.00     0.074 A 
HETATM   11  C   UNL     1     -41.992  58.176 -59.214  1.00  0.00     0.021 A 
HETATM   12  N   UNL     1     -43.369  57.174 -55.959  1.00  0.00    -0.245 NA
HETATM   13  C   UNL     1     -43.153  55.872 -58.078  1.00  0.00     0.033 A 
HETATM   14  C   UNL     1     -42.731  55.873 -59.412  1.00  0.00     0.002 A 
HETATM   15  C   UNL     1     -42.157  57.012 -59.969  1.00  0.00     0.002 A 
ENDBRANCH   6   7
ENDBRANCH   4   6
ENDBRANCH   1   4
BRANCH   1  16
HETATM   16  C   UNL     1     -43.391  56.127 -52.475  1.00  0.00     0.269 C 
BRANCH  16  17
HETATM   17  C   UNL     1     -43.594  54.754 -53.147  1.00  0.00     0.177 C 
BRANCH  17  18
HETATM   18  O   UNL     1     -44.315  54.972 -54.372  1.00  0.00    -0.389 OA
HETATM   19  H   UNL     1     -44.792  55.821 -54.267  1.00  0.00     0.210 HD
ENDBRANCH  17  18
BRANCH  17  20
HETATM   20  C   UNL     1     -42.286  54.046 -53.394  1.00  0.00    -0.025 A 
HETATM   21  C   UNL     1     -41.533  53.506 -52.332  1.00  0.00     0.046 A 
HETATM   22  C   UNL     1     -40.338  52.827 -52.578  1.00  0.00     0.068 A 
HETATM   23  C   UNL     1     -39.902  52.666 -53.893  1.00  0.00     0.037 A 
HETATM   24  C   UNL     1     -40.637  53.191 -54.954  1.00  0.00     0.003 A 
HETATM   25  C   UNL     1     -41.824  53.878 -54.707  1.00  0.00     0.010 A 
BRANCH  22  26
HETATM   26  O   UNL     1     -39.525  52.266 -51.635  1.00  0.00    -0.356 OA
HETATM   27  C   UNL     1     -39.518  50.848 -51.537  1.00  0.00     0.210 C 
ENDBRANCH  22  26
ENDBRANCH  17  20
ENDBRANCH  16  17
ENDBRANCH   1  16
TORSDOF 8
ENDMDL
MODEL 7
REMARK VINA RESULT:      -6.9      2.885      7.644
REMARK  8 active torsions:
REMARK  status: ('A' for Active; 'I' for Inactive)
REMARK    1  A    between atoms: C_2  and  N_3 
REMARK    2  A    between atoms: C_2  and  C_17 
REMARK    3  A    between atoms: N_3  and  C_6 
REMARK    4  A    between atoms: C_6  and  C_7 
REMARK    5  A    between atoms: C_7  and  O_8 
REMARK    6  A    between atoms: C_7  and  C_9 
REMARK    7  A    between atoms: C_11  and  O_12 
REMARK    8  A    between atoms: C_17  and  C_18 
ROOT
HETATM    1  N   UNL     1     -42.016  57.515 -53.798  1.00  0.00    -0.068 N 
HETATM    2  H   UNL     1     -41.934  57.705 -54.819  1.00  0.00     0.277 HD
HETATM    3  H   UNL     1     -41.672  58.388 -53.360  1.00  0.00     0.277 HD
ENDROOT
BRANCH   1   4
HETATM    4  C   UNL     1     -43.467  57.241 -53.515  1.00  0.00     0.188 C 
HETATM    5  C   UNL     1     -43.783  57.621 -52.072  1.00  0.00     0.040 C 
BRANCH   4   6
HETATM    6  C   UNL     1     -44.357  58.039 -54.493  1.00  0.00     0.099 C 
BRANCH   6   7
HETATM    7  C   UNL     1     -43.841  57.958 -55.899  1.00  0.00     0.078 A 
HETATM    8  S   UNL     1     -43.410  59.373 -56.756  1.00  0.00    -0.073 SA
HETATM    9  C   UNL     1     -42.936  58.414 -58.105  1.00  0.00     0.035 A 
HETATM   10  C   UNL     1     -43.142  57.066 -57.799  1.00  0.00     0.074 A 
HETATM   11  C   UNL     1     -42.416  58.825 -59.343  1.00  0.00     0.021 A 
HETATM   12  N   UNL     1     -43.662  56.814 -56.532  1.00  0.00    -0.245 NA
HETATM   13  C   UNL     1     -42.818  56.094 -58.769  1.00  0.00     0.033 A 
HETATM   14  C   UNL     1     -42.300  56.494 -60.005  1.00  0.00     0.002 A 
HETATM   15  C   UNL     1     -42.103  57.842 -60.286  1.00  0.00     0.002 A 
ENDBRANCH   6   7
ENDBRANCH   4   6
ENDBRANCH   1   4
BRANCH   1  16
HETATM   16  C   UNL     1     -41.018  56.442 -53.461  1.00  0.00     0.269 C 
BRANCH  16  17
HETATM   17  C   UNL     1     -41.427  55.161 -54.216  1.00  0.00     0.177 C 
BRANCH  17  18
HETATM   18  O   UNL     1     -41.037  55.323 -55.590  1.00  0.00    -0.389 OA
HETATM   19  H   UNL     1     -41.854  55.525 -56.090  1.00  0.00     0.210 HD
ENDBRANCH  17  18
BRANCH  17  20
HETATM   20  C   UNL     1     -40.812  53.926 -53.608  1.00  0.00    -0.025 A 
HETATM   21  C   UNL     1     -40.783  53.733 -52.212  1.00  0.00     0.046 A 
HETATM   22  C   UNL     1     -40.236  52.570 -51.665  1.00  0.00     0.068 A 
HETATM   23  C   UNL     1     -39.736  51.584 -52.515  1.00  0.00     0.037 A 
HETATM   24  C   UNL     1     -39.760  51.759 -53.897  1.00  0.00     0.003 A 
HETATM   25  C   UNL     1     -40.296  52.924 -54.442  1.00  0.00     0.010 A 
BRANCH  22  26
HETATM   26  O   UNL     1     -40.150  52.273 -50.334  1.00  0.00    -0.356 OA
HETATM   27  C   UNL     1     -40.393  53.328 -49.411  1.00  0.00     0.210 C 
ENDBRANCH  22  26
ENDBRANCH  17  20
ENDBRANCH  16  17
ENDBRANCH   1  16
TORSDOF 8
ENDMDL
MODEL 8
REMARK VINA RESULT:      -6.9      1.517      2.293
REMARK  8 active torsions:
REMARK  status: ('A' for Active; 'I' for Inactive)
REMARK    1  A    between atoms: C_2  and  N_3 
REMARK    2  A    between atoms: C_2  and  C_17 
REMARK    3  A    between atoms: N_3  and  C_6 
REMARK    4  A    between atoms: C_6  and  C_7 
REMARK    5  A    between atoms: C_7  and  O_8 
REMARK    6  A    between atoms: C_7  and  C_9 
REMARK    7  A    between atoms: C_11  and  O_12 
REMARK    8  A    between atoms: C_17  and  C_18 
ROOT
HETATM    1  N   UNL     1     -43.551  56.767 -55.049  1.00  0.00    -0.068 N 
HETATM    2  H   UNL     1     -43.961  55.813 -54.971  1.00  0.00     0.277 HD
HETATM    3  H   UNL     1     -44.350  57.351 -55.352  1.00  0.00     0.277 HD
ENDROOT
BRANCH   1   4
HETATM    4  C   UNL     1     -43.027  57.136 -53.689  1.00  0.00     0.188 C 
HETATM    5  C   UNL     1     -43.595  58.489 -53.277  1.00  0.00     0.040 C 
BRANCH   4   6
HETATM    6  C   UNL     1     -43.412  56.050 -52.661  1.00  0.00     0.099 C 
BRANCH   6   7
HETATM    7  C   UNL     1     -42.409  54.935 -52.635  1.00  0.00     0.078 A 
HETATM    8  S   UNL     1     -41.553  54.561 -51.203  1.00  0.00    -0.073 SA
HETATM    9  C   UNL     1     -40.759  53.267 -52.013  1.00  0.00     0.035 A 
HETATM   10  C   UNL     1     -41.212  53.211 -53.334  1.00  0.00     0.074 A 
HETATM   11  C   UNL     1     -39.807  52.363 -51.515  1.00  0.00     0.021 A 
HETATM   12  N   UNL     1     -42.158  54.171 -53.681  1.00  0.00    -0.245 NA
HETATM   13  C   UNL     1     -40.692  52.216 -54.187  1.00  0.00     0.033 A 
HETATM   14  C   UNL     1     -39.742  51.311 -53.700  1.00  0.00     0.002 A 
HETATM   15  C   UNL     1     -39.307  51.386 -52.381  1.00  0.00     0.002 A 
ENDBRANCH   6   7
ENDBRANCH   4   6
ENDBRANCH   1   4
BRANCH   1  16
HETATM   16  C   UNL     1     -42.578  56.743 -56.196  1.00  0.00     0.269 C 
BRANCH  16  17
HETATM   17  C   UNL     1     -42.834  55.456 -57.007  1.00  0.00     0.177 C 
BRANCH  17  18
HETATM   18  O   UNL     1     -43.557  54.546 -56.161  1.00  0.00    -0.389 OA
HETATM   19  H   UNL     1     -44.274  55.065 -55.741  1.00  0.00     0.210 HD
ENDBRANCH  17  18
BRANCH  17  20
HETATM   20  C   UNL     1     -43.581  55.734 -58.287  1.00  0.00    -0.025 A 
HETATM   21  C   UNL     1     -43.921  57.048 -58.666  1.00  0.00     0.046 A 
HETATM   22  C   UNL     1     -44.587  57.293 -59.869  1.00  0.00     0.068 A 
HETATM   23  C   UNL     1     -44.896  56.223 -60.709  1.00  0.00     0.037 A 
HETATM   24  C   UNL     1     -44.563  54.919 -60.350  1.00  0.00     0.003 A 
HETATM   25  C   UNL     1     -43.909  54.674 -59.144  1.00  0.00     0.010 A 
BRANCH  22  26
HETATM   26  O   UNL     1     -44.970  58.517 -60.340  1.00  0.00    -0.356 OA
HETATM   27  C   UNL     1     -43.948  59.381 -60.820  1.00  0.00     0.210 C 
ENDBRANCH  22  26
ENDBRANCH  17  20
ENDBRANCH  16  17
ENDBRANCH   1  16
TORSDOF 8
ENDMDL
MODEL 9
REMARK VINA RESULT:      -6.9      2.196      3.841
REMARK  8 active torsions:
REMARK  status: ('A' for Active; 'I' for Inactive)
REMARK    1  A    between atoms: C_2  and  N_3 
REMARK    2  A    between atoms: C_2  and  C_17 
REMARK    3  A    between atoms: N_3  and  C_6 
REMARK    4  A    between atoms: C_6  and  C_7 
REMARK    5  A    between atoms: C_7  and  O_8 
REMARK    6  A    between atoms: C_7  and  C_9 
REMARK    7  A    between atoms: C_11  and  O_12 
REMARK    8  A    between atoms: C_17  and  C_18 
ROOT
HETATM    1  N   UNL     1     -42.059  56.635 -57.643  1.00  0.00    -0.068 N 
HETATM    2  H   UNL     1     -41.056  56.444 -57.438  1.00  0.00     0.277 HD
HETATM    3  H   UNL     1     -42.331  55.859 -58.272  1.00  0.00     0.277 HD
ENDROOT
BRANCH   1   4
HETATM    4  C   UNL     1     -42.790  56.618 -56.329  1.00  0.00     0.188 C 
HETATM    5  C   UNL     1     -44.001  57.540 -56.411  1.00  0.00     0.040 C 
BRANCH   4   6
HETATM    6  C   UNL     1     -43.228  55.177 -55.986  1.00  0.00     0.099 C 
BRANCH   6   7
HETATM    7  C   UNL     1     -42.456  54.629 -54.822  1.00  0.00     0.078 A 
HETATM    8  S   UNL     1     -42.643  55.293 -53.257  1.00  0.00    -0.073 SA
HETATM    9  C   UNL     1     -41.535  54.134 -52.632  1.00  0.00     0.035 A 
HETATM   10  C   UNL     1     -41.098  53.313 -53.675  1.00  0.00     0.074 A 
HETATM   11  C   UNL     1     -41.086  53.961 -51.312  1.00  0.00     0.021 A 
HETATM   12  N   UNL     1     -41.631  53.604 -54.927  1.00  0.00    -0.245 NA
HETATM   13  C   UNL     1     -40.178  52.283 -53.386  1.00  0.00     0.033 A 
HETATM   14  C   UNL     1     -39.725  52.104 -52.075  1.00  0.00     0.002 A 
HETATM   15  C   UNL     1     -40.175  52.934 -51.053  1.00  0.00     0.002 A 
ENDBRANCH   6   7
ENDBRANCH   4   6
ENDBRANCH   1   4
BRANCH   1  16
HETATM   16  C   UNL     1     -42.117  57.893 -58.464  1.00  0.00     0.269 C 
BRANCH  16  17
HETATM   17  C   UNL     1     -42.420  57.493 -59.923  1.00  0.00     0.177 C 
BRANCH  17  18
HETATM   18  O   UNL     1     -41.447  56.509 -60.314  1.00  0.00    -0.389 OA
HETATM   19  H   UNL     1     -41.721  55.665 -59.899  1.00  0.00     0.210 HD
ENDBRANCH  17  18
BRANCH  17  20
HETATM   20  C   UNL     1     -43.827  56.976 -60.087  1.00  0.00    -0.025 A 
HETATM   21  C   UNL     1     -44.931  57.850 -60.103  1.00  0.00     0.046 A 
HETATM   22  C   UNL     1     -46.226  57.360 -60.286  1.00  0.00     0.068 A 
HETATM   23  C   UNL     1     -46.418  55.991 -60.476  1.00  0.00     0.037 A 
HETATM   24  C   UNL     1     -45.335  55.114 -60.466  1.00  0.00     0.003 A 
HETATM   25  C   UNL     1     -44.045  55.603 -60.272  1.00  0.00     0.010 A 
BRANCH  22  26
HETATM   26  O   UNL     1     -47.370  58.106 -60.317  1.00  0.00    -0.356 OA
HETATM   27  C   UNL     1     -47.384  59.246 -61.166  1.00  0.00     0.210 C 
ENDBRANCH  22  26
ENDBRANCH  17  20
ENDBRANCH  16  17
ENDBRANCH   1  16
TORSDOF 8
ENDMDL
MODEL 10
REMARK VINA RESULT:      -6.8      3.194      7.873
REMARK  8 active torsions:
REMARK  status: ('A' for Active; 'I' for Inactive)
REMARK    1  A    between atoms: C_2  and  N_3 
REMARK    2  A    between atoms: C_2  and  C_17 
REMARK    3  A    between atoms: N_3  and  C_6 
REMARK    4  A    between atoms: C_6  and  C_7 
REMARK    5  A    between atoms: C_7  and  O_8 
REMARK    6  A    between atoms: C_7  and  C_9 
REMARK    7  A    between atoms: C_11  and  O_12 
REMARK    8  A    between atoms: C_17  and  C_18 
ROOT
HETATM    1  N   UNL     1     -41.728  56.676 -55.096  1.00  0.00    -0.068 N 
HETATM    2  H   UNL     1     -41.646  56.461 -56.112  1.00  0.00     0.277 HD
HETATM    3  H   UNL     1     -40.750  56.633 -54.759  1.00  0.00     0.277 HD
ENDROOT
BRANCH   1   4
HETATM    4  C   UNL     1     -42.336  58.047 -54.982  1.00  0.00     0.188 C 
HETATM    5  C   UNL     1     -41.523  58.882 -53.999  1.00  0.00     0.040 C 
BRANCH   4   6
HETATM    6  C   UNL     1     -42.374  58.725 -56.369  1.00  0.00     0.099 C 
BRANCH   6   7
HETATM    7  C   UNL     1     -43.237  57.964 -57.332  1.00  0.00     0.078 A 
HETATM    8  S   UNL     1     -44.813  58.507 -57.713  1.00  0.00    -0.073 SA
HETATM    9  C   UNL     1     -45.004  57.190 -58.805  1.00  0.00     0.035 A 
HETATM   10  C   UNL     1     -43.836  56.422 -58.801  1.00  0.00     0.074 A 
HETATM   11  C   UNL     1     -46.107  56.862 -59.609  1.00  0.00     0.021 A 
HETATM   12  N   UNL     1     -42.828  56.874 -57.953  1.00  0.00    -0.245 NA
HETATM   13  C   UNL     1     -43.771  55.285 -59.632  1.00  0.00     0.033 A 
HETATM   14  C   UNL     1     -44.865  54.949 -60.436  1.00  0.00     0.002 A 
HETATM   15  C   UNL     1     -46.016  55.729 -60.424  1.00  0.00     0.002 A 
ENDBRANCH   6   7
ENDBRANCH   4   6
ENDBRANCH   1   4
BRANCH   1  16
HETATM   16  C   UNL     1     -42.454  55.528 -54.452  1.00  0.00     0.269 C 
BRANCH  16  17
HETATM   17  C   UNL     1     -41.761  55.223 -53.108  1.00  0.00     0.177 C 
BRANCH  17  18
HETATM   18  O   UNL     1     -42.770  55.250 -52.084  1.00  0.00    -0.389 OA
HETATM   19  H   UNL     1     -42.527  54.559 -51.434  1.00  0.00     0.210 HD
ENDBRANCH  17  18
BRANCH  17  20
HETATM   20  C   UNL     1     -41.035  53.902 -53.134  1.00  0.00    -0.025 A 
HETATM   21  C   UNL     1     -40.659  53.249 -51.943  1.00  0.00     0.046 A 
HETATM   22  C   UNL     1     -40.013  52.012 -51.981  1.00  0.00     0.068 A 
HETATM   23  C   UNL     1     -39.760  51.411 -53.215  1.00  0.00     0.037 A 
HETATM   24  C   UNL     1     -40.129  52.042 -54.401  1.00  0.00     0.003 A 
HETATM   25  C   UNL     1     -40.763  53.282 -54.362  1.00  0.00     0.010 A 
BRANCH  22  26
HETATM   26  O   UNL     1     -39.600  51.288 -50.899  1.00  0.00    -0.356 OA
HETATM   27  C   UNL     1     -39.583  49.872 -51.026  1.00  0.00     0.210 C 
ENDBRANCH  22  26
ENDBRANCH  17  20
ENDBRANCH  16  17
ENDBRANCH   1  16
TORSDOF 8
ENDMDL
