MODEL 1
REMARK VINA RESULT:      -9.2      0.000      0.000
REMARK  6 active torsions:
REMARK  status: ('A' for Active; 'I' for Inactive)
REMARK    1  A    between atoms: C_2  and  N_3 
REMARK    2  A    between atoms: C_2  and  C_32 
REMARK       I    between atoms: N_3  and  C_4 
REMARK    3  A    between atoms: C_4  and  C_5 
REMARK    4  A    between atoms: C_6  and  N_7 
REMARK       I    between atoms: N_7  and  C_8 
REMARK    5  A    between atoms: C_8  and  C_9 
REMARK    6  A    between atoms: C_9  and  N_10 
ROOT
HETATM    1  N   UNL     1     -42.097  58.165 -57.174  1.00  0.00    -0.325 N 
HETATM    2  C   UNL     1     -42.909  59.155 -56.633  1.00  0.00     0.240 C 
HETATM    3  O   UNL     1     -44.135  59.072 -56.555  1.00  0.00    -0.271 OA
HETATM    4  H   UNL     1     -41.229  58.513 -57.585  1.00  0.00     0.169 HD
ENDROOT
BRANCH   1   5
HETATM    5  C   UNL     1     -42.655  57.015 -57.778  1.00  0.00     0.050 A 
HETATM    6  C   UNL     1     -43.107  55.887 -57.067  1.00  0.00     0.058 A 
HETATM    7  C   UNL     1     -43.614  54.782 -57.775  1.00  0.00     0.019 A 
HETATM    8  C   UNL     1     -43.682  54.797 -59.168  1.00  0.00     0.001 A 
HETATM    9  C   UNL     1     -43.205  55.900 -59.870  1.00  0.00     0.002 A 
HETATM   10  C   UNL     1     -42.677  56.993 -59.181  1.00  0.00     0.030 A 
BRANCH   6  11
HETATM   11  C   UNL     1     -42.891  55.659 -55.615  1.00  0.00     0.254 C 
HETATM   12  N   UNL     1     -41.833  54.868 -55.252  1.00  0.00    -0.349 N 
HETATM   13  H   UNL     1     -41.178  54.584 -55.978  1.00  0.00     0.163 HD
HETATM   14  O   UNL     1     -43.624  56.222 -54.806  1.00  0.00    -0.268 OA
BRANCH  12  15
HETATM   15  C   UNL     1     -41.469  54.660 -53.861  1.00  0.00     0.114 C 
HETATM   16  C   UNL     1     -40.532  55.766 -53.374  1.00  0.00     0.037 C 
BRANCH  15  17
HETATM   17  C   UNL     1     -40.864  53.283 -53.654  1.00  0.00    -0.036 A 
HETATM   18  C   UNL     1     -40.208  52.984 -52.447  1.00  0.00     0.009 A 
HETATM   19  C   UNL     1     -39.620  51.734 -52.244  1.00  0.00     0.001 A 
HETATM   20  C   UNL     1     -39.683  50.763 -53.239  1.00  0.00     0.000 A 
HETATM   21  C   UNL     1     -40.334  51.040 -54.439  1.00  0.00     0.001 A 
HETATM   22  C   UNL     1     -40.916  52.292 -54.648  1.00  0.00     0.009 A 
ENDBRANCH  15  17
ENDBRANCH  12  15
ENDBRANCH   6  11
ENDBRANCH   1   5
BRANCH   2  23
HETATM   23  C   UNL     1     -42.143  60.355 -56.084  1.00  0.00     0.240 C 
BRANCH  23  24
HETATM   24  N   UNL     1     -42.406  60.573 -54.676  1.00  0.00    -0.259 N 
HETATM   25  C   UNL     1     -43.261  61.501 -54.172  1.00  0.00     0.326 C 
HETATM   26  O   UNL     1     -43.935  62.308 -54.784  1.00  0.00    -0.247 OA
HETATM   27  N   UNL     1     -43.272  61.377 -52.798  1.00  0.00    -0.324 N 
HETATM   28  C   UNL     1     -42.592  60.172 -52.350  1.00  0.00     0.120 C 
HETATM   29  H   UNL     1     -43.947  61.906 -52.257  1.00  0.00     0.165 HD
HETATM   30  C   UNL     1     -43.614  59.065 -52.054  1.00  0.00     0.080 C 
HETATM   31  C   UNL     1     -41.681  60.434 -51.160  1.00  0.00     0.046 C 
HETATM   32  C   UNL     1     -41.847  59.853 -53.660  1.00  0.00     0.257 C 
HETATM   33  C   UNL     1     -43.014  57.854 -51.388  1.00  0.00    -0.049 A 
HETATM   34  C   UNL     1     -41.778  57.919 -50.722  1.00  0.00    -0.052 A 
HETATM   35  C   UNL     1     -43.725  56.644 -51.412  1.00  0.00     0.007 A 
HETATM   36  C   UNL     1     -40.945  59.176 -50.698  1.00  0.00     0.042 C 
HETATM   37  C   UNL     1     -41.264  56.759 -50.120  1.00  0.00     0.007 A 
HETATM   38  C   UNL     1     -41.973  55.559 -50.164  1.00  0.00     0.001 A 
HETATM   39  C   UNL     1     -43.204  55.501 -50.808  1.00  0.00     0.001 A 
HETATM   40  O   UNL     1     -40.919  59.068 -53.806  1.00  0.00    -0.270 OA
ENDBRANCH  23  24
ENDBRANCH   2  23
TORSDOF 6
ENDMDL
MODEL 2
REMARK VINA RESULT:      -9.1      3.152      6.952
REMARK  6 active torsions:
REMARK  status: ('A' for Active; 'I' for Inactive)
REMARK    1  A    between atoms: C_2  and  N_3 
REMARK    2  A    between atoms: C_2  and  C_32 
REMARK       I    between atoms: N_3  and  C_4 
REMARK    3  A    between atoms: C_4  and  C_5 
REMARK    4  A    between atoms: C_6  and  N_7 
REMARK       I    between atoms: N_7  and  C_8 
REMARK    5  A    between atoms: C_8  and  C_9 
REMARK    6  A    between atoms: C_9  and  N_10 
ROOT
HETATM    1  N   UNL     1     -42.286  57.885 -55.467  1.00  0.00    -0.325 N 
HETATM    2  C   UNL     1     -43.350  58.466 -54.786  1.00  0.00     0.240 C 
HETATM    3  O   UNL     1     -44.456  58.673 -55.287  1.00  0.00    -0.271 OA
HETATM    4  H   UNL     1     -41.366  58.175 -55.132  1.00  0.00     0.169 HD
ENDROOT
BRANCH   1   5
HETATM    5  C   UNL     1     -42.381  57.583 -56.844  1.00  0.00     0.050 A 
HETATM    6  C   UNL     1     -42.028  58.473 -57.877  1.00  0.00     0.058 A 
HETATM    7  C   UNL     1     -42.195  58.080 -59.216  1.00  0.00     0.019 A 
HETATM    8  C   UNL     1     -42.696  56.816 -59.532  1.00  0.00     0.001 A 
HETATM    9  C   UNL     1     -43.074  55.950 -58.510  1.00  0.00     0.002 A 
HETATM   10  C   UNL     1     -42.936  56.338 -57.176  1.00  0.00     0.030 A 
BRANCH   6  11
HETATM   11  C   UNL     1     -41.693  59.907 -57.680  1.00  0.00     0.254 C 
HETATM   12  N   UNL     1     -41.731  60.721 -58.782  1.00  0.00    -0.349 N 
HETATM   13  H   UNL     1     -42.108  60.336 -59.647  1.00  0.00     0.163 HD
HETATM   14  O   UNL     1     -41.450  60.315 -56.547  1.00  0.00    -0.268 OA
BRANCH  12  15
HETATM   15  C   UNL     1     -41.521  62.155 -58.688  1.00  0.00     0.114 C 
HETATM   16  C   UNL     1     -42.856  62.899 -58.668  1.00  0.00     0.037 C 
BRANCH  15  17
HETATM   17  C   UNL     1     -40.620  62.650 -59.807  1.00  0.00    -0.036 A 
HETATM   18  C   UNL     1     -40.899  62.291 -61.136  1.00  0.00     0.009 A 
HETATM   19  C   UNL     1     -40.071  62.711 -62.179  1.00  0.00     0.001 A 
HETATM   20  C   UNL     1     -38.956  63.500 -61.910  1.00  0.00     0.000 A 
HETATM   21  C   UNL     1     -38.668  63.869 -60.598  1.00  0.00     0.001 A 
HETATM   22  C   UNL     1     -39.490  63.445 -59.553  1.00  0.00     0.009 A 
ENDBRANCH  15  17
ENDBRANCH  12  15
ENDBRANCH   6  11
ENDBRANCH   1   5
BRANCH   2  23
HETATM   23  C   UNL     1     -43.052  58.785 -53.324  1.00  0.00     0.240 C 
BRANCH  23  24
HETATM   24  N   UNL     1     -43.208  57.625 -52.470  1.00  0.00    -0.259 N 
HETATM   25  C   UNL     1     -44.348  57.277 -51.819  1.00  0.00     0.326 C 
HETATM   26  O   UNL     1     -45.417  57.860 -51.819  1.00  0.00    -0.247 OA
HETATM   27  N   UNL     1     -44.117  56.098 -51.143  1.00  0.00    -0.324 N 
HETATM   28  C   UNL     1     -42.857  55.482 -51.527  1.00  0.00     0.120 C 
HETATM   29  H   UNL     1     -44.894  55.619 -50.699  1.00  0.00     0.165 HD
HETATM   30  C   UNL     1     -43.102  54.372 -52.558  1.00  0.00     0.080 C 
HETATM   31  C   UNL     1     -42.074  54.975 -50.325  1.00  0.00     0.046 C 
HETATM   32  C   UNL     1     -42.230  56.706 -52.222  1.00  0.00     0.257 C 
HETATM   33  C   UNL     1     -41.878  53.544 -52.855  1.00  0.00    -0.049 A 
HETATM   34  C   UNL     1     -40.786  53.508 -51.972  1.00  0.00    -0.052 A 
HETATM   35  C   UNL     1     -41.848  52.772 -54.026  1.00  0.00     0.007 A 
HETATM   36  C   UNL     1     -40.737  54.348 -50.721  1.00  0.00     0.042 C 
HETATM   37  C   UNL     1     -39.669  52.721 -52.299  1.00  0.00     0.007 A 
HETATM   38  C   UNL     1     -39.645  51.970 -53.474  1.00  0.00     0.001 A 
HETATM   39  C   UNL     1     -40.735  51.993 -54.337  1.00  0.00     0.001 A 
HETATM   40  O   UNL     1     -41.056  56.851 -52.538  1.00  0.00    -0.270 OA
ENDBRANCH  23  24
ENDBRANCH   2  23
TORSDOF 6
ENDMDL
MODEL 3
REMARK VINA RESULT:      -8.8      2.483      7.087
REMARK  6 active torsions:
REMARK  status: ('A' for Active; 'I' for Inactive)
REMARK    1  A    between atoms: C_2  and  N_3 
REMARK    2  A    between atoms: C_2  and  C_32 
REMARK       I    between atoms: N_3  and  C_4 
REMARK    3  A    between atoms: C_4  and  C_5 
REMARK    4  A    between atoms: C_6  and  N_7 
REMARK       I    between atoms: N_7  and  C_8 
REMARK    5  A    between atoms: C_8  and  C_9 
REMARK    6  A    between atoms: C_9  and  N_10 
ROOT
HETATM    1  N   UNL     1     -43.424  57.931 -52.853  1.00  0.00    -0.325 N 
HETATM    2  C   UNL     1     -42.962  57.387 -54.047  1.00  0.00     0.240 C 
HETATM    3  O   UNL     1     -41.771  57.228 -54.313  1.00  0.00    -0.271 OA
HETATM    4  H   UNL     1     -44.322  58.412 -52.932  1.00  0.00     0.169 HD
ENDROOT
BRANCH   1   5
HETATM    5  C   UNL     1     -42.526  58.442 -51.890  1.00  0.00     0.050 A 
HETATM    6  C   UNL     1     -41.795  57.647 -50.987  1.00  0.00     0.058 A 
HETATM    7  C   UNL     1     -40.953  58.266 -50.045  1.00  0.00     0.019 A 
HETATM    8  C   UNL     1     -40.828  59.655 -50.004  1.00  0.00     0.001 A 
HETATM    9  C   UNL     1     -41.575  60.440 -50.876  1.00  0.00     0.002 A 
HETATM   10  C   UNL     1     -42.433  59.840 -51.800  1.00  0.00     0.030 A 
BRANCH   6  11
HETATM   11  C   UNL     1     -42.001  56.189 -50.784  1.00  0.00     0.254 C 
HETATM   12  N   UNL     1     -40.891  55.386 -50.814  1.00  0.00    -0.349 N 
HETATM   13  H   UNL     1     -39.977  55.834 -50.844  1.00  0.00     0.163 HD
HETATM   14  O   UNL     1     -43.131  55.772 -50.549  1.00  0.00    -0.268 OA
BRANCH  12  15
HETATM   15  C   UNL     1     -40.962  53.964 -50.529  1.00  0.00     0.114 C 
HETATM   16  C   UNL     1     -40.094  53.608 -49.322  1.00  0.00     0.037 C 
BRANCH  15  17
HETATM   17  C   UNL     1     -40.588  53.141 -51.750  1.00  0.00    -0.036 A 
HETATM   18  C   UNL     1     -41.043  53.533 -53.020  1.00  0.00     0.009 A 
HETATM   19  C   UNL     1     -40.735  52.778 -54.154  1.00  0.00     0.001 A 
HETATM   20  C   UNL     1     -39.963  51.626 -54.036  1.00  0.00     0.000 A 
HETATM   21  C   UNL     1     -39.500  51.225 -52.785  1.00  0.00     0.001 A 
HETATM   22  C   UNL     1     -39.813  51.974 -51.649  1.00  0.00     0.009 A 
ENDBRANCH  15  17
ENDBRANCH  12  15
ENDBRANCH   6  11
ENDBRANCH   1   5
BRANCH   2  23
HETATM   23  C   UNL     1     -44.070  56.946 -54.998  1.00  0.00     0.240 C 
BRANCH  23  24
HETATM   24  N   UNL     1     -43.601  56.825 -56.364  1.00  0.00    -0.259 N 
HETATM   25  C   UNL     1     -42.991  55.731 -56.890  1.00  0.00     0.326 C 
HETATM   26  O   UNL     1     -42.717  54.686 -56.331  1.00  0.00    -0.247 OA
HETATM   27  N   UNL     1     -42.732  55.980 -58.222  1.00  0.00    -0.324 N 
HETATM   28  C   UNL     1     -43.396  57.184 -58.694  1.00  0.00     0.120 C 
HETATM   29  H   UNL     1     -42.389  55.229 -58.810  1.00  0.00     0.165 HD
HETATM   30  C   UNL     1     -44.693  56.820 -59.432  1.00  0.00     0.080 C 
HETATM   31  C   UNL     1     -42.482  58.047 -59.551  1.00  0.00     0.046 C 
HETATM   32  C   UNL     1     -43.735  57.790 -57.319  1.00  0.00     0.257 C 
HETATM   33  C   UNL     1     -45.335  57.988 -60.133  1.00  0.00    -0.049 A 
HETATM   34  C   UNL     1     -44.607  59.148 -60.445  1.00  0.00    -0.052 A 
HETATM   35  C   UNL     1     -46.685  57.897 -60.507  1.00  0.00     0.007 A 
HETATM   36  C   UNL     1     -43.167  59.327 -60.032  1.00  0.00     0.042 C 
HETATM   37  C   UNL     1     -45.256  60.209 -61.098  1.00  0.00     0.007 A 
HETATM   38  C   UNL     1     -46.602  60.112 -61.450  1.00  0.00     0.001 A 
HETATM   39  C   UNL     1     -47.317  58.955 -61.157  1.00  0.00     0.001 A 
HETATM   40  O   UNL     1     -44.094  58.938 -57.089  1.00  0.00    -0.270 OA
ENDBRANCH  23  24
ENDBRANCH   2  23
TORSDOF 6
ENDMDL
MODEL 4
REMARK VINA RESULT:      -8.7      2.003      5.871
REMARK  6 active torsions:
REMARK  status: ('A' for Active; 'I' for Inactive)
REMARK    1  A    between atoms: C_2  and  N_3 
REMARK    2  A    between atoms: C_2  and  C_32 
REMARK       I    between atoms: N_3  and  C_4 
REMARK    3  A    between atoms: C_4  and  C_5 
REMARK    4  A    between atoms: C_6  and  N_7 
REMARK       I    between atoms: N_7  and  C_8 
REMARK    5  A    between atoms: C_8  and  C_9 
REMARK    6  A    between atoms: C_9  and  N_10 
ROOT
HETATM    1  N   UNL     1     -43.457  60.739 -52.968  1.00  0.00    -0.325 N 
HETATM    2  C   UNL     1     -42.297  60.013 -52.719  1.00  0.00     0.240 C 
HETATM    3  O   UNL     1     -41.356  59.929 -53.509  1.00  0.00    -0.271 OA
HETATM    4  H   UNL     1     -44.287  60.379 -52.493  1.00  0.00     0.169 HD
ENDROOT
BRANCH   1   5
HETATM    5  C   UNL     1     -43.675  61.356 -54.220  1.00  0.00     0.050 A 
HETATM    6  C   UNL     1     -44.125  60.680 -55.370  1.00  0.00     0.058 A 
HETATM    7  C   UNL     1     -44.275  61.389 -56.574  1.00  0.00     0.019 A 
HETATM    8  C   UNL     1     -43.993  62.754 -56.639  1.00  0.00     0.001 A 
HETATM    9  C   UNL     1     -43.518  63.414 -55.510  1.00  0.00     0.002 A 
HETATM   10  C   UNL     1     -43.341  62.716 -54.314  1.00  0.00     0.030 A 
BRANCH   6  11
HETATM   11  C   UNL     1     -44.250  59.204 -55.488  1.00  0.00     0.254 C 
HETATM   12  N   UNL     1     -43.609  58.600 -56.538  1.00  0.00    -0.349 N 
HETATM   13  H   UNL     1     -42.981  59.167 -57.105  1.00  0.00     0.163 HD
HETATM   14  O   UNL     1     -44.867  58.585 -54.626  1.00  0.00    -0.268 OA
BRANCH  12  15
HETATM   15  C   UNL     1     -43.580  57.156 -56.694  1.00  0.00     0.114 C 
HETATM   16  C   UNL     1     -42.194  56.603 -56.364  1.00  0.00     0.037 C 
BRANCH  15  17
HETATM   17  C   UNL     1     -44.029  56.747 -58.087  1.00  0.00    -0.036 A 
HETATM   18  C   UNL     1     -43.526  55.568 -58.663  1.00  0.00     0.009 A 
HETATM   19  C   UNL     1     -43.903  55.185 -59.952  1.00  0.00     0.001 A 
HETATM   20  C   UNL     1     -44.791  55.971 -60.681  1.00  0.00     0.000 A 
HETATM   21  C   UNL     1     -45.303  57.140 -60.123  1.00  0.00     0.001 A 
HETATM   22  C   UNL     1     -44.922  57.529 -58.838  1.00  0.00     0.009 A 
ENDBRANCH  15  17
ENDBRANCH  12  15
ENDBRANCH   6  11
ENDBRANCH   1   5
BRANCH   2  23
HETATM   23  C   UNL     1     -42.257  59.359 -51.341  1.00  0.00     0.240 C 
BRANCH  23  24
HETATM   24  N   UNL     1     -42.907  58.064 -51.332  1.00  0.00    -0.259 N 
HETATM   25  C   UNL     1     -44.247  57.858 -51.410  1.00  0.00     0.326 C 
HETATM   26  O   UNL     1     -45.130  58.693 -51.486  1.00  0.00    -0.247 OA
HETATM   27  N   UNL     1     -44.476  56.498 -51.413  1.00  0.00    -0.324 N 
HETATM   28  C   UNL     1     -43.250  55.736 -51.584  1.00  0.00     0.120 C 
HETATM   29  H   UNL     1     -45.412  56.152 -51.590  1.00  0.00     0.165 HD
HETATM   30  C   UNL     1     -43.094  55.304 -53.049  1.00  0.00     0.080 C 
HETATM   31  C   UNL     1     -43.172  54.550 -50.634  1.00  0.00     0.046 C 
HETATM   32  C   UNL     1     -42.253  56.868 -51.269  1.00  0.00     0.257 C 
HETATM   33  C   UNL     1     -41.961  54.336 -53.275  1.00  0.00    -0.049 A 
HETATM   34  C   UNL     1     -41.416  53.586 -52.219  1.00  0.00    -0.052 A 
HETATM   35  C   UNL     1     -41.465  54.163 -54.576  1.00  0.00     0.007 A 
HETATM   36  C   UNL     1     -41.873  53.757 -50.793  1.00  0.00     0.042 C 
HETATM   37  C   UNL     1     -40.359  52.700 -52.486  1.00  0.00     0.007 A 
HETATM   38  C   UNL     1     -39.864  52.548 -53.781  1.00  0.00     0.001 A 
HETATM   39  C   UNL     1     -40.419  53.278 -54.827  1.00  0.00     0.001 A 
HETATM   40  O   UNL     1     -41.060  56.750 -51.023  1.00  0.00    -0.270 OA
ENDBRANCH  23  24
ENDBRANCH   2  23
TORSDOF 6
ENDMDL
MODEL 5
REMARK VINA RESULT:      -8.5      1.934      6.875
REMARK  6 active torsions:
REMARK  status: ('A' for Active; 'I' for Inactive)
REMARK    1  A    between atoms: C_2  and  N_3 
REMARK    2  A    between atoms: C_2  and  C_32 
REMARK       I    between atoms: N_3  and  C_4 
REMARK    3  A    between atoms: C_4  and  C_5 
REMARK    4  A    between atoms: C_6  and  N_7 
REMARK       I    between atoms: N_7  and  C_8 
REMARK    5  A    between atoms: C_8  and  C_9 
REMARK    6  A    between atoms: C_9  and  N_10 
ROOT
HETATM    1  N   UNL     1     -44.021  58.323 -50.987  1.00  0.00    -0.325 N 
HETATM    2  C   UNL     1     -44.342  57.263 -51.829  1.00  0.00     0.240 C 
HETATM    3  O   UNL     1     -45.033  57.375 -52.841  1.00  0.00    -0.271 OA
HETATM    4  H   UNL     1     -43.861  58.052 -50.015  1.00  0.00     0.169 HD
ENDROOT
BRANCH   1   5
HETATM    5  C   UNL     1     -44.571  59.608 -51.192  1.00  0.00     0.050 A 
HETATM    6  C   UNL     1     -44.203  60.469 -52.244  1.00  0.00     0.058 A 
HETATM    7  C   UNL     1     -44.792  61.743 -52.333  1.00  0.00     0.019 A 
HETATM    8  C   UNL     1     -45.740  62.158 -51.398  1.00  0.00     0.001 A 
HETATM    9  C   UNL     1     -46.079  61.319 -50.341  1.00  0.00     0.002 A 
HETATM   10  C   UNL     1     -45.484  60.060 -50.227  1.00  0.00     0.030 A 
BRANCH   6  11
HETATM   11  C   UNL     1     -43.062  60.237 -53.167  1.00  0.00     0.254 C 
HETATM   12  N   UNL     1     -43.332  59.619 -54.361  1.00  0.00    -0.349 N 
HETATM   13  H   UNL     1     -44.308  59.467 -54.610  1.00  0.00     0.163 HD
HETATM   14  O   UNL     1     -41.948  60.648 -52.856  1.00  0.00    -0.268 OA
BRANCH  12  15
HETATM   15  C   UNL     1     -42.314  59.433 -55.379  1.00  0.00     0.114 C 
HETATM   16  C   UNL     1     -42.242  60.648 -56.304  1.00  0.00     0.037 C 
BRANCH  15  17
HETATM   17  C   UNL     1     -42.546  58.150 -56.158  1.00  0.00    -0.036 A 
HETATM   18  C   UNL     1     -42.598  58.186 -57.561  1.00  0.00     0.009 A 
HETATM   19  C   UNL     1     -42.838  57.025 -58.298  1.00  0.00     0.001 A 
HETATM   20  C   UNL     1     -43.024  55.810 -57.645  1.00  0.00     0.000 A 
HETATM   21  C   UNL     1     -42.972  55.755 -56.253  1.00  0.00     0.001 A 
HETATM   22  C   UNL     1     -42.739  56.916 -55.515  1.00  0.00     0.009 A 
ENDBRANCH  15  17
ENDBRANCH  12  15
ENDBRANCH   6  11
ENDBRANCH   1   5
BRANCH   2  23
HETATM   23  C   UNL     1     -43.713  55.935 -51.421  1.00  0.00     0.240 C 
BRANCH  23  24
HETATM   24  N   UNL     1     -42.433  55.716 -52.063  1.00  0.00    -0.259 N 
HETATM   25  C   UNL     1     -41.385  56.579 -52.038  1.00  0.00     0.326 C 
HETATM   26  O   UNL     1     -41.327  57.671 -51.501  1.00  0.00    -0.247 OA
HETATM   27  N   UNL     1     -40.335  56.005 -52.723  1.00  0.00    -0.324 N 
HETATM   28  C   UNL     1     -40.579  54.604 -53.026  1.00  0.00     0.120 C 
HETATM   29  H   UNL     1     -39.425  56.452 -52.704  1.00  0.00     0.165 HD
HETATM   30  C   UNL     1     -39.871  53.708 -52.001  1.00  0.00     0.080 C 
HETATM   31  C   UNL     1     -40.189  54.248 -54.453  1.00  0.00     0.046 C 
HETATM   32  C   UNL     1     -42.097  54.594 -52.763  1.00  0.00     0.257 C 
HETATM   33  C   UNL     1     -39.897  52.244 -52.359  1.00  0.00    -0.049 A 
HETATM   34  C   UNL     1     -40.141  51.815 -53.674  1.00  0.00    -0.052 A 
HETATM   35  C   UNL     1     -39.643  51.296 -51.356  1.00  0.00     0.007 A 
HETATM   36  C   UNL     1     -40.464  52.781 -54.786  1.00  0.00     0.042 C 
HETATM   37  C   UNL     1     -40.157  50.439 -53.952  1.00  0.00     0.007 A 
HETATM   38  C   UNL     1     -39.918  49.505 -52.944  1.00  0.00     0.001 A 
HETATM   39  C   UNL     1     -39.659  49.933 -51.646  1.00  0.00     0.001 A 
HETATM   40  O   UNL     1     -42.894  53.725 -53.091  1.00  0.00    -0.270 OA
ENDBRANCH  23  24
ENDBRANCH   2  23
TORSDOF 6
ENDMDL
MODEL 6
REMARK VINA RESULT:      -8.4      2.415      6.509
REMARK  6 active torsions:
REMARK  status: ('A' for Active; 'I' for Inactive)
REMARK    1  A    between atoms: C_2  and  N_3 
REMARK    2  A    between atoms: C_2  and  C_32 
REMARK       I    between atoms: N_3  and  C_4 
REMARK    3  A    between atoms: C_4  and  C_5 
REMARK    4  A    between atoms: C_6  and  N_7 
REMARK       I    between atoms: N_7  and  C_8 
REMARK    5  A    between atoms: C_8  and  C_9 
REMARK    6  A    between atoms: C_9  and  N_10 
ROOT
HETATM    1  N   UNL     1     -43.481  57.065 -53.923  1.00  0.00    -0.325 N 
HETATM    2  C   UNL     1     -42.182  57.402 -54.288  1.00  0.00     0.240 C 
HETATM    3  O   UNL     1     -41.558  58.349 -53.809  1.00  0.00    -0.271 OA
HETATM    4  H   UNL     1     -44.016  56.602 -54.660  1.00  0.00     0.169 HD
ENDROOT
BRANCH   1   5
HETATM    5  C   UNL     1     -44.220  57.875 -53.031  1.00  0.00     0.050 A 
HETATM    6  C   UNL     1     -44.381  57.602 -51.659  1.00  0.00     0.058 A 
HETATM    7  C   UNL     1     -45.168  58.459 -50.871  1.00  0.00     0.019 A 
HETATM    8  C   UNL     1     -45.782  59.581 -51.431  1.00  0.00     0.001 A 
HETATM    9  C   UNL     1     -45.648  59.832 -52.793  1.00  0.00     0.002 A 
HETATM   10  C   UNL     1     -44.889  58.974 -53.592  1.00  0.00     0.030 A 
BRANCH   6  11
HETATM   11  C   UNL     1     -43.966  56.339 -50.994  1.00  0.00     0.254 C 
HETATM   12  N   UNL     1     -42.645  55.985 -51.082  1.00  0.00    -0.349 N 
HETATM   13  H   UNL     1     -41.995  56.660 -51.482  1.00  0.00     0.163 HD
HETATM   14  O   UNL     1     -44.797  55.699 -50.356  1.00  0.00    -0.268 OA
BRANCH  12  15
HETATM   15  C   UNL     1     -42.111  54.828 -50.387  1.00  0.00     0.114 C 
HETATM   16  C   UNL     1     -41.186  55.258 -49.247  1.00  0.00     0.037 C 
BRANCH  15  17
HETATM   17  C   UNL     1     -41.410  53.886 -51.351  1.00  0.00    -0.036 A 
HETATM   18  C   UNL     1     -40.381  53.050 -50.884  1.00  0.00     0.009 A 
HETATM   19  C   UNL     1     -39.703  52.196 -51.756  1.00  0.00     0.001 A 
HETATM   20  C   UNL     1     -40.047  52.159 -53.105  1.00  0.00     0.000 A 
HETATM   21  C   UNL     1     -41.068  52.978 -53.583  1.00  0.00     0.001 A 
HETATM   22  C   UNL     1     -41.742  53.838 -52.715  1.00  0.00     0.009 A 
ENDBRANCH  15  17
ENDBRANCH  12  15
ENDBRANCH   6  11
ENDBRANCH   1   5
BRANCH   2  23
HETATM   23  C   UNL     1     -41.559  56.455 -55.308  1.00  0.00     0.240 C 
BRANCH  23  24
HETATM   24  N   UNL     1     -42.382  56.307 -56.491  1.00  0.00    -0.259 N 
HETATM   25  C   UNL     1     -43.144  55.222 -56.786  1.00  0.00     0.326 C 
HETATM   26  O   UNL     1     -43.265  54.196 -56.143  1.00  0.00    -0.247 OA
HETATM   27  N   UNL     1     -43.810  55.471 -57.968  1.00  0.00    -0.324 N 
HETATM   28  C   UNL     1     -43.696  56.860 -58.380  1.00  0.00     0.120 C 
HETATM   29  H   UNL     1     -44.522  54.821 -58.283  1.00  0.00     0.165 HD
HETATM   30  C   UNL     1     -44.956  57.639 -57.976  1.00  0.00     0.080 C 
HETATM   31  C   UNL     1     -43.399  56.996 -59.867  1.00  0.00     0.046 C 
HETATM   32  C   UNL     1     -42.525  57.256 -57.462  1.00  0.00     0.257 C 
HETATM   33  C   UNL     1     -45.011  59.033 -58.547  1.00  0.00    -0.049 A 
HETATM   34  C   UNL     1     -44.238  59.401 -59.661  1.00  0.00    -0.052 A 
HETATM   35  C   UNL     1     -45.880  59.970 -57.966  1.00  0.00     0.007 A 
HETATM   36  C   UNL     1     -43.255  58.455 -60.303  1.00  0.00     0.042 C 
HETATM   37  C   UNL     1     -44.327  60.714 -60.151  1.00  0.00     0.007 A 
HETATM   38  C   UNL     1     -45.182  61.641 -59.556  1.00  0.00     0.001 A 
HETATM   39  C   UNL     1     -45.961  61.269 -58.464  1.00  0.00     0.001 A 
HETATM   40  O   UNL     1     -41.832  58.262 -57.545  1.00  0.00    -0.270 OA
ENDBRANCH  23  24
ENDBRANCH   2  23
TORSDOF 6
ENDMDL
MODEL 7
REMARK VINA RESULT:      -8.4      2.376      6.443
REMARK  6 active torsions:
REMARK  status: ('A' for Active; 'I' for Inactive)
REMARK    1  A    between atoms: C_2  and  N_3 
REMARK    2  A    between atoms: C_2  and  C_32 
REMARK       I    between atoms: N_3  and  C_4 
REMARK    3  A    between atoms: C_4  and  C_5 
REMARK    4  A    between atoms: C_6  and  N_7 
REMARK       I    between atoms: N_7  and  C_8 
REMARK    5  A    between atoms: C_8  and  C_9 
REMARK    6  A    between atoms: C_9  and  N_10 
ROOT
HETATM    1  N   UNL     1     -42.843  57.686 -53.489  1.00  0.00    -0.325 N 
HETATM    2  C   UNL     1     -42.028  56.989 -54.374  1.00  0.00     0.240 C 
HETATM    3  O   UNL     1     -40.816  56.840 -54.219  1.00  0.00    -0.271 OA
HETATM    4  H   UNL     1     -43.664  58.112 -53.923  1.00  0.00     0.169 HD
ENDROOT
BRANCH   1   5
HETATM    5  C   UNL     1     -42.297  58.373 -52.382  1.00  0.00     0.050 A 
HETATM    6  C   UNL     1     -41.811  57.744 -51.219  1.00  0.00     0.058 A 
HETATM    7  C   UNL     1     -41.318  58.530 -50.163  1.00  0.00     0.019 A 
HETATM    8  C   UNL     1     -41.298  59.922 -50.258  1.00  0.00     0.001 A 
HETATM    9  C   UNL     1     -41.807  60.543 -51.394  1.00  0.00     0.002 A 
HETATM   10  C   UNL     1     -42.322  59.775 -52.441  1.00  0.00     0.030 A 
BRANCH   6  11
HETATM   11  C   UNL     1     -41.975  56.301 -50.907  1.00  0.00     0.254 C 
HETATM   12  N   UNL     1     -40.911  55.476 -51.161  1.00  0.00    -0.349 N 
HETATM   13  H   UNL     1     -40.026  55.905 -51.427  1.00  0.00     0.163 HD
HETATM   14  O   UNL     1     -43.021  55.916 -50.391  1.00  0.00    -0.268 OA
BRANCH  12  15
HETATM   15  C   UNL     1     -40.925  54.069 -50.801  1.00  0.00     0.114 C 
HETATM   16  C   UNL     1     -39.912  53.781 -49.693  1.00  0.00     0.037 C 
BRANCH  15  17
HETATM   17  C   UNL     1     -40.687  53.191 -52.018  1.00  0.00    -0.036 A 
HETATM   18  C   UNL     1     -39.797  52.107 -51.932  1.00  0.00     0.009 A 
HETATM   19  C   UNL     1     -39.541  51.302 -53.044  1.00  0.00     0.001 A 
HETATM   20  C   UNL     1     -40.174  51.564 -54.256  1.00  0.00     0.000 A 
HETATM   21  C   UNL     1     -41.063  52.632 -54.357  1.00  0.00     0.001 A 
HETATM   22  C   UNL     1     -41.315  53.442 -53.249  1.00  0.00     0.009 A 
ENDBRANCH  15  17
ENDBRANCH  12  15
ENDBRANCH   6  11
ENDBRANCH   1   5
BRANCH   2  23
HETATM   23  C   UNL     1     -42.777  56.363 -55.547  1.00  0.00     0.240 C 
BRANCH  23  24
HETATM   24  N   UNL     1     -43.556  57.340 -56.281  1.00  0.00    -0.259 N 
HETATM   25  C   UNL     1     -44.782  57.798 -55.919  1.00  0.00     0.326 C 
HETATM   26  O   UNL     1     -45.445  57.476 -54.950  1.00  0.00    -0.247 OA
HETATM   27  N   UNL     1     -45.180  58.742 -56.841  1.00  0.00    -0.324 N 
HETATM   28  C   UNL     1     -44.098  59.128 -57.734  1.00  0.00     0.120 C 
HETATM   29  H   UNL     1     -46.019  59.285 -56.667  1.00  0.00     0.165 HD
HETATM   30  C   UNL     1     -43.464  60.443 -57.262  1.00  0.00     0.080 C 
HETATM   31  C   UNL     1     -44.550  59.206 -59.185  1.00  0.00     0.046 C 
HETATM   32  C   UNL     1     -43.147  57.955 -57.429  1.00  0.00     0.257 C 
HETATM   33  C   UNL     1     -42.477  61.022 -58.243  1.00  0.00    -0.049 A 
HETATM   34  C   UNL     1     -42.479  60.644 -59.596  1.00  0.00    -0.052 A 
HETATM   35  C   UNL     1     -41.556  61.981 -57.793  1.00  0.00     0.007 A 
HETATM   36  C   UNL     1     -43.412  59.588 -60.132  1.00  0.00     0.042 C 
HETATM   37  C   UNL     1     -41.535  61.213 -60.466  1.00  0.00     0.007 A 
HETATM   38  C   UNL     1     -40.615  62.154 -60.004  1.00  0.00     0.001 A 
HETATM   39  C   UNL     1     -40.627  62.540 -58.667  1.00  0.00     0.001 A 
HETATM   40  O   UNL     1     -42.163  57.618 -58.075  1.00  0.00    -0.270 OA
ENDBRANCH  23  24
ENDBRANCH   2  23
TORSDOF 6
ENDMDL
MODEL 8
REMARK VINA RESULT:      -8.2      2.107      6.159
REMARK  6 active torsions:
REMARK  status: ('A' for Active; 'I' for Inactive)
REMARK    1  A    between atoms: C_2  and  N_3 
REMARK    2  A    between atoms: C_2  and  C_32 
REMARK       I    between atoms: N_3  and  C_4 
REMARK    3  A    between atoms: C_4  and  C_5 
REMARK    4  A    between atoms: C_6  and  N_7 
REMARK       I    between atoms: N_7  and  C_8 
REMARK    5  A    between atoms: C_8  and  C_9 
REMARK    6  A    between atoms: C_9  and  N_10 
ROOT
HETATM    1  N   UNL     1     -43.723  59.293 -52.675  1.00  0.00    -0.325 N 
HETATM    2  C   UNL     1     -43.995  60.109 -53.768  1.00  0.00     0.240 C 
HETATM    3  O   UNL     1     -43.141  60.767 -54.363  1.00  0.00    -0.271 OA
HETATM    4  H   UNL     1     -44.507  59.184 -52.029  1.00  0.00     0.169 HD
ENDROOT
BRANCH   1   5
HETATM    5  C   UNL     1     -42.433  59.250 -52.101  1.00  0.00     0.050 A 
HETATM    6  C   UNL     1     -41.401  58.396 -52.535  1.00  0.00     0.058 A 
HETATM    7  C   UNL     1     -40.163  58.412 -51.868  1.00  0.00     0.019 A 
HETATM    8  C   UNL     1     -39.945  59.270 -50.789  1.00  0.00     0.001 A 
HETATM    9  C   UNL     1     -40.976  60.090 -50.342  1.00  0.00     0.002 A 
HETATM   10  C   UNL     1     -42.218  60.066 -50.980  1.00  0.00     0.030 A 
BRANCH   6  11
HETATM   11  C   UNL     1     -41.571  57.294 -53.518  1.00  0.00     0.254 C 
HETATM   12  N   UNL     1     -41.523  56.011 -53.040  1.00  0.00    -0.349 N 
HETATM   13  H   UNL     1     -41.503  55.877 -52.031  1.00  0.00     0.163 HD
HETATM   14  O   UNL     1     -41.799  57.571 -54.693  1.00  0.00    -0.268 OA
BRANCH  12  15
HETATM   15  C   UNL     1     -41.777  54.862 -53.893  1.00  0.00     0.114 C 
HETATM   16  C   UNL     1     -43.273  54.555 -53.957  1.00  0.00     0.037 C 
BRANCH  15  17
HETATM   17  C   UNL     1     -40.976  53.655 -53.436  1.00  0.00    -0.036 A 
HETATM   18  C   UNL     1     -40.672  52.634 -54.353  1.00  0.00     0.009 A 
HETATM   19  C   UNL     1     -39.961  51.501 -53.951  1.00  0.00     0.001 A 
HETATM   20  C   UNL     1     -39.540  51.374 -52.631  1.00  0.00     0.000 A 
HETATM   21  C   UNL     1     -39.829  52.379 -51.710  1.00  0.00     0.001 A 
HETATM   22  C   UNL     1     -40.546  53.509 -52.108  1.00  0.00     0.009 A 
ENDBRANCH  15  17
ENDBRANCH  12  15
ENDBRANCH   6  11
ENDBRANCH   1   5
BRANCH   2  23
HETATM   23  C   UNL     1     -45.453  60.084 -54.215  1.00  0.00     0.240 C 
BRANCH  23  24
HETATM   24  N   UNL     1     -45.587  60.216 -55.651  1.00  0.00    -0.259 N 
HETATM   25  C   UNL     1     -45.520  61.383 -56.342  1.00  0.00     0.326 C 
HETATM   26  O   UNL     1     -45.356  62.506 -55.900  1.00  0.00    -0.247 OA
HETATM   27  N   UNL     1     -45.651  61.099 -57.685  1.00  0.00    -0.324 N 
HETATM   28  C   UNL     1     -45.564  59.673 -57.955  1.00  0.00     0.120 C 
HETATM   29  H   UNL     1     -45.503  61.836 -58.366  1.00  0.00     0.165 HD
HETATM   30  C   UNL     1     -44.151  59.308 -58.430  1.00  0.00     0.080 C 
HETATM   31  C   UNL     1     -46.629  59.208 -58.938  1.00  0.00     0.046 C 
HETATM   32  C   UNL     1     -45.772  59.173 -56.513  1.00  0.00     0.257 C 
HETATM   33  C   UNL     1     -44.030  57.892 -58.929  1.00  0.00    -0.049 A 
HETATM   34  C   UNL     1     -45.158  57.156 -59.328  1.00  0.00    -0.052 A 
HETATM   35  C   UNL     1     -42.756  57.312 -59.024  1.00  0.00     0.007 A 
HETATM   36  C   UNL     1     -46.558  57.705 -59.209  1.00  0.00     0.042 C 
HETATM   37  C   UNL     1     -44.989  55.838 -59.784  1.00  0.00     0.007 A 
HETATM   38  C   UNL     1     -43.718  55.267 -59.859  1.00  0.00     0.001 A 
HETATM   39  C   UNL     1     -42.601  56.004 -59.481  1.00  0.00     0.001 A 
HETATM   40  O   UNL     1     -46.036  58.031 -56.161  1.00  0.00    -0.270 OA
ENDBRANCH  23  24
ENDBRANCH   2  23
TORSDOF 6
ENDMDL
MODEL 9
REMARK VINA RESULT:      -8.2      2.411      6.730
REMARK  6 active torsions:
REMARK  status: ('A' for Active; 'I' for Inactive)
REMARK    1  A    between atoms: C_2  and  N_3 
REMARK    2  A    between atoms: C_2  and  C_32 
REMARK       I    between atoms: N_3  and  C_4 
REMARK    3  A    between atoms: C_4  and  C_5 
REMARK    4  A    between atoms: C_6  and  N_7 
REMARK       I    between atoms: N_7  and  C_8 
REMARK    5  A    between atoms: C_8  and  C_9 
REMARK    6  A    between atoms: C_9  and  N_10 
ROOT
HETATM    1  N   UNL     1     -42.882  60.074 -53.677  1.00  0.00    -0.325 N 
HETATM    2  C   UNL     1     -44.214  59.710 -53.846  1.00  0.00     0.240 C 
HETATM    3  O   UNL     1     -44.873  59.105 -53.001  1.00  0.00    -0.271 OA
HETATM    4  H   UNL     1     -42.352  60.140 -54.548  1.00  0.00     0.169 HD
ENDROOT
BRANCH   1   5
HETATM    5  C   UNL     1     -42.156  59.668 -52.535  1.00  0.00     0.050 A 
HETATM    6  C   UNL     1     -41.438  58.461 -52.440  1.00  0.00     0.058 A 
HETATM    7  C   UNL     1     -40.777  58.142 -51.240  1.00  0.00     0.019 A 
HETATM    8  C   UNL     1     -40.818  59.012 -50.150  1.00  0.00     0.001 A 
HETATM    9  C   UNL     1     -41.554  60.190 -50.235  1.00  0.00     0.002 A 
HETATM   10  C   UNL     1     -42.235  60.507 -51.412  1.00  0.00     0.030 A 
BRANCH   6  11
HETATM   11  C   UNL     1     -41.495  57.362 -53.438  1.00  0.00     0.254 C 
HETATM   12  N   UNL     1     -41.627  56.084 -52.961  1.00  0.00    -0.349 N 
HETATM   13  H   UNL     1     -41.807  55.961 -51.966  1.00  0.00     0.163 HD
HETATM   14  O   UNL     1     -41.477  57.639 -54.634  1.00  0.00    -0.268 OA
BRANCH  12  15
HETATM   15  C   UNL     1     -41.794  54.945 -53.847  1.00  0.00     0.114 C 
HETATM   16  C   UNL     1     -43.275  54.607 -54.023  1.00  0.00     0.037 C 
BRANCH  15  17
HETATM   17  C   UNL     1     -41.001  53.747 -53.354  1.00  0.00    -0.036 A 
HETATM   18  C   UNL     1     -40.610  53.678 -52.006  1.00  0.00     0.009 A 
HETATM   19  C   UNL     1     -39.857  52.600 -51.535  1.00  0.00     0.001 A 
HETATM   20  C   UNL     1     -39.488  51.574 -52.401  1.00  0.00     0.000 A 
HETATM   21  C   UNL     1     -39.872  51.625 -53.740  1.00  0.00     0.001 A 
HETATM   22  C   UNL     1     -40.619  52.705 -54.214  1.00  0.00     0.009 A 
ENDBRANCH  15  17
ENDBRANCH  12  15
ENDBRANCH   6  11
ENDBRANCH   1   5
BRANCH   2  23
HETATM   23  C   UNL     1     -44.822  60.176 -55.165  1.00  0.00     0.240 C 
BRANCH  23  24
HETATM   24  N   UNL     1     -44.621  59.214 -56.230  1.00  0.00    -0.259 N 
HETATM   25  C   UNL     1     -45.309  58.052 -56.378  1.00  0.00     0.326 C 
HETATM   26  O   UNL     1     -46.185  57.605 -55.661  1.00  0.00    -0.247 OA
HETATM   27  N   UNL     1     -44.864  57.430 -57.525  1.00  0.00    -0.324 N 
HETATM   28  C   UNL     1     -44.016  58.298 -58.327  1.00  0.00     0.120 C 
HETATM   29  H   UNL     1     -45.350  56.608 -57.865  1.00  0.00     0.165 HD
HETATM   30  C   UNL     1     -44.829  58.928 -59.467  1.00  0.00     0.080 C 
HETATM   31  C   UNL     1     -42.781  57.577 -58.844  1.00  0.00     0.046 C 
HETATM   32  C   UNL     1     -43.726  59.360 -57.249  1.00  0.00     0.257 C 
HETATM   33  C   UNL     1     -43.985  59.676 -60.467  1.00  0.00    -0.049 A 
HETATM   34  C   UNL     1     -42.605  59.441 -60.583  1.00  0.00    -0.052 A 
HETATM   35  C   UNL     1     -44.604  60.604 -61.318  1.00  0.00     0.007 A 
HETATM   36  C   UNL     1     -41.873  58.491 -59.669  1.00  0.00     0.042 C 
HETATM   37  C   UNL     1     -41.865  60.167 -61.530  1.00  0.00     0.007 A 
HETATM   38  C   UNL     1     -42.489  61.099 -62.360  1.00  0.00     0.001 A 
HETATM   39  C   UNL     1     -43.859  61.316 -62.256  1.00  0.00     0.001 A 
HETATM   40  O   UNL     1     -42.858  60.223 -57.282  1.00  0.00    -0.270 OA
ENDBRANCH  23  24
ENDBRANCH   2  23
TORSDOF 6
ENDMDL
MODEL 10
REMARK VINA RESULT:      -8.1      1.914      5.969
REMARK  6 active torsions:
REMARK  status: ('A' for Active; 'I' for Inactive)
REMARK    1  A    between atoms: C_2  and  N_3 
REMARK    2  A    between atoms: C_2  and  C_32 
REMARK       I    between atoms: N_3  and  C_4 
REMARK    3  A    between atoms: C_4  and  C_5 
REMARK    4  A    between atoms: C_6  and  N_7 
REMARK       I    between atoms: N_7  and  C_8 
REMARK    5  A    between atoms: C_8  and  C_9 
REMARK    6  A    between atoms: C_9  and  N_10 
ROOT
HETATM    1  N   UNL     1     -43.595  59.828 -56.874  1.00  0.00    -0.325 N 
HETATM    2  C   UNL     1     -42.375  59.280 -56.493  1.00  0.00     0.240 C 
HETATM    3  O   UNL     1     -41.447  59.933 -56.017  1.00  0.00    -0.271 OA
HETATM    4  H   UNL     1     -44.065  59.323 -57.627  1.00  0.00     0.169 HD
ENDROOT
BRANCH   1   5
HETATM    5  C   UNL     1     -43.811  61.224 -56.831  1.00  0.00     0.050 A 
HETATM    6  C   UNL     1     -43.969  61.966 -55.645  1.00  0.00     0.058 A 
HETATM    7  C   UNL     1     -44.214  63.348 -55.721  1.00  0.00     0.019 A 
HETATM    8  C   UNL     1     -44.293  63.992 -56.957  1.00  0.00     0.001 A 
HETATM    9  C   UNL     1     -44.168  63.252 -58.129  1.00  0.00     0.002 A 
HETATM   10  C   UNL     1     -43.949  61.874 -58.067  1.00  0.00     0.030 A 
BRANCH   6  11
HETATM   11  C   UNL     1     -44.123  61.373 -54.291  1.00  0.00     0.254 C 
HETATM   12  N   UNL     1     -43.258  61.797 -53.316  1.00  0.00    -0.349 N 
HETATM   13  H   UNL     1     -42.644  62.581 -53.529  1.00  0.00     0.163 HD
HETATM   14  O   UNL     1     -45.038  60.580 -54.085  1.00  0.00    -0.268 OA
BRANCH  12  15
HETATM   15  C   UNL     1     -43.381  61.361 -51.936  1.00  0.00     0.114 C 
HETATM   16  C   UNL     1     -43.441  62.562 -50.991  1.00  0.00     0.037 C 
BRANCH  15  17
HETATM   17  C   UNL     1     -42.258  60.409 -51.560  1.00  0.00    -0.036 A 
HETATM   18  C   UNL     1     -41.852  60.305 -50.219  1.00  0.00     0.009 A 
HETATM   19  C   UNL     1     -40.804  59.458 -49.853  1.00  0.00     0.001 A 
HETATM   20  C   UNL     1     -40.151  58.699 -50.820  1.00  0.00     0.000 A 
HETATM   21  C   UNL     1     -40.544  58.786 -52.154  1.00  0.00     0.001 A 
HETATM   22  C   UNL     1     -41.586  59.638 -52.523  1.00  0.00     0.009 A 
ENDBRANCH  15  17
ENDBRANCH  12  15
ENDBRANCH   6  11
ENDBRANCH   1   5
BRANCH   2  23
HETATM   23  C   UNL     1     -42.293  57.767 -56.666  1.00  0.00     0.240 C 
BRANCH  23  24
HETATM   24  N   UNL     1     -42.783  57.057 -55.502  1.00  0.00    -0.259 N 
HETATM   25  C   UNL     1     -44.088  56.941 -55.144  1.00  0.00     0.326 C 
HETATM   26  O   UNL     1     -45.062  57.408 -55.705  1.00  0.00    -0.247 OA
HETATM   27  N   UNL     1     -44.157  56.163 -54.007  1.00  0.00    -0.324 N 
HETATM   28  C   UNL     1     -42.889  55.519 -53.705  1.00  0.00     0.120 C 
HETATM   29  H   UNL     1     -45.063  55.865 -53.664  1.00  0.00     0.165 HD
HETATM   30  C   UNL     1     -42.895  54.069 -54.210  1.00  0.00     0.080 C 
HETATM   31  C   UNL     1     -42.540  55.601 -52.226  1.00  0.00     0.046 C 
HETATM   32  C   UNL     1     -41.994  56.381 -54.616  1.00  0.00     0.257 C 
HETATM   33  C   UNL     1     -41.703  53.267 -53.756  1.00  0.00    -0.049 A 
HETATM   34  C   UNL     1     -40.930  53.663 -52.652  1.00  0.00    -0.052 A 
HETATM   35  C   UNL     1     -41.382  52.083 -54.438  1.00  0.00     0.007 A 
HETATM   36  C   UNL     1     -41.196  54.946 -51.905  1.00  0.00     0.042 C 
HETATM   37  C   UNL     1     -39.828  52.879 -52.273  1.00  0.00     0.007 A 
HETATM   38  C   UNL     1     -39.509  51.713 -52.968  1.00  0.00     0.001 A 
HETATM   39  C   UNL     1     -40.287  51.313 -54.050  1.00  0.00     0.001 A 
HETATM   40  O   UNL     1     -40.772  56.452 -54.593  1.00  0.00    -0.270 OA
ENDBRANCH  23  24
ENDBRANCH   2  23
TORSDOF 6
ENDMDL
