MODEL 1
REMARK VINA RESULT:      -8.0      0.000      0.000
REMARK  5 active torsions:
REMARK  status: ('A' for Active; 'I' for Inactive)
REMARK    1  A    between atoms: C_9  and  C_10 
REMARK       I    between atoms: C_10  and  N_11 
REMARK    2  A    between atoms: N_11  and  C_12 
REMARK    3  A    between atoms: C_12  and  C_13 
REMARK    4  A    between atoms: C_16  and  O_17 
REMARK    5  A    between atoms: O_17  and  C_18 
ROOT
HETATM    1  C   UNL     1     -41.864  56.209 -50.356  1.00  0.00     0.273 C 
HETATM    2  N   UNL     1     -43.149  56.168 -50.848  1.00  0.00    -0.351 N 
HETATM    3  O   UNL     1     -41.251  57.256 -50.171  1.00  0.00    -0.266 OA
HETATM    4  H   UNL     1     -43.517  55.239 -51.039  1.00  0.00     0.163 HD
ENDROOT
BRANCH   2   5
HETATM    5  C   UNL     1     -43.818  57.353 -51.310  1.00  0.00     0.163 C 
BRANCH   5   6
HETATM    6  C   UNL     1     -43.980  57.346 -52.799  1.00  0.00    -0.023 A 
HETATM    7  C   UNL     1     -44.615  58.395 -53.457  1.00  0.00     0.128 A 
HETATM    8  N   UNL     1     -44.778  58.465 -54.798  1.00  0.00    -0.236 NA
HETATM    9  C   UNL     1     -44.282  57.442 -55.523  1.00  0.00     0.164 A 
HETATM   10  C   UNL     1     -43.629  56.354 -54.967  1.00  0.00     0.059 A 
HETATM   11  C   UNL     1     -43.468  56.312 -53.586  1.00  0.00     0.014 A 
BRANCH   9  12
HETATM   12  O   UNL     1     -44.422  57.431 -56.895  1.00  0.00    -0.329 OA
BRANCH  12  13
HETATM   13  C   UNL     1     -43.274  56.981 -57.605  1.00  0.00     0.130 C 
HETATM   14  C   UNL     1     -43.731  56.095 -58.763  1.00  0.00     0.032 C 
HETATM   15  C   UNL     1     -42.522  56.079 -59.680  1.00  0.00     0.002 C 
HETATM   16  C   UNL     1     -41.967  57.497 -59.605  1.00  0.00     0.002 C 
HETATM   17  C   UNL     1     -42.533  58.111 -58.323  1.00  0.00     0.032 C 
ENDBRANCH  12  13
ENDBRANCH   9  12
ENDBRANCH   5   6
ENDBRANCH   2   5
BRANCH   1  18
HETATM   18  C   UNL     1     -41.300  54.875 -50.097  1.00  0.00     0.157 A 
HETATM   19  C   UNL     1     -40.850  53.923 -51.060  1.00  0.00     0.029 A 
HETATM   20  C   UNL     1     -40.757  53.866 -52.465  1.00  0.00     0.023 A 
HETATM   21  C   UNL     1     -40.427  52.829 -50.316  1.00  0.00     0.063 A 
HETATM   22  C   UNL     1     -40.240  52.712 -53.078  1.00  0.00    -0.061 A 
HETATM   23  C   UNL     1     -40.135  52.627 -54.574  1.00  0.00     0.048 C 
HETATM   24  C   UNL     1     -39.828  51.631 -52.290  1.00  0.00     0.009 A 
HETATM   25  C   UNL     1     -39.912  51.665 -50.893  1.00  0.00     0.032 A 
HETATM   26  N   UNL     1     -40.638  53.177 -49.011  1.00  0.00    -0.277 N 
HETATM   27  H   UNL     1     -40.442  52.617 -48.189  1.00  0.00     0.189 HD
HETATM   28  N   UNL     1     -41.166  54.401 -48.838  1.00  0.00    -0.168 NA
ENDBRANCH   1  18
TORSDOF 5
ENDMDL
MODEL 2
REMARK VINA RESULT:      -7.9      3.285      4.664
REMARK  5 active torsions:
REMARK  status: ('A' for Active; 'I' for Inactive)
REMARK    1  A    between atoms: C_9  and  C_10 
REMARK       I    between atoms: C_10  and  N_11 
REMARK    2  A    between atoms: N_11  and  C_12 
REMARK    3  A    between atoms: C_12  and  C_13 
REMARK    4  A    between atoms: C_16  and  O_17 
REMARK    5  A    between atoms: O_17  and  C_18 
ROOT
HETATM    1  C   UNL     1     -42.554  54.710 -55.075  1.00  0.00     0.273 C 
HETATM    2  N   UNL     1     -42.176  55.907 -55.640  1.00  0.00    -0.351 N 
HETATM    3  O   UNL     1     -43.422  53.987 -55.554  1.00  0.00    -0.266 OA
HETATM    4  H   UNL     1     -41.509  56.456 -55.103  1.00  0.00     0.163 HD
ENDROOT
BRANCH   2   5
HETATM    5  C   UNL     1     -42.875  56.462 -56.767  1.00  0.00     0.163 C 
BRANCH   5   6
HETATM    6  C   UNL     1     -42.430  57.864 -57.051  1.00  0.00    -0.023 A 
HETATM    7  C   UNL     1     -42.240  58.779 -56.021  1.00  0.00     0.128 A 
HETATM    8  N   UNL     1     -41.821  60.052 -56.201  1.00  0.00    -0.236 NA
HETATM    9  C   UNL     1     -41.576  60.435 -57.471  1.00  0.00     0.164 A 
HETATM   10  C   UNL     1     -41.729  59.602 -58.567  1.00  0.00     0.059 A 
HETATM   11  C   UNL     1     -42.153  58.294 -58.351  1.00  0.00     0.014 A 
BRANCH   9  12
HETATM   12  O   UNL     1     -41.161  61.723 -57.740  1.00  0.00    -0.329 OA
BRANCH  12  13
HETATM   13  C   UNL     1     -40.886  61.983 -59.112  1.00  0.00     0.130 C 
HETATM   14  C   UNL     1     -41.896  63.006 -59.629  1.00  0.00     0.032 C 
HETATM   15  C   UNL     1     -41.234  63.536 -60.888  1.00  0.00     0.002 C 
HETATM   16  C   UNL     1     -39.753  63.617 -60.534  1.00  0.00     0.002 C 
HETATM   17  C   UNL     1     -39.549  62.696 -59.330  1.00  0.00     0.032 C 
ENDBRANCH  12  13
ENDBRANCH   9  12
ENDBRANCH   5   6
ENDBRANCH   2   5
BRANCH   1  18
HETATM   18  C   UNL     1     -41.826  54.401 -53.833  1.00  0.00     0.157 A 
HETATM   19  C   UNL     1     -41.042  53.243 -53.554  1.00  0.00     0.029 A 
HETATM   20  C   UNL     1     -40.673  52.074 -54.251  1.00  0.00     0.023 A 
HETATM   21  C   UNL     1     -40.584  53.420 -52.255  1.00  0.00     0.063 A 
HETATM   22  C   UNL     1     -39.855  51.121 -53.620  1.00  0.00    -0.061 A 
HETATM   23  C   UNL     1     -39.453  49.867 -54.340  1.00  0.00     0.048 C 
HETATM   24  C   UNL     1     -39.419  51.339 -52.307  1.00  0.00     0.009 A 
HETATM   25  C   UNL     1     -39.773  52.492 -51.597  1.00  0.00     0.032 A 
HETATM   26  N   UNL     1     -41.098  54.622 -51.853  1.00  0.00    -0.277 N 
HETATM   27  H   UNL     1     -40.969  55.073 -50.954  1.00  0.00     0.189 HD
HETATM   28  N   UNL     1     -41.855  55.242 -52.775  1.00  0.00    -0.168 NA
ENDBRANCH   1  18
TORSDOF 5
ENDMDL
MODEL 3
REMARK VINA RESULT:      -7.8      1.142      1.398
REMARK  5 active torsions:
REMARK  status: ('A' for Active; 'I' for Inactive)
REMARK    1  A    between atoms: C_9  and  C_10 
REMARK       I    between atoms: C_10  and  N_11 
REMARK    2  A    between atoms: N_11  and  C_12 
REMARK    3  A    between atoms: C_12  and  C_13 
REMARK    4  A    between atoms: C_16  and  O_17 
REMARK    5  A    between atoms: O_17  and  C_18 
ROOT
HETATM    1  C   UNL     1     -41.482  56.592 -50.702  1.00  0.00     0.273 C 
HETATM    2  N   UNL     1     -42.718  56.621 -51.309  1.00  0.00    -0.351 N 
HETATM    3  O   UNL     1     -40.766  57.582 -50.594  1.00  0.00    -0.266 OA
HETATM    4  H   UNL     1     -43.178  55.720 -51.414  1.00  0.00     0.163 HD
ENDROOT
BRANCH   2   5
HETATM    5  C   UNL     1     -43.198  57.795 -51.985  1.00  0.00     0.163 C 
BRANCH   5   6
HETATM    6  C   UNL     1     -43.057  57.669 -53.471  1.00  0.00    -0.023 A 
HETATM    7  C   UNL     1     -42.616  58.738 -54.243  1.00  0.00     0.128 A 
HETATM    8  N   UNL     1     -42.445  58.690 -55.584  1.00  0.00    -0.236 NA
HETATM    9  C   UNL     1     -42.724  57.517 -56.188  1.00  0.00     0.164 A 
HETATM   10  C   UNL     1     -43.163  56.391 -55.512  1.00  0.00     0.059 A 
HETATM   11  C   UNL     1     -43.322  56.467 -54.131  1.00  0.00     0.014 A 
BRANCH   9  12
HETATM   12  O   UNL     1     -42.590  57.392 -57.556  1.00  0.00    -0.329 OA
BRANCH  12  13
HETATM   13  C   UNL     1     -43.529  56.512 -58.165  1.00  0.00     0.130 C 
HETATM   14  C   UNL     1     -44.691  57.339 -58.712  1.00  0.00     0.032 C 
HETATM   15  C   UNL     1     -45.343  56.397 -59.707  1.00  0.00     0.002 C 
HETATM   16  C   UNL     1     -44.176  55.672 -60.367  1.00  0.00     0.002 C 
HETATM   17  C   UNL     1     -42.983  55.832 -59.423  1.00  0.00     0.032 C 
ENDBRANCH  12  13
ENDBRANCH   9  12
ENDBRANCH   5   6
ENDBRANCH   2   5
BRANCH   1  18
HETATM   18  C   UNL     1     -41.107  55.254 -50.217  1.00  0.00     0.157 A 
HETATM   19  C   UNL     1     -40.746  54.119 -51.002  1.00  0.00     0.029 A 
HETATM   20  C   UNL     1     -40.605  53.836 -52.376  1.00  0.00     0.023 A 
HETATM   21  C   UNL     1     -40.499  53.107 -50.082  1.00  0.00     0.063 A 
HETATM   22  C   UNL     1     -40.217  52.548 -52.782  1.00  0.00    -0.061 A 
HETATM   23  C   UNL     1     -40.064  52.224 -54.240  1.00  0.00     0.048 C 
HETATM   24  C   UNL     1     -39.981  51.557 -51.820  1.00  0.00     0.009 A 
HETATM   25  C   UNL     1     -40.116  51.815 -50.451  1.00  0.00     0.032 A 
HETATM   26  N   UNL     1     -40.715  53.674 -48.857  1.00  0.00    -0.277 N 
HETATM   27  H   UNL     1     -40.627  53.226 -47.951  1.00  0.00     0.189 HD
HETATM   28  N   UNL     1     -41.087  54.965 -48.897  1.00  0.00    -0.168 NA
ENDBRANCH   1  18
TORSDOF 5
ENDMDL
MODEL 4
REMARK VINA RESULT:      -7.5     14.993     16.963
REMARK  5 active torsions:
REMARK  status: ('A' for Active; 'I' for Inactive)
REMARK    1  A    between atoms: C_9  and  C_10 
REMARK       I    between atoms: C_10  and  N_11 
REMARK    2  A    between atoms: N_11  and  C_12 
REMARK    3  A    between atoms: C_12  and  C_13 
REMARK    4  A    between atoms: C_16  and  O_17 
REMARK    5  A    between atoms: O_17  and  C_18 
ROOT
HETATM    1  C   UNL     1     -36.388  41.980 -53.242  1.00  0.00     0.273 C 
HETATM    2  N   UNL     1     -37.000  41.665 -54.434  1.00  0.00    -0.351 N 
HETATM    3  O   UNL     1     -35.672  42.966 -53.097  1.00  0.00    -0.266 OA
HETATM    4  H   UNL     1     -37.497  40.777 -54.452  1.00  0.00     0.163 HD
ENDROOT
BRANCH   2   5
HETATM    5  C   UNL     1     -36.731  42.402 -55.638  1.00  0.00     0.163 C 
BRANCH   5   6
HETATM    6  C   UNL     1     -37.084  41.608 -56.858  1.00  0.00    -0.023 A 
HETATM    7  C   UNL     1     -37.558  40.304 -56.753  1.00  0.00     0.128 A 
HETATM    8  N   UNL     1     -37.915  39.536 -57.808  1.00  0.00    -0.236 NA
HETATM    9  C   UNL     1     -37.798  40.094 -59.030  1.00  0.00     0.164 A 
HETATM   10  C   UNL     1     -37.343  41.385 -59.243  1.00  0.00     0.059 A 
HETATM   11  C   UNL     1     -36.991  42.155 -58.139  1.00  0.00     0.014 A 
BRANCH   9  12
HETATM   12  O   UNL     1     -38.127  39.371 -60.158  1.00  0.00    -0.329 OA
BRANCH  12  13
HETATM   13  C   UNL     1     -37.113  39.334 -61.155  1.00  0.00     0.130 C 
HETATM   14  C   UNL     1     -36.084  38.273 -60.769  1.00  0.00     0.032 C 
HETATM   15  C   UNL     1     -35.362  38.003 -62.076  1.00  0.00     0.002 C 
HETATM   16  C   UNL     1     -36.456  38.061 -63.136  1.00  0.00     0.002 C 
HETATM   17  C   UNL     1     -37.621  38.829 -62.508  1.00  0.00     0.032 C 
ENDBRANCH  12  13
ENDBRANCH   9  12
ENDBRANCH   5   6
ENDBRANCH   2   5
BRANCH   1  18
HETATM   18  C   UNL     1     -36.664  41.005 -52.174  1.00  0.00     0.157 A 
HETATM   19  C   UNL     1     -35.731  40.438 -51.257  1.00  0.00     0.029 A 
HETATM   20  C   UNL     1     -34.348  40.558 -51.010  1.00  0.00     0.023 A 
HETATM   21  C   UNL     1     -36.479  39.573 -50.468  1.00  0.00     0.063 A 
HETATM   22  C   UNL     1     -33.761  39.807 -49.977  1.00  0.00    -0.061 A 
HETATM   23  C   UNL     1     -32.290  39.915 -49.699  1.00  0.00     0.048 C 
HETATM   24  C   UNL     1     -34.553  38.944 -49.209  1.00  0.00     0.009 A 
HETATM   25  C   UNL     1     -35.927  38.809 -49.437  1.00  0.00     0.032 A 
HETATM   26  N   UNL     1     -37.759  39.672 -50.939  1.00  0.00    -0.277 N 
HETATM   27  H   UNL     1     -38.576  39.178 -50.598  1.00  0.00     0.189 HD
HETATM   28  N   UNL     1     -37.910  40.522 -51.969  1.00  0.00    -0.168 NA
ENDBRANCH   1  18
TORSDOF 5
ENDMDL
MODEL 5
REMARK VINA RESULT:      -7.5      2.295      3.495
REMARK  5 active torsions:
REMARK  status: ('A' for Active; 'I' for Inactive)
REMARK    1  A    between atoms: C_9  and  C_10 
REMARK       I    between atoms: C_10  and  N_11 
REMARK    2  A    between atoms: N_11  and  C_12 
REMARK    3  A    between atoms: C_12  and  C_13 
REMARK    4  A    between atoms: C_16  and  O_17 
REMARK    5  A    between atoms: O_17  and  C_18 
ROOT
HETATM    1  C   UNL     1     -40.851  58.704 -52.876  1.00  0.00     0.273 C 
HETATM    2  N   UNL     1     -42.001  59.123 -53.507  1.00  0.00    -0.351 N 
HETATM    3  O   UNL     1     -39.734  59.109 -53.183  1.00  0.00    -0.266 OA
HETATM    4  H   UNL     1     -42.856  58.651 -53.222  1.00  0.00     0.163 HD
ENDROOT
BRANCH   2   5
HETATM    5  C   UNL     1     -41.959  59.968 -54.669  1.00  0.00     0.163 C 
BRANCH   5   6
HETATM    6  C   UNL     1     -42.251  59.197 -55.919  1.00  0.00    -0.023 A 
HETATM    7  C   UNL     1     -42.836  57.936 -55.864  1.00  0.00     0.128 A 
HETATM    8  N   UNL     1     -43.146  57.192 -56.950  1.00  0.00    -0.236 NA
HETATM    9  C   UNL     1     -42.864  57.732 -58.154  1.00  0.00     0.164 A 
HETATM   10  C   UNL     1     -42.288  58.980 -58.319  1.00  0.00     0.059 A 
HETATM   11  C   UNL     1     -41.987  59.727 -57.184  1.00  0.00     0.014 A 
BRANCH   9  12
HETATM   12  O   UNL     1     -43.135  57.029 -59.310  1.00  0.00    -0.329 OA
BRANCH  12  13
HETATM   13  C   UNL     1     -44.401  56.378 -59.325  1.00  0.00     0.130 C 
HETATM   14  C   UNL     1     -45.498  57.440 -59.340  1.00  0.00     0.032 C 
HETATM   15  C   UNL     1     -46.714  56.670 -59.823  1.00  0.00     0.002 C 
HETATM   16  C   UNL     1     -46.167  55.718 -60.880  1.00  0.00     0.002 C 
HETATM   17  C   UNL     1     -44.663  55.609 -60.622  1.00  0.00     0.032 C 
ENDBRANCH  12  13
ENDBRANCH   9  12
ENDBRANCH   5   6
ENDBRANCH   2   5
BRANCH   1  18
HETATM   18  C   UNL     1     -41.100  57.713 -51.818  1.00  0.00     0.157 A 
HETATM   19  C   UNL     1     -41.238  56.301 -51.968  1.00  0.00     0.029 A 
HETATM   20  C   UNL     1     -41.191  55.384 -53.038  1.00  0.00     0.023 A 
HETATM   21  C   UNL     1     -41.474  55.821 -50.687  1.00  0.00     0.063 A 
HETATM   22  C   UNL     1     -41.381  54.015 -52.786  1.00  0.00    -0.061 A 
HETATM   23  C   UNL     1     -41.339  53.020 -53.910  1.00  0.00     0.048 C 
HETATM   24  C   UNL     1     -41.620  53.575 -51.477  1.00  0.00     0.009 A 
HETATM   25  C   UNL     1     -41.672  54.468 -50.400  1.00  0.00     0.032 A 
HETATM   26  N   UNL     1     -41.463  56.926 -49.881  1.00  0.00    -0.277 N 
HETATM   27  H   UNL     1     -41.603  56.953 -48.877  1.00  0.00     0.189 HD
HETATM   28  N   UNL     1     -41.244  58.085 -50.526  1.00  0.00    -0.168 NA
ENDBRANCH   1  18
TORSDOF 5
ENDMDL
MODEL 6
REMARK VINA RESULT:      -7.1     15.010     17.024
REMARK  5 active torsions:
REMARK  status: ('A' for Active; 'I' for Inactive)
REMARK    1  A    between atoms: C_9  and  C_10 
REMARK       I    between atoms: C_10  and  N_11 
REMARK    2  A    between atoms: N_11  and  C_12 
REMARK    3  A    between atoms: C_12  and  C_13 
REMARK    4  A    between atoms: C_16  and  O_17 
REMARK    5  A    between atoms: O_17  and  C_18 
ROOT
HETATM    1  C   UNL     1     -36.264  41.911 -54.578  1.00  0.00     0.273 C 
HETATM    2  N   UNL     1     -37.376  42.056 -55.377  1.00  0.00    -0.351 N 
HETATM    3  O   UNL     1     -35.137  42.240 -54.935  1.00  0.00    -0.266 OA
HETATM    4  H   UNL     1     -38.239  41.667 -55.003  1.00  0.00     0.163 HD
ENDROOT
BRANCH   2   5
HETATM    5  C   UNL     1     -37.272  42.481 -56.745  1.00  0.00     0.163 C 
BRANCH   5   6
HETATM    6  C   UNL     1     -37.490  41.341 -57.692  1.00  0.00    -0.023 A 
HETATM    7  C   UNL     1     -38.034  40.138 -57.253  1.00  0.00     0.128 A 
HETATM    8  N   UNL     1     -38.278  39.076 -58.053  1.00  0.00    -0.236 NA
HETATM    9  C   UNL     1     -37.967  39.216 -59.358  1.00  0.00     0.164 A 
HETATM   10  C   UNL     1     -37.426  40.372 -59.897  1.00  0.00     0.059 A 
HETATM   11  C   UNL     1     -37.194  41.452 -59.052  1.00  0.00     0.014 A 
BRANCH   9  12
HETATM   12  O   UNL     1     -38.170  38.172 -60.237  1.00  0.00    -0.329 OA
BRANCH  12  13
HETATM   13  C   UNL     1     -39.144  38.425 -61.243  1.00  0.00     0.130 C 
HETATM   14  C   UNL     1     -38.867  37.509 -62.434  1.00  0.00     0.032 C 
HETATM   15  C   UNL     1     -40.182  37.524 -63.191  1.00  0.00     0.002 C 
HETATM   16  C   UNL     1     -41.249  37.527 -62.102  1.00  0.00     0.002 C 
HETATM   17  C   UNL     1     -40.557  38.010 -60.826  1.00  0.00     0.032 C 
ENDBRANCH  12  13
ENDBRANCH   9  12
ENDBRANCH   5   6
ENDBRANCH   2   5
BRANCH   1  18
HETATM   18  C   UNL     1     -36.565  41.306 -53.271  1.00  0.00     0.157 A 
HETATM   19  C   UNL     1     -35.632  40.839 -52.298  1.00  0.00     0.029 A 
HETATM   20  C   UNL     1     -34.229  40.775 -52.184  1.00  0.00     0.023 A 
HETATM   21  C   UNL     1     -36.411  40.348 -51.257  1.00  0.00     0.063 A 
HETATM   22  C   UNL     1     -33.652  40.222 -51.028  1.00  0.00    -0.061 A 
HETATM   23  C   UNL     1     -32.159  40.140 -50.887  1.00  0.00     0.048 C 
HETATM   24  C   UNL     1     -34.475  39.736 -50.004  1.00  0.00     0.009 A 
HETATM   25  C   UNL     1     -35.871  39.789 -50.096  1.00  0.00     0.032 A 
HETATM   26  N   UNL     1     -37.705  40.544 -51.652  1.00  0.00    -0.277 N 
HETATM   27  H   UNL     1     -38.545  40.305 -51.137  1.00  0.00     0.189 HD
HETATM   28  N   UNL     1     -37.839  41.116 -52.861  1.00  0.00    -0.168 NA
ENDBRANCH   1  18
TORSDOF 5
ENDMDL
MODEL 7
REMARK VINA RESULT:      -7.0     15.304     17.367
REMARK  5 active torsions:
REMARK  status: ('A' for Active; 'I' for Inactive)
REMARK    1  A    between atoms: C_9  and  C_10 
REMARK       I    between atoms: C_10  and  N_11 
REMARK    2  A    between atoms: N_11  and  C_12 
REMARK    3  A    between atoms: C_12  and  C_13 
REMARK    4  A    between atoms: C_16  and  O_17 
REMARK    5  A    between atoms: O_17  and  C_18 
ROOT
HETATM    1  C   UNL     1     -36.004  41.518 -53.624  1.00  0.00     0.273 C 
HETATM    2  N   UNL     1     -36.765  40.932 -54.610  1.00  0.00    -0.351 N 
HETATM    3  O   UNL     1     -36.169  42.674 -53.250  1.00  0.00    -0.266 OA
HETATM    4  H   UNL     1     -36.476  39.998 -54.893  1.00  0.00     0.163 HD
ENDROOT
BRANCH   2   5
HETATM    5  C   UNL     1     -37.725  41.685 -55.370  1.00  0.00     0.163 C 
BRANCH   5   6
HETATM    6  C   UNL     1     -37.651  41.355 -56.829  1.00  0.00    -0.023 A 
HETATM    7  C   UNL     1     -38.290  40.231 -57.344  1.00  0.00     0.128 A 
HETATM    8  N   UNL     1     -38.284  39.883 -58.651  1.00  0.00    -0.236 NA
HETATM    9  C   UNL     1     -37.609  40.695 -59.490  1.00  0.00     0.164 A 
HETATM   10  C   UNL     1     -36.944  41.839 -59.081  1.00  0.00     0.059 A 
HETATM   11  C   UNL     1     -36.975  42.178 -57.732  1.00  0.00     0.014 A 
BRANCH   9  12
HETATM   12  O   UNL     1     -37.541  40.400 -60.836  1.00  0.00    -0.329 OA
BRANCH  12  13
HETATM   13  C   UNL     1     -37.244  39.040 -61.131  1.00  0.00     0.130 C 
HETATM   14  C   UNL     1     -37.357  38.829 -62.640  1.00  0.00     0.032 C 
HETATM   15  C   UNL     1     -36.585  37.542 -62.866  1.00  0.00     0.002 C 
HETATM   16  C   UNL     1     -35.401  37.635 -61.910  1.00  0.00     0.002 C 
HETATM   17  C   UNL     1     -35.784  38.672 -60.852  1.00  0.00     0.032 C 
ENDBRANCH  12  13
ENDBRANCH   9  12
ENDBRANCH   5   6
ENDBRANCH   2   5
BRANCH   1  18
HETATM   18  C   UNL     1     -34.966  40.623 -53.086  1.00  0.00     0.157 A 
HETATM   19  C   UNL     1     -33.777  40.184 -53.740  1.00  0.00     0.029 A 
HETATM   20  C   UNL     1     -33.170  40.396 -54.995  1.00  0.00     0.023 A 
HETATM   21  C   UNL     1     -33.148  39.351 -52.824  1.00  0.00     0.063 A 
HETATM   22  C   UNL     1     -31.949  39.765 -55.288  1.00  0.00    -0.061 A 
HETATM   23  C   UNL     1     -31.286  39.973 -56.620  1.00  0.00     0.048 C 
HETATM   24  C   UNL     1     -31.351  38.930 -54.336  1.00  0.00     0.009 A 
HETATM   25  C   UNL     1     -31.936  38.705 -53.085  1.00  0.00     0.032 A 
HETATM   26  N   UNL     1     -33.961  39.343 -51.725  1.00  0.00    -0.277 N 
HETATM   27  H   UNL     1     -33.814  38.839 -50.858  1.00  0.00     0.189 HD
HETATM   28  N   UNL     1     -35.069  40.096 -51.846  1.00  0.00    -0.168 NA
ENDBRANCH   1  18
TORSDOF 5
ENDMDL
MODEL 8
REMARK VINA RESULT:      -7.0     15.213     18.872
REMARK  5 active torsions:
REMARK  status: ('A' for Active; 'I' for Inactive)
REMARK    1  A    between atoms: C_9  and  C_10 
REMARK       I    between atoms: C_10  and  N_11 
REMARK    2  A    between atoms: N_11  and  C_12 
REMARK    3  A    between atoms: C_12  and  C_13 
REMARK    4  A    between atoms: C_16  and  O_17 
REMARK    5  A    between atoms: O_17  and  C_18 
ROOT
HETATM    1  C   UNL     1     -37.130  40.804 -55.041  1.00  0.00     0.273 C 
HETATM    2  N   UNL     1     -35.904  41.378 -54.788  1.00  0.00    -0.351 N 
HETATM    3  O   UNL     1     -38.110  40.976 -54.323  1.00  0.00    -0.266 OA
HETATM    4  H   UNL     1     -35.148  41.091 -55.406  1.00  0.00     0.163 HD
ENDROOT
BRANCH   2   5
HETATM    5  C   UNL     1     -35.651  42.116 -53.581  1.00  0.00     0.163 C 
BRANCH   5   6
HETATM    6  C   UNL     1     -34.703  41.385 -52.681  1.00  0.00    -0.023 A 
HETATM    7  C   UNL     1     -33.831  40.425 -53.184  1.00  0.00     0.128 A 
HETATM    8  N   UNL     1     -32.935  39.742 -52.435  1.00  0.00    -0.236 NA
HETATM    9  C   UNL     1     -32.902  40.031 -51.118  1.00  0.00     0.164 A 
HETATM   10  C   UNL     1     -33.723  40.972 -50.518  1.00  0.00     0.059 A 
HETATM   11  C   UNL     1     -34.629  41.665 -51.315  1.00  0.00     0.014 A 
BRANCH   9  12
HETATM   12  O   UNL     1     -32.028  39.366 -50.283  1.00  0.00    -0.329 OA
BRANCH  12  13
HETATM   13  C   UNL     1     -32.397  39.376 -48.909  1.00  0.00     0.130 C 
HETATM   14  C   UNL     1     -32.733  37.948 -48.482  1.00  0.00     0.032 C 
HETATM   15  C   UNL     1     -32.640  38.012 -46.968  1.00  0.00     0.002 C 
HETATM   16  C   UNL     1     -31.455  38.931 -46.698  1.00  0.00     0.002 C 
HETATM   17  C   UNL     1     -31.235  39.736 -47.980  1.00  0.00     0.032 C 
ENDBRANCH  12  13
ENDBRANCH   9  12
ENDBRANCH   5   6
ENDBRANCH   2   5
BRANCH   1  18
HETATM   18  C   UNL     1     -37.134  39.953 -56.241  1.00  0.00     0.157 A 
HETATM   19  C   UNL     1     -37.199  40.376 -57.602  1.00  0.00     0.029 A 
HETATM   20  C   UNL     1     -37.266  41.610 -58.280  1.00  0.00     0.023 A 
HETATM   21  C   UNL     1     -37.189  39.203 -58.346  1.00  0.00     0.063 A 
HETATM   22  C   UNL     1     -37.319  41.626 -59.685  1.00  0.00    -0.061 A 
HETATM   23  C   UNL     1     -37.394  42.929 -60.428  1.00  0.00     0.048 C 
HETATM   24  C   UNL     1     -37.310  40.419 -60.395  1.00  0.00     0.009 A 
HETATM   25  C   UNL     1     -37.245  39.183 -59.742  1.00  0.00     0.032 A 
HETATM   26  N   UNL     1     -37.121  38.194 -57.427  1.00  0.00    -0.277 N 
HETATM   27  H   UNL     1     -37.095  37.197 -57.612  1.00  0.00     0.189 HD
HETATM   28  N   UNL     1     -37.089  38.606 -56.147  1.00  0.00    -0.168 NA
ENDBRANCH   1  18
TORSDOF 5
ENDMDL
MODEL 9
REMARK VINA RESULT:      -6.8     15.450     17.223
REMARK  5 active torsions:
REMARK  status: ('A' for Active; 'I' for Inactive)
REMARK    1  A    between atoms: C_9  and  C_10 
REMARK       I    between atoms: C_10  and  N_11 
REMARK    2  A    between atoms: N_11  and  C_12 
REMARK    3  A    between atoms: C_12  and  C_13 
REMARK    4  A    between atoms: C_16  and  O_17 
REMARK    5  A    between atoms: O_17  and  C_18 
ROOT
HETATM    1  C   UNL     1     -35.341  41.704 -53.185  1.00  0.00     0.273 C 
HETATM    2  N   UNL     1     -34.756  41.707 -54.432  1.00  0.00    -0.351 N 
HETATM    3  O   UNL     1     -36.369  42.323 -52.927  1.00  0.00    -0.266 OA
HETATM    4  H   UNL     1     -33.861  41.228 -54.499  1.00  0.00     0.163 HD
ENDROOT
BRANCH   2   5
HETATM    5  C   UNL     1     -35.238  42.553 -55.489  1.00  0.00     0.163 C 
BRANCH   5   6
HETATM    6  C   UNL     1     -35.630  41.755 -56.694  1.00  0.00    -0.023 A 
HETATM    7  C   UNL     1     -35.139  40.468 -56.894  1.00  0.00     0.128 A 
HETATM    8  N   UNL     1     -35.465  39.683 -57.945  1.00  0.00    -0.236 NA
HETATM    9  C   UNL     1     -36.326  40.202 -58.845  1.00  0.00     0.164 A 
HETATM   10  C   UNL     1     -36.876  41.469 -58.737  1.00  0.00     0.059 A 
HETATM   11  C   UNL     1     -36.529  42.252 -57.640  1.00  0.00     0.014 A 
BRANCH   9  12
HETATM   12  O   UNL     1     -36.696  39.471 -59.954  1.00  0.00    -0.329 OA
BRANCH  12  13
HETATM   13  C   UNL     1     -38.094  39.229 -60.066  1.00  0.00     0.130 C 
HETATM   14  C   UNL     1     -38.375  38.597 -61.428  1.00  0.00     0.032 C 
HETATM   15  C   UNL     1     -39.746  37.974 -61.241  1.00  0.00     0.002 C 
HETATM   16  C   UNL     1     -39.724  37.424 -59.819  1.00  0.00     0.002 C 
HETATM   17  C   UNL     1     -38.596  38.158 -59.093  1.00  0.00     0.032 C 
ENDBRANCH  12  13
ENDBRANCH   9  12
ENDBRANCH   5   6
ENDBRANCH   2   5
BRANCH   1  18
HETATM   18  C   UNL     1     -34.599  40.903 -52.199  1.00  0.00     0.157 A 
HETATM   19  C   UNL     1     -35.134  40.171 -51.098  1.00  0.00     0.029 A 
HETATM   20  C   UNL     1     -36.418  39.930 -50.567  1.00  0.00     0.023 A 
HETATM   21  C   UNL     1     -34.033  39.604 -50.470  1.00  0.00     0.063 A 
HETATM   22  C   UNL     1     -36.553  39.126 -49.423  1.00  0.00    -0.061 A 
HETATM   23  C   UNL     1     -37.910  38.858 -48.837  1.00  0.00     0.048 C 
HETATM   24  C   UNL     1     -35.415  38.576 -48.819  1.00  0.00     0.009 A 
HETATM   25  C   UNL     1     -34.131  38.803 -49.330  1.00  0.00     0.032 A 
HETATM   26  N   UNL     1     -32.952  40.011 -51.202  1.00  0.00    -0.277 N 
HETATM   27  H   UNL     1     -31.978  39.785 -51.033  1.00  0.00     0.189 HD
HETATM   28  N   UNL     1     -33.252  40.798 -52.250  1.00  0.00    -0.168 NA
ENDBRANCH   1  18
TORSDOF 5
ENDMDL
MODEL 10
REMARK VINA RESULT:      -6.6      4.996      8.633
REMARK  5 active torsions:
REMARK  status: ('A' for Active; 'I' for Inactive)
REMARK    1  A    between atoms: C_9  and  C_10 
REMARK       I    between atoms: C_10  and  N_11 
REMARK    2  A    between atoms: N_11  and  C_12 
REMARK    3  A    between atoms: C_12  and  C_13 
REMARK    4  A    between atoms: C_16  and  O_17 
REMARK    5  A    between atoms: O_17  and  C_18 
ROOT
HETATM    1  C   UNL     1     -43.478  62.143 -50.176  1.00  0.00     0.273 C 
HETATM    2  N   UNL     1     -43.247  60.804 -50.398  1.00  0.00    -0.351 N 
HETATM    3  O   UNL     1     -42.598  62.996 -50.256  1.00  0.00    -0.266 OA
HETATM    4  H   UNL     1     -44.036  60.187 -50.217  1.00  0.00     0.163 HD
ENDROOT
BRANCH   2   5
HETATM    5  C   UNL     1     -41.921  60.291 -50.607  1.00  0.00     0.163 C 
BRANCH   5   6
HETATM    6  C   UNL     1     -41.947  58.843 -50.986  1.00  0.00    -0.023 A 
HETATM    7  C   UNL     1     -42.928  58.341 -51.836  1.00  0.00     0.128 A 
HETATM    8  N   UNL     1     -43.000  57.051 -52.237  1.00  0.00    -0.236 NA
HETATM    9  C   UNL     1     -42.048  56.217 -51.771  1.00  0.00     0.164 A 
HETATM   10  C   UNL     1     -41.026  56.617 -50.926  1.00  0.00     0.059 A 
HETATM   11  C   UNL     1     -40.970  57.952 -50.537  1.00  0.00     0.014 A 
BRANCH   9  12
HETATM   12  O   UNL     1     -42.062  54.883 -52.121  1.00  0.00    -0.329 OA
BRANCH  12  13
HETATM   13  C   UNL     1     -40.917  54.448 -52.847  1.00  0.00     0.130 C 
HETATM   14  C   UNL     1     -41.133  52.999 -53.278  1.00  0.00     0.032 C 
HETATM   15  C   UNL     1     -40.122  52.819 -54.396  1.00  0.00     0.002 C 
HETATM   16  C   UNL     1     -40.143  54.146 -55.146  1.00  0.00     0.002 C 
HETATM   17  C   UNL     1     -40.748  55.172 -54.186  1.00  0.00     0.032 C 
ENDBRANCH  12  13
ENDBRANCH   9  12
ENDBRANCH   5   6
ENDBRANCH   2   5
BRANCH   1  18
HETATM   18  C   UNL     1     -44.874  62.439 -49.817  1.00  0.00     0.157 A 
HETATM   19  C   UNL     1     -45.391  62.729 -48.519  1.00  0.00     0.029 A 
HETATM   20  C   UNL     1     -44.862  62.850 -47.218  1.00  0.00     0.023 A 
HETATM   21  C   UNL     1     -46.754  62.919 -48.707  1.00  0.00     0.063 A 
HETATM   22  C   UNL     1     -45.719  63.158 -46.148  1.00  0.00    -0.061 A 
HETATM   23  C   UNL     1     -45.178  63.288 -44.753  1.00  0.00     0.048 C 
HETATM   24  C   UNL     1     -47.088  63.338 -46.383  1.00  0.00     0.009 A 
HETATM   25  C   UNL     1     -47.635  63.223 -47.666  1.00  0.00     0.032 A 
HETATM   26  N   UNL     1     -46.961  62.740 -50.047  1.00  0.00    -0.277 N 
HETATM   27  H   UNL     1     -47.843  62.804 -50.544  1.00  0.00     0.189 HD
HETATM   28  N   UNL     1     -45.852  62.446 -50.749  1.00  0.00    -0.168 NA
ENDBRANCH   1  18
TORSDOF 5
ENDMDL
