MODEL 1
REMARK VINA RESULT:      -8.7      0.000      0.000
REMARK  2 active torsions:
REMARK  status: ('A' for Active; 'I' for Inactive)
REMARK    1  A    between atoms: C_5  and  C_6 
REMARK    2  A    between atoms: C_17  and  O_18 
ROOT
HETATM    1  C   UNL     1     -42.860  54.993 -52.822  1.00  0.00     0.200 C 
HETATM    2  N   UNL     1     -44.003  55.611 -52.211  1.00  0.00    -0.336 N 
HETATM    3  C   UNL     1     -43.961  56.837 -51.603  1.00  0.00     0.255 C 
HETATM    4  O   UNL     1     -44.845  57.206 -50.835  1.00  0.00    -0.268 OA
HETATM    5  C   UNL     1     -42.804  57.691 -51.918  1.00  0.00     0.053 A 
HETATM    6  C   UNL     1     -41.899  57.226 -52.874  1.00  0.00     0.026 A 
HETATM    7  N   UNL     1     -42.114  56.018 -53.554  1.00  0.00    -0.267 NA
HETATM    8  C   UNL     1     -42.631  58.929 -51.290  1.00  0.00     0.019 A 
HETATM    9  C   UNL     1     -41.551  59.734 -51.645  1.00  0.00     0.001 A 
HETATM   10  C   UNL     1     -40.664  59.307 -52.632  1.00  0.00     0.002 A 
HETATM   11  C   UNL     1     -40.847  58.068 -53.254  1.00  0.00     0.024 A 
HETATM   12  H   UNL     1     -44.685  54.996 -51.794  1.00  0.00     0.164 HD
HETATM   13  H   UNL     1     -41.241  55.669 -53.932  1.00  0.00     0.130 HD
ENDROOT
BRANCH   1  14
HETATM   14  C   UNL     1     -41.940  54.135 -51.945  1.00  0.00     0.023 A 
HETATM   15  C   UNL     1     -41.115  53.123 -52.559  1.00  0.00    -0.014 A 
HETATM   16  C   UNL     1     -40.155  52.435 -51.770  1.00  0.00    -0.025 A 
HETATM   17  C   UNL     1     -41.190  52.737 -53.926  1.00  0.00     0.013 A 
HETATM   18  C   UNL     1     -39.295  51.485 -52.347  1.00  0.00     0.012 A 
HETATM   19  C   UNL     1     -40.060  52.689 -50.400  1.00  0.00     0.015 A 
HETATM   20  C   UNL     1     -39.377  51.168 -53.699  1.00  0.00     0.001 A 
HETATM   21  C   UNL     1     -40.334  51.786 -54.487  1.00  0.00     0.001 A 
HETATM   22  C   UNL     1     -40.917  53.594 -49.786  1.00  0.00     0.038 A 
HETATM   23  C   UNL     1     -41.847  54.297 -50.548  1.00  0.00     0.076 A 
BRANCH  23  24
HETATM   24  O   UNL     1     -42.705  55.125 -49.884  1.00  0.00    -0.360 OA
HETATM   25  H   UNL     1     -42.224  55.877 -49.501  1.00  0.00     0.217 HD
ENDBRANCH  23  24
ENDBRANCH   1  14
TORSDOF 2
ENDMDL
MODEL 2
REMARK VINA RESULT:      -8.3      1.587      2.983
REMARK  2 active torsions:
REMARK  status: ('A' for Active; 'I' for Inactive)
REMARK    1  A    between atoms: C_5  and  C_6 
REMARK    2  A    between atoms: C_17  and  O_18 
ROOT
HETATM    1  C   UNL     1     -43.437  54.938 -51.463  1.00  0.00     0.200 C 
HETATM    2  N   UNL     1     -42.567  54.883 -50.323  1.00  0.00    -0.336 N 
HETATM    3  C   UNL     1     -41.685  55.879 -49.999  1.00  0.00     0.255 C 
HETATM    4  O   UNL     1     -40.755  55.689 -49.221  1.00  0.00    -0.268 OA
HETATM    5  C   UNL     1     -41.911  57.190 -50.629  1.00  0.00     0.053 A 
HETATM    6  C   UNL     1     -43.047  57.338 -51.425  1.00  0.00     0.026 A 
HETATM    7  N   UNL     1     -43.974  56.295 -51.572  1.00  0.00    -0.267 NA
HETATM    8  C   UNL     1     -41.022  58.250 -50.422  1.00  0.00     0.019 A 
HETATM    9  C   UNL     1     -41.288  59.492 -50.995  1.00  0.00     0.001 A 
HETATM   10  C   UNL     1     -42.444  59.671 -51.753  1.00  0.00     0.002 A 
HETATM   11  C   UNL     1     -43.327  58.604 -51.952  1.00  0.00     0.024 A 
HETATM   12  H   UNL     1     -42.240  53.971 -50.043  1.00  0.00     0.164 HD
HETATM   13  H   UNL     1     -44.523  56.431 -52.413  1.00  0.00     0.130 HD
ENDROOT
BRANCH   1  14
HETATM   14  C   UNL     1     -42.908  54.425 -52.808  1.00  0.00     0.023 A 
HETATM   15  C   UNL     1     -41.755  53.558 -52.833  1.00  0.00    -0.014 A 
HETATM   16  C   UNL     1     -41.360  52.961 -54.061  1.00  0.00    -0.025 A 
HETATM   17  C   UNL     1     -40.952  53.246 -51.702  1.00  0.00     0.013 A 
HETATM   18  C   UNL     1     -40.277  52.067 -54.111  1.00  0.00     0.012 A 
HETATM   19  C   UNL     1     -42.040  53.269 -55.242  1.00  0.00     0.015 A 
HETATM   20  C   UNL     1     -39.544  51.759 -52.970  1.00  0.00     0.001 A 
HETATM   21  C   UNL     1     -39.874  52.359 -51.766  1.00  0.00     0.001 A 
HETATM   22  C   UNL     1     -43.090  54.177 -55.238  1.00  0.00     0.038 A 
HETATM   23  C   UNL     1     -43.509  54.750 -54.040  1.00  0.00     0.076 A 
BRANCH  23  24
HETATM   24  O   UNL     1     -44.503  55.683 -54.105  1.00  0.00    -0.360 OA
HETATM   25  H   UNL     1     -44.758  55.846 -55.028  1.00  0.00     0.217 HD
ENDBRANCH  23  24
ENDBRANCH   1  14
TORSDOF 2
ENDMDL
MODEL 3
REMARK VINA RESULT:      -8.0      2.005      3.211
REMARK  2 active torsions:
REMARK  status: ('A' for Active; 'I' for Inactive)
REMARK    1  A    between atoms: C_5  and  C_6 
REMARK    2  A    between atoms: C_17  and  O_18 
ROOT
HETATM    1  C   UNL     1     -41.031  55.047 -50.865  1.00  0.00     0.200 C 
HETATM    2  N   UNL     1     -40.362  56.252 -50.462  1.00  0.00    -0.336 N 
HETATM    3  C   UNL     1     -40.871  57.505 -50.679  1.00  0.00     0.255 C 
HETATM    4  O   UNL     1     -40.167  58.508 -50.610  1.00  0.00    -0.268 OA
HETATM    5  C   UNL     1     -42.305  57.588 -50.998  1.00  0.00     0.053 A 
HETATM    6  C   UNL     1     -43.046  56.405 -50.962  1.00  0.00     0.026 A 
HETATM    7  N   UNL     1     -42.459  55.190 -50.578  1.00  0.00    -0.267 NA
HETATM    8  C   UNL     1     -42.903  58.814 -51.311  1.00  0.00     0.019 A 
HETATM    9  C   UNL     1     -44.272  58.866 -51.562  1.00  0.00     0.001 A 
HETATM   10  C   UNL     1     -45.036  57.702 -51.482  1.00  0.00     0.002 A 
HETATM   11  C   UNL     1     -44.428  56.482 -51.168  1.00  0.00     0.024 A 
HETATM   12  H   UNL     1     -39.354  56.238 -50.469  1.00  0.00     0.164 HD
HETATM   13  H   UNL     1     -43.006  54.412 -50.925  1.00  0.00     0.130 HD
ENDROOT
BRANCH   1  14
HETATM   14  C   UNL     1     -40.785  54.518 -52.284  1.00  0.00     0.023 A 
HETATM   15  C   UNL     1     -40.364  53.150 -52.467  1.00  0.00    -0.014 A 
HETATM   16  C   UNL     1     -40.285  52.618 -53.783  1.00  0.00    -0.025 A 
HETATM   17  C   UNL     1     -40.003  52.266 -51.414  1.00  0.00     0.013 A 
HETATM   18  C   UNL     1     -39.935  51.273 -53.996  1.00  0.00     0.012 A 
HETATM   19  C   UNL     1     -40.544  53.433 -54.887  1.00  0.00     0.015 A 
HETATM   20  C   UNL     1     -39.629  50.432 -52.931  1.00  0.00     0.001 A 
HETATM   21  C   UNL     1     -39.652  50.932 -51.639  1.00  0.00     0.001 A 
HETATM   22  C   UNL     1     -40.857  54.776 -54.718  1.00  0.00     0.038 A 
HETATM   23  C   UNL     1     -40.966  55.308 -53.436  1.00  0.00     0.076 A 
BRANCH  23  24
HETATM   24  O   UNL     1     -41.212  56.646 -53.331  1.00  0.00    -0.360 OA
HETATM   25  H   UNL     1     -40.590  57.059 -52.710  1.00  0.00     0.217 HD
ENDBRANCH  23  24
ENDBRANCH   1  14
TORSDOF 2
ENDMDL
MODEL 4
REMARK VINA RESULT:      -7.7      1.786      2.087
REMARK  2 active torsions:
REMARK  status: ('A' for Active; 'I' for Inactive)
REMARK    1  A    between atoms: C_5  and  C_6 
REMARK    2  A    between atoms: C_17  and  O_18 
ROOT
HETATM    1  C   UNL     1     -42.634  55.341 -54.574  1.00  0.00     0.200 C 
HETATM    2  N   UNL     1     -43.967  55.737 -54.933  1.00  0.00    -0.336 N 
HETATM    3  C   UNL     1     -44.494  56.965 -54.633  1.00  0.00     0.255 C 
HETATM    4  O   UNL     1     -45.703  57.174 -54.671  1.00  0.00    -0.268 OA
HETATM    5  C   UNL     1     -43.538  58.021 -54.265  1.00  0.00     0.053 A 
HETATM    6  C   UNL     1     -42.177  57.718 -54.341  1.00  0.00     0.026 A 
HETATM    7  N   UNL     1     -41.735  56.471 -54.808  1.00  0.00    -0.267 NA
HETATM    8  C   UNL     1     -43.981  59.288 -53.868  1.00  0.00     0.019 A 
HETATM    9  C   UNL     1     -43.050  60.280 -53.571  1.00  0.00     0.001 A 
HETATM   10  C   UNL     1     -41.688  60.009 -53.689  1.00  0.00     0.002 A 
HETATM   11  C   UNL     1     -41.255  58.740 -54.087  1.00  0.00     0.024 A 
HETATM   12  H   UNL     1     -44.667  55.012 -54.958  1.00  0.00     0.164 HD
HETATM   13  H   UNL     1     -40.791  56.292 -54.485  1.00  0.00     0.130 HD
ENDROOT
BRANCH   1  14
HETATM   14  C   UNL     1     -42.409  54.709 -53.194  1.00  0.00     0.023 A 
HETATM   15  C   UNL     1     -41.420  53.670 -53.043  1.00  0.00    -0.014 A 
HETATM   16  C   UNL     1     -41.106  53.194 -51.741  1.00  0.00    -0.025 A 
HETATM   17  C   UNL     1     -40.719  53.057 -54.117  1.00  0.00     0.013 A 
HETATM   18  C   UNL     1     -40.107  52.224 -51.551  1.00  0.00     0.012 A 
HETATM   19  C   UNL     1     -41.799  53.680 -50.630  1.00  0.00     0.015 A 
HETATM   20  C   UNL     1     -39.416  51.681 -52.629  1.00  0.00     0.001 A 
HETATM   21  C   UNL     1     -39.731  52.089 -53.915  1.00  0.00     0.001 A 
HETATM   22  C   UNL     1     -42.818  54.611 -50.781  1.00  0.00     0.038 A 
HETATM   23  C   UNL     1     -43.121  55.109 -52.046  1.00  0.00     0.076 A 
BRANCH  23  24
HETATM   24  O   UNL     1     -44.173  55.973 -52.144  1.00  0.00    -0.360 OA
HETATM   25  H   UNL     1     -44.950  55.617 -51.683  1.00  0.00     0.217 HD
ENDBRANCH  23  24
ENDBRANCH   1  14
TORSDOF 2
ENDMDL
MODEL 5
REMARK VINA RESULT:      -7.7      1.866      5.541
REMARK  2 active torsions:
REMARK  status: ('A' for Active; 'I' for Inactive)
REMARK    1  A    between atoms: C_5  and  C_6 
REMARK    2  A    between atoms: C_17  and  O_18 
ROOT
HETATM    1  C   UNL     1     -43.166  55.473 -51.968  1.00  0.00     0.200 C 
HETATM    2  N   UNL     1     -43.590  55.025 -53.265  1.00  0.00    -0.336 N 
HETATM    3  C   UNL     1     -42.831  54.216 -54.067  1.00  0.00     0.255 C 
HETATM    4  O   UNL     1     -43.065  54.096 -55.267  1.00  0.00    -0.268 OA
HETATM    5  C   UNL     1     -41.723  53.497 -53.420  1.00  0.00     0.053 A 
HETATM    6  C   UNL     1     -41.592  53.621 -52.036  1.00  0.00     0.026 A 
HETATM    7  N   UNL     1     -42.518  54.356 -51.280  1.00  0.00    -0.267 NA
HETATM    8  C   UNL     1     -40.844  52.705 -54.167  1.00  0.00     0.019 A 
HETATM    9  C   UNL     1     -39.833  52.000 -53.519  1.00  0.00     0.001 A 
HETATM   10  C   UNL     1     -39.718  52.074 -52.132  1.00  0.00     0.002 A 
HETATM   11  C   UNL     1     -40.603  52.867 -51.394  1.00  0.00     0.024 A 
HETATM   12  H   UNL     1     -44.180  55.650 -53.792  1.00  0.00     0.164 HD
HETATM   13  H   UNL     1     -42.108  54.629 -50.395  1.00  0.00     0.130 HD
ENDROOT
BRANCH   1  14
HETATM   14  C   UNL     1     -42.334  56.759 -51.879  1.00  0.00     0.023 A 
HETATM   15  C   UNL     1     -42.264  57.640 -53.019  1.00  0.00    -0.014 A 
HETATM   16  C   UNL     1     -41.621  58.900 -52.885  1.00  0.00    -0.025 A 
HETATM   17  C   UNL     1     -42.791  57.342 -54.305  1.00  0.00     0.013 A 
HETATM   18  C   UNL     1     -41.585  59.807 -53.958  1.00  0.00     0.012 A 
HETATM   19  C   UNL     1     -41.004  59.250 -51.682  1.00  0.00     0.015 A 
HETATM   20  C   UNL     1     -42.151  59.490 -55.189  1.00  0.00     0.001 A 
HETATM   21  C   UNL     1     -42.744  58.251 -55.366  1.00  0.00     0.001 A 
HETATM   22  C   UNL     1     -40.987  58.365 -50.612  1.00  0.00     0.038 A 
HETATM   23  C   UNL     1     -41.635  57.136 -50.715  1.00  0.00     0.076 A 
BRANCH  23  24
HETATM   24  O   UNL     1     -41.531  56.281 -49.656  1.00  0.00    -0.360 OA
HETATM   25  H   UNL     1     -41.677  56.755 -48.821  1.00  0.00     0.217 HD
ENDBRANCH  23  24
ENDBRANCH   1  14
TORSDOF 2
ENDMDL
MODEL 6
REMARK VINA RESULT:      -7.6      1.576      2.040
REMARK  2 active torsions:
REMARK  status: ('A' for Active; 'I' for Inactive)
REMARK    1  A    between atoms: C_5  and  C_6 
REMARK    2  A    between atoms: C_17  and  O_18 
ROOT
HETATM    1  C   UNL     1     -43.162  56.016 -51.230  1.00  0.00     0.200 C 
HETATM    2  N   UNL     1     -43.116  57.313 -50.617  1.00  0.00    -0.336 N 
HETATM    3  C   UNL     1     -42.600  58.420 -51.235  1.00  0.00     0.255 C 
HETATM    4  O   UNL     1     -42.293  59.427 -50.603  1.00  0.00    -0.268 OA
HETATM    5  C   UNL     1     -42.433  58.343 -52.695  1.00  0.00     0.053 A 
HETATM    6  C   UNL     1     -42.897  57.195 -53.340  1.00  0.00     0.026 A 
HETATM    7  N   UNL     1     -43.552  56.177 -52.631  1.00  0.00    -0.267 NA
HETATM    8  C   UNL     1     -41.843  59.393 -53.409  1.00  0.00     0.019 A 
HETATM    9  C   UNL     1     -41.742  59.309 -54.796  1.00  0.00     0.001 A 
HETATM   10  C   UNL     1     -42.244  58.191 -55.460  1.00  0.00     0.002 A 
HETATM   11  C   UNL     1     -42.833  57.149 -54.737  1.00  0.00     0.024 A 
HETATM   12  H   UNL     1     -43.001  57.340 -49.616  1.00  0.00     0.164 HD
HETATM   13  H   UNL     1     -43.511  55.308 -53.150  1.00  0.00     0.130 HD
ENDROOT
BRANCH   1  14
HETATM   14  C   UNL     1     -41.943  55.096 -51.080  1.00  0.00     0.023 A 
HETATM   15  C   UNL     1     -41.622  54.166 -52.135  1.00  0.00    -0.014 A 
HETATM   16  C   UNL     1     -40.411  53.426 -52.064  1.00  0.00    -0.025 A 
HETATM   17  C   UNL     1     -42.442  53.912 -53.268  1.00  0.00     0.013 A 
HETATM   18  C   UNL     1     -40.038  52.554 -53.102  1.00  0.00     0.012 A 
HETATM   19  C   UNL     1     -39.577  53.549 -50.950  1.00  0.00     0.015 A 
HETATM   20  C   UNL     1     -40.853  52.368 -54.213  1.00  0.00     0.001 A 
HETATM   21  C   UNL     1     -42.063  53.038 -54.291  1.00  0.00     0.001 A 
HETATM   22  C   UNL     1     -39.929  54.372 -49.889  1.00  0.00     0.038 A 
HETATM   23  C   UNL     1     -41.099  55.125 -49.952  1.00  0.00     0.076 A 
BRANCH  23  24
HETATM   24  O   UNL     1     -41.428  55.867 -48.855  1.00  0.00    -0.360 OA
HETATM   25  H   UNL     1     -42.128  56.504 -49.072  1.00  0.00     0.217 HD
ENDBRANCH  23  24
ENDBRANCH   1  14
TORSDOF 2
ENDMDL
MODEL 7
REMARK VINA RESULT:      -7.6      2.238      5.878
REMARK  2 active torsions:
REMARK  status: ('A' for Active; 'I' for Inactive)
REMARK    1  A    between atoms: C_5  and  C_6 
REMARK    2  A    between atoms: C_17  and  O_18 
ROOT
HETATM    1  C   UNL     1     -43.721  55.840 -53.251  1.00  0.00     0.200 C 
HETATM    2  N   UNL     1     -44.097  55.041 -54.383  1.00  0.00    -0.336 N 
HETATM    3  C   UNL     1     -43.290  54.077 -54.926  1.00  0.00     0.255 C 
HETATM    4  O   UNL     1     -43.491  53.627 -56.050  1.00  0.00    -0.268 OA
HETATM    5  C   UNL     1     -42.173  53.606 -54.093  1.00  0.00     0.053 A 
HETATM    6  C   UNL     1     -42.080  54.105 -52.792  1.00  0.00     0.026 A 
HETATM    7  N   UNL     1     -43.049  54.979 -52.277  1.00  0.00    -0.267 NA
HETATM    8  C   UNL     1     -41.248  52.679 -54.586  1.00  0.00     0.019 A 
HETATM    9  C   UNL     1     -40.228  52.217 -53.756  1.00  0.00     0.001 A 
HETATM   10  C   UNL     1     -40.150  52.668 -52.440  1.00  0.00     0.002 A 
HETATM   11  C   UNL     1     -41.080  53.594 -51.957  1.00  0.00     0.024 A 
HETATM   12  H   UNL     1     -44.696  55.475 -55.068  1.00  0.00     0.164 HD
HETATM   13  H   UNL     1     -42.671  55.497 -51.493  1.00  0.00     0.130 HD
ENDROOT
BRANCH   1  14
HETATM   14  C   UNL     1     -42.938  57.135 -53.502  1.00  0.00     0.023 A 
HETATM   15  C   UNL     1     -42.084  57.660 -52.465  1.00  0.00    -0.014 A 
HETATM   16  C   UNL     1     -41.245  58.771 -52.751  1.00  0.00    -0.025 A 
HETATM   17  C   UNL     1     -42.014  57.152 -51.139  1.00  0.00     0.013 A 
HETATM   18  C   UNL     1     -40.358  59.272 -51.783  1.00  0.00     0.012 A 
HETATM   19  C   UNL     1     -41.300  59.389 -54.003  1.00  0.00     0.015 A 
HETATM   20  C   UNL     1     -40.294  58.717 -50.509  1.00  0.00     0.001 A 
HETATM   21  C   UNL     1     -41.132  57.663 -50.183  1.00  0.00     0.001 A 
HETATM   22  C   UNL     1     -42.190  58.945 -54.972  1.00  0.00     0.038 A 
HETATM   23  C   UNL     1     -43.001  57.841 -54.720  1.00  0.00     0.076 A 
BRANCH  23  24
HETATM   24  O   UNL     1     -43.900  57.490 -55.684  1.00  0.00    -0.360 OA
HETATM   25  H   UNL     1     -43.482  57.501 -56.560  1.00  0.00     0.217 HD
ENDBRANCH  23  24
ENDBRANCH   1  14
TORSDOF 2
ENDMDL
MODEL 8
REMARK VINA RESULT:      -7.5      2.315      6.415
REMARK  2 active torsions:
REMARK  status: ('A' for Active; 'I' for Inactive)
REMARK    1  A    between atoms: C_5  and  C_6 
REMARK    2  A    between atoms: C_17  and  O_18 
ROOT
HETATM    1  C   UNL     1     -44.084  56.159 -53.298  1.00  0.00     0.200 C 
HETATM    2  N   UNL     1     -44.192  55.434 -54.531  1.00  0.00    -0.336 N 
HETATM    3  C   UNL     1     -43.250  54.540 -54.965  1.00  0.00     0.255 C 
HETATM    4  O   UNL     1     -43.204  54.168 -56.134  1.00  0.00    -0.268 OA
HETATM    5  C   UNL     1     -42.296  54.047 -53.959  1.00  0.00     0.053 A 
HETATM    6  C   UNL     1     -42.484  54.452 -52.636  1.00  0.00     0.026 A 
HETATM    7  N   UNL     1     -43.576  55.252 -52.268  1.00  0.00    -0.267 NA
HETATM    8  C   UNL     1     -41.249  53.191 -54.318  1.00  0.00     0.019 A 
HETATM    9  C   UNL     1     -40.391  52.704 -53.334  1.00  0.00     0.001 A 
HETATM   10  C   UNL     1     -40.594  53.060 -52.002  1.00  0.00     0.002 A 
HETATM   11  C   UNL     1     -41.644  53.915 -51.654  1.00  0.00     0.024 A 
HETATM   12  H   UNL     1     -44.665  55.897 -55.292  1.00  0.00     0.164 HD
HETATM   13  H   UNL     1     -43.385  55.724 -51.393  1.00  0.00     0.130 HD
ENDROOT
BRANCH   1  14
HETATM   14  C   UNL     1     -43.330  57.495 -53.302  1.00  0.00     0.023 A 
HETATM   15  C   UNL     1     -43.700  58.522 -52.359  1.00  0.00    -0.014 A 
HETATM   16  C   UNL     1     -42.905  59.696 -52.262  1.00  0.00    -0.025 A 
HETATM   17  C   UNL     1     -44.831  58.463 -51.500  1.00  0.00     0.013 A 
HETATM   18  C   UNL     1     -43.202  60.691 -51.315  1.00  0.00     0.012 A 
HETATM   19  C   UNL     1     -41.818  59.881 -53.120  1.00  0.00     0.015 A 
HETATM   20  C   UNL     1     -44.297  60.571 -50.464  1.00  0.00     0.001 A 
HETATM   21  C   UNL     1     -45.119  59.461 -50.565  1.00  0.00     0.001 A 
HETATM   22  C   UNL     1     -41.516  58.938 -54.094  1.00  0.00     0.038 A 
HETATM   23  C   UNL     1     -42.267  57.769 -54.186  1.00  0.00     0.076 A 
BRANCH  23  24
HETATM   24  O   UNL     1     -41.966  56.909 -55.201  1.00  0.00    -0.360 OA
HETATM   25  H   UNL     1     -41.062  57.063 -55.522  1.00  0.00     0.217 HD
ENDBRANCH  23  24
ENDBRANCH   1  14
TORSDOF 2
ENDMDL
MODEL 9
REMARK VINA RESULT:      -7.4     14.637     16.362
REMARK  2 active torsions:
REMARK  status: ('A' for Active; 'I' for Inactive)
REMARK    1  A    between atoms: C_5  and  C_6 
REMARK    2  A    between atoms: C_17  and  O_18 
ROOT
HETATM    1  C   UNL     1     -35.526  42.254 -53.961  1.00  0.00     0.200 C 
HETATM    2  N   UNL     1     -36.893  42.253 -53.522  1.00  0.00    -0.336 N 
HETATM    3  C   UNL     1     -37.371  41.417 -52.549  1.00  0.00     0.255 C 
HETATM    4  O   UNL     1     -38.574  41.217 -52.405  1.00  0.00    -0.268 OA
HETATM    5  C   UNL     1     -36.371  40.772 -51.684  1.00  0.00     0.053 A 
HETATM    6  C   UNL     1     -35.034  41.132 -51.860  1.00  0.00     0.026 A 
HETATM    7  N   UNL     1     -34.662  42.117 -52.788  1.00  0.00    -0.267 NA
HETATM    8  C   UNL     1     -36.754  39.842 -50.710  1.00  0.00     0.019 A 
HETATM    9  C   UNL     1     -35.788  39.284 -49.876  1.00  0.00     0.001 A 
HETATM   10  C   UNL     1     -34.455  39.669 -50.006  1.00  0.00     0.002 A 
HETATM   11  C   UNL     1     -34.083  40.600 -50.982  1.00  0.00     0.024 A 
HETATM   12  H   UNL     1     -37.592  42.486 -54.210  1.00  0.00     0.164 HD
HETATM   13  H   UNL     1     -33.685  42.014 -53.034  1.00  0.00     0.130 HD
ENDROOT
BRANCH   1  14
HETATM   14  C   UNL     1     -35.121  41.291 -55.084  1.00  0.00     0.023 A 
HETATM   15  C   UNL     1     -36.119  40.830 -56.017  1.00  0.00    -0.014 A 
HETATM   16  C   UNL     1     -35.716  40.062 -57.143  1.00  0.00    -0.025 A 
HETATM   17  C   UNL     1     -37.514  41.077 -55.899  1.00  0.00     0.013 A 
HETATM   18  C   UNL     1     -36.654  39.645 -58.104  1.00  0.00     0.012 A 
HETATM   19  C   UNL     1     -34.376  39.701 -57.304  1.00  0.00     0.015 A 
HETATM   20  C   UNL     1     -38.005  39.946 -57.968  1.00  0.00     0.001 A 
HETATM   21  C   UNL     1     -38.438  40.652 -56.858  1.00  0.00     0.001 A 
HETATM   22  C   UNL     1     -33.427  40.062 -56.357  1.00  0.00     0.038 A 
HETATM   23  C   UNL     1     -33.799  40.837 -55.261  1.00  0.00     0.076 A 
BRANCH  23  24
HETATM   24  O   UNL     1     -32.838  41.109 -54.330  1.00  0.00    -0.360 OA
HETATM   25  H   UNL     1     -33.100  41.866 -53.781  1.00  0.00     0.217 HD
ENDBRANCH  23  24
ENDBRANCH   1  14
TORSDOF 2
ENDMDL
MODEL 10
REMARK VINA RESULT:      -7.4      2.209      3.418
REMARK  2 active torsions:
REMARK  status: ('A' for Active; 'I' for Inactive)
REMARK    1  A    between atoms: C_5  and  C_6 
REMARK    2  A    between atoms: C_17  and  O_18 
ROOT
HETATM    1  C   UNL     1     -43.711  55.166 -53.214  1.00  0.00     0.200 C 
HETATM    2  N   UNL     1     -43.914  56.311 -52.371  1.00  0.00    -0.336 N 
HETATM    3  C   UNL     1     -43.462  57.565 -52.683  1.00  0.00     0.255 C 
HETATM    4  O   UNL     1     -43.374  58.448 -51.834  1.00  0.00    -0.268 OA
HETATM    5  C   UNL     1     -43.089  57.802 -54.086  1.00  0.00     0.053 A 
HETATM    6  C   UNL     1     -43.311  56.769 -54.998  1.00  0.00     0.026 A 
HETATM    7  N   UNL     1     -43.923  55.570 -54.604  1.00  0.00    -0.267 NA
HETATM    8  C   UNL     1     -42.545  59.027 -54.489  1.00  0.00     0.019 A 
HETATM    9  C   UNL     1     -42.246  59.237 -55.834  1.00  0.00     0.001 A 
HETATM   10  C   UNL     1     -42.507  58.233 -56.765  1.00  0.00     0.002 A 
HETATM   11  C   UNL     1     -43.052  57.013 -56.352  1.00  0.00     0.024 A 
HETATM   12  H   UNL     1     -43.941  56.145 -51.377  1.00  0.00     0.164 HD
HETATM   13  H   UNL     1     -43.703  54.832 -55.262  1.00  0.00     0.130 HD
ENDROOT
BRANCH   1  14
HETATM   14  C   UNL     1     -42.417  54.359 -53.046  1.00  0.00     0.023 A 
HETATM   15  C   UNL     1     -41.701  54.419 -51.795  1.00  0.00    -0.014 A 
HETATM   16  C   UNL     1     -40.591  53.556 -51.587  1.00  0.00    -0.025 A 
HETATM   17  C   UNL     1     -42.014  55.300 -50.724  1.00  0.00     0.013 A 
HETATM   18  C   UNL     1     -39.906  53.546 -50.360  1.00  0.00     0.012 A 
HETATM   19  C   UNL     1     -40.158  52.710 -52.611  1.00  0.00     0.015 A 
HETATM   20  C   UNL     1     -40.274  54.397 -49.324  1.00  0.00     0.001 A 
HETATM   21  C   UNL     1     -41.321  55.284 -49.510  1.00  0.00     0.001 A 
HETATM   22  C   UNL     1     -40.786  52.718 -53.850  1.00  0.00     0.038 A 
HETATM   23  C   UNL     1     -41.892  53.537 -54.063  1.00  0.00     0.076 A 
BRANCH  23  24
HETATM   24  O   UNL     1     -42.430  53.552 -55.317  1.00  0.00    -0.360 OA
HETATM   25  H   UNL     1     -42.648  54.460 -55.584  1.00  0.00     0.217 HD
ENDBRANCH  23  24
ENDBRANCH   1  14
TORSDOF 2
ENDMDL
