MODEL 1
REMARK VINA RESULT:      -9.8      0.000      0.000
REMARK  5 active torsions:
REMARK  status: ('A' for Active; 'I' for Inactive)
REMARK    1  A    between atoms: C_7  and  N_8 
REMARK       I    between atoms: N_8  and  C_9 
REMARK       I    between atoms: C_9  and  N_10 
REMARK    2  A    between atoms: N_10  and  C_11 
REMARK    3  A    between atoms: C_18  and  C_19 
REMARK       I    between atoms: C_19  and  N_20 
REMARK    4  A    between atoms: N_20  and  C_21 
REMARK    5  A    between atoms: C_21  and  C_22 
ROOT
HETATM    1  C   UNL     1     -44.133  58.205 -53.031  1.00  0.00     0.104 C 
HETATM    2  C   UNL     1     -43.473  59.580 -52.738  1.00  0.00     0.150 C 
HETATM    3  N   UNL     1     -42.110  59.657 -53.255  1.00  0.00    -0.354 N 
HETATM    4  C   UNL     1     -41.939  60.322 -54.539  1.00  0.00     0.152 C 
HETATM    5  C   UNL     1     -41.021  59.070 -52.642  1.00  0.00     0.220 C 
HETATM    6  O   UNL     1     -39.890  59.080 -53.138  1.00  0.00    -0.273 OA
HETATM    7  C   UNL     1     -41.224  58.344 -51.326  1.00  0.00     0.117 C 
HETATM    8  C   UNL     1     -41.426  56.821 -51.376  1.00  0.00     0.086 C 
HETATM    9  C   UNL     1     -42.690  56.380 -50.587  1.00  0.00     0.014 C 
HETATM   10  C   UNL     1     -44.072  56.317 -51.261  1.00  0.00     0.003 C 
HETATM   11  C   UNL     1     -44.731  57.618 -51.734  1.00  0.00     0.027 C 
ENDROOT
BRANCH   1  12
HETATM   12  N   UNL     1     -45.128  58.367 -54.101  1.00  0.00    -0.337 N 
HETATM   13  C   UNL     1     -45.063  58.215 -55.452  1.00  0.00     0.321 C 
HETATM   14  N   UNL     1     -43.896  57.738 -55.957  1.00  0.00    -0.305 N 
HETATM   15  O   UNL     1     -46.080  58.491 -56.078  1.00  0.00    -0.247 OA
HETATM   16  H   UNL     1     -43.086  57.781 -55.361  1.00  0.00     0.171 HD
HETATM   17  H   UNL     1     -46.035  58.749 -53.856  1.00  0.00     0.164 HD
BRANCH  14  18
HETATM   18  C   UNL     1     -43.670  57.277 -57.250  1.00  0.00     0.094 A 
HETATM   19  C   UNL     1     -43.200  55.971 -57.585  1.00  0.00     0.087 A 
HETATM   20  C   UNL     1     -42.866  54.847 -56.680  1.00  0.00     0.075 C 
HETATM   21  N   UNL     1     -43.104  55.802 -58.907  1.00  0.00    -0.131 NA
HETATM   22  O   UNL     1     -43.510  56.993 -59.462  1.00  0.00    -0.216 OA
HETATM   23  C   UNL     1     -43.857  57.874 -58.481  1.00  0.00     0.103 A 
HETATM   24  C   UNL     1     -44.322  59.181 -58.984  1.00  0.00     0.081 C 
ENDBRANCH  14  18
ENDBRANCH   1  12
BRANCH   8  25
HETATM   25  C   UNL     1     -41.251  56.066 -52.704  1.00  0.00     0.222 C 
HETATM   26  N   UNL     1     -40.732  54.799 -52.622  1.00  0.00    -0.356 N 
HETATM   27  H   UNL     1     -40.269  54.488 -51.771  1.00  0.00     0.162 HD
HETATM   28  O   UNL     1     -41.648  56.533 -53.772  1.00  0.00    -0.273 OA
BRANCH  26  29
HETATM   29  C   UNL     1     -40.554  53.963 -53.789  1.00  0.00     0.161 C 
BRANCH  29  30
HETATM   30  C   UNL     1     -40.239  52.533 -53.434  1.00  0.00    -0.035 A 
HETATM   31  C   UNL     1     -39.979  52.154 -52.110  1.00  0.00     0.051 A 
HETATM   32  C   UNL     1     -39.675  50.826 -51.812  1.00  0.00     0.119 A 
HETATM   33  F   UNL     1     -39.421  50.482 -50.542  1.00  0.00    -0.206 F 
HETATM   34  C   UNL     1     -39.621  49.857 -52.804  1.00  0.00     0.084 A 
HETATM   35  C   UNL     1     -39.873  50.233 -54.115  1.00  0.00     0.119 A 
HETATM   36  F   UNL     1     -39.825  49.316 -55.087  1.00  0.00    -0.206 F 
HETATM   37  C   UNL     1     -40.177  51.554 -54.437  1.00  0.00     0.051 A 
ENDBRANCH  29  30
ENDBRANCH  26  29
ENDBRANCH   8  25
TORSDOF 5
ENDMDL
MODEL 2
REMARK VINA RESULT:      -9.0      1.905      3.085
REMARK  5 active torsions:
REMARK  status: ('A' for Active; 'I' for Inactive)
REMARK    1  A    between atoms: C_7  and  N_8 
REMARK       I    between atoms: N_8  and  C_9 
REMARK       I    between atoms: C_9  and  N_10 
REMARK    2  A    between atoms: N_10  and  C_11 
REMARK    3  A    between atoms: C_18  and  C_19 
REMARK       I    between atoms: C_19  and  N_20 
REMARK    4  A    between atoms: N_20  and  C_21 
REMARK    5  A    between atoms: C_21  and  C_22 
ROOT
HETATM    1  C   UNL     1     -42.784  60.001 -54.170  1.00  0.00     0.104 C 
HETATM    2  C   UNL     1     -41.843  60.335 -52.981  1.00  0.00     0.150 C 
HETATM    3  N   UNL     1     -41.281  59.134 -52.370  1.00  0.00    -0.354 N 
HETATM    4  C   UNL     1     -39.934  58.766 -52.783  1.00  0.00     0.152 C 
HETATM    5  C   UNL     1     -41.979  58.309 -51.511  1.00  0.00     0.220 C 
HETATM    6  O   UNL     1     -41.510  57.256 -51.069  1.00  0.00    -0.273 OA
HETATM    7  C   UNL     1     -43.396  58.685 -51.124  1.00  0.00     0.117 C 
HETATM    8  C   UNL     1     -44.545  58.047 -51.921  1.00  0.00     0.086 C 
HETATM    9  C   UNL     1     -45.545  59.114 -52.447  1.00  0.00     0.014 C 
HETATM   10  C   UNL     1     -45.339  59.802 -53.809  1.00  0.00     0.003 C 
HETATM   11  C   UNL     1     -44.133  60.731 -53.999  1.00  0.00     0.027 C 
ENDROOT
BRANCH   1  12
HETATM   12  N   UNL     1     -42.104  60.338 -55.430  1.00  0.00    -0.337 N 
HETATM   13  C   UNL     1     -42.018  59.702 -56.630  1.00  0.00     0.321 C 
HETATM   14  N   UNL     1     -42.756  58.572 -56.777  1.00  0.00    -0.305 N 
HETATM   15  O   UNL     1     -41.307  60.234 -57.475  1.00  0.00    -0.247 OA
HETATM   16  H   UNL     1     -43.097  58.134 -55.937  1.00  0.00     0.171 HD
HETATM   17  H   UNL     1     -41.492  61.147 -55.441  1.00  0.00     0.164 HD
BRANCH  14  18
HETATM   18  C   UNL     1     -43.019  57.891 -57.962  1.00  0.00     0.094 A 
HETATM   19  C   UNL     1     -43.055  56.470 -58.100  1.00  0.00     0.087 A 
HETATM   20  C   UNL     1     -42.842  55.433 -57.065  1.00  0.00     0.075 C 
HETATM   21  N   UNL     1     -43.361  56.102 -59.348  1.00  0.00    -0.131 NA
HETATM   22  O   UNL     1     -43.531  57.273 -60.049  1.00  0.00    -0.216 OA
HETATM   23  C   UNL     1     -43.337  58.344 -59.227  1.00  0.00     0.103 A 
HETATM   24  C   UNL     1     -43.514  59.650 -59.890  1.00  0.00     0.081 C 
ENDBRANCH  14  18
ENDBRANCH   1  12
BRANCH   8  25
HETATM   25  C   UNL     1     -44.247  56.943 -52.949  1.00  0.00     0.222 C 
HETATM   26  N   UNL     1     -43.693  55.787 -52.460  1.00  0.00    -0.356 N 
HETATM   27  H   UNL     1     -43.285  55.768 -51.528  1.00  0.00     0.162 HD
HETATM   28  O   UNL     1     -44.578  57.050 -54.129  1.00  0.00    -0.273 OA
BRANCH  26  29
HETATM   29  C   UNL     1     -43.401  54.654 -53.309  1.00  0.00     0.161 C 
BRANCH  29  30
HETATM   30  C   UNL     1     -42.197  53.877 -52.844  1.00  0.00    -0.035 A 
HETATM   31  C   UNL     1     -41.378  53.194 -53.753  1.00  0.00     0.051 A 
HETATM   32  C   UNL     1     -40.278  52.470 -53.292  1.00  0.00     0.119 A 
HETATM   33  F   UNL     1     -39.510  51.816 -54.173  1.00  0.00    -0.206 F 
HETATM   34  C   UNL     1     -39.970  52.406 -51.941  1.00  0.00     0.084 A 
HETATM   35  C   UNL     1     -40.784  53.077 -51.041  1.00  0.00     0.119 A 
HETATM   36  F   UNL     1     -40.506  53.028 -49.733  1.00  0.00    -0.206 F 
HETATM   37  C   UNL     1     -41.889  53.805 -51.476  1.00  0.00     0.051 A 
ENDBRANCH  29  30
ENDBRANCH  26  29
ENDBRANCH   8  25
TORSDOF 5
ENDMDL
MODEL 3
REMARK VINA RESULT:      -9.0      1.038      2.108
REMARK  5 active torsions:
REMARK  status: ('A' for Active; 'I' for Inactive)
REMARK    1  A    between atoms: C_7  and  N_8 
REMARK       I    between atoms: N_8  and  C_9 
REMARK       I    between atoms: C_9  and  N_10 
REMARK    2  A    between atoms: N_10  and  C_11 
REMARK    3  A    between atoms: C_18  and  C_19 
REMARK       I    between atoms: C_19  and  N_20 
REMARK    4  A    between atoms: N_20  and  C_21 
REMARK    5  A    between atoms: C_21  and  C_22 
ROOT
HETATM    1  C   UNL     1     -44.262  58.282 -54.045  1.00  0.00     0.104 C 
HETATM    2  C   UNL     1     -43.686  59.685 -53.716  1.00  0.00     0.150 C 
HETATM    3  N   UNL     1     -42.264  59.784 -54.029  1.00  0.00    -0.354 N 
HETATM    4  C   UNL     1     -41.921  60.406 -55.300  1.00  0.00     0.152 C 
HETATM    5  C   UNL     1     -41.264  59.253 -53.240  1.00  0.00     0.220 C 
HETATM    6  O   UNL     1     -40.073  59.278 -53.565  1.00  0.00    -0.273 OA
HETATM    7  C   UNL     1     -41.641  58.571 -51.940  1.00  0.00     0.117 C 
HETATM    8  C   UNL     1     -41.797  57.041 -51.956  1.00  0.00     0.086 C 
HETATM    9  C   UNL     1     -43.153  56.592 -51.344  1.00  0.00     0.014 C 
HETATM   10  C   UNL     1     -44.419  56.463 -52.210  1.00  0.00     0.003 C 
HETATM   11  C   UNL     1     -45.031  57.726 -52.827  1.00  0.00     0.027 C 
ENDROOT
BRANCH   1  12
HETATM   12  N   UNL     1     -45.092  58.374 -55.256  1.00  0.00    -0.337 N 
HETATM   13  C   UNL     1     -44.807  58.255 -56.581  1.00  0.00     0.321 C 
HETATM   14  N   UNL     1     -43.537  57.893 -56.902  1.00  0.00    -0.305 N 
HETATM   15  O   UNL     1     -45.737  58.451 -57.355  1.00  0.00    -0.247 OA
HETATM   16  H   UNL     1     -42.836  57.998 -56.188  1.00  0.00     0.171 HD
HETATM   17  H   UNL     1     -46.057  58.670 -55.152  1.00  0.00     0.164 HD
BRANCH  14  18
HETATM   18  C   UNL     1     -43.075  57.480 -58.147  1.00  0.00     0.094 A 
HETATM   19  C   UNL     1     -42.335  58.294 -59.058  1.00  0.00     0.087 A 
HETATM   20  C   UNL     1     -41.898  59.700 -58.900  1.00  0.00     0.075 C 
HETATM   21  N   UNL     1     -41.999  57.622 -60.164  1.00  0.00    -0.131 NA
HETATM   22  O   UNL     1     -42.512  56.356 -59.996  1.00  0.00    -0.216 OA
HETATM   23  C   UNL     1     -43.146  56.262 -58.793  1.00  0.00     0.103 A 
HETATM   24  C   UNL     1     -43.718  54.930 -58.518  1.00  0.00     0.081 C 
ENDBRANCH  14  18
ENDBRANCH   1  12
BRANCH   8  25
HETATM   25  C   UNL     1     -41.410  56.244 -53.212  1.00  0.00     0.222 C 
HETATM   26  N   UNL     1     -40.828  55.019 -53.002  1.00  0.00    -0.356 N 
HETATM   27  H   UNL     1     -40.457  54.778 -52.086  1.00  0.00     0.162 HD
HETATM   28  O   UNL     1     -41.698  56.635 -54.343  1.00  0.00    -0.273 OA
BRANCH  26  29
HETATM   29  C   UNL     1     -40.453  54.148 -54.094  1.00  0.00     0.161 C 
BRANCH  29  30
HETATM   30  C   UNL     1     -40.183  52.736 -53.641  1.00  0.00    -0.035 A 
HETATM   31  C   UNL     1     -40.111  51.680 -54.559  1.00  0.00     0.051 A 
HETATM   32  C   UNL     1     -39.875  50.381 -54.111  1.00  0.00     0.119 A 
HETATM   33  F   UNL     1     -39.816  49.382 -55.001  1.00  0.00    -0.206 F 
HETATM   34  C   UNL     1     -39.710  50.102 -52.761  1.00  0.00     0.084 A 
HETATM   35  C   UNL     1     -39.787  51.145 -51.852  1.00  0.00     0.119 A 
HETATM   36  F   UNL     1     -39.633  50.899 -50.546  1.00  0.00    -0.206 F 
HETATM   37  C   UNL     1     -40.023  52.451 -52.276  1.00  0.00     0.051 A 
ENDBRANCH  29  30
ENDBRANCH  26  29
ENDBRANCH   8  25
TORSDOF 5
ENDMDL
MODEL 4
REMARK VINA RESULT:      -8.4      1.712      2.115
REMARK  5 active torsions:
REMARK  status: ('A' for Active; 'I' for Inactive)
REMARK    1  A    between atoms: C_7  and  N_8 
REMARK       I    between atoms: N_8  and  C_9 
REMARK       I    between atoms: C_9  and  N_10 
REMARK    2  A    between atoms: N_10  and  C_11 
REMARK    3  A    between atoms: C_18  and  C_19 
REMARK       I    between atoms: C_19  and  N_20 
REMARK    4  A    between atoms: N_20  and  C_21 
REMARK    5  A    between atoms: C_21  and  C_22 
ROOT
HETATM    1  C   UNL     1     -44.959  59.973 -54.100  1.00  0.00     0.104 C 
HETATM    2  C   UNL     1     -43.881  61.090 -54.072  1.00  0.00     0.150 C 
HETATM    3  N   UNL     1     -42.563  60.593 -54.456  1.00  0.00    -0.354 N 
HETATM    4  C   UNL     1     -42.160  60.823 -55.836  1.00  0.00     0.152 C 
HETATM    5  C   UNL     1     -41.744  59.862 -53.620  1.00  0.00     0.220 C 
HETATM    6  O   UNL     1     -40.668  59.383 -53.991  1.00  0.00    -0.273 OA
HETATM    7  C   UNL     1     -42.198  59.595 -52.198  1.00  0.00     0.117 C 
HETATM    8  C   UNL     1     -42.898  58.257 -51.913  1.00  0.00     0.086 C 
HETATM    9  C   UNL     1     -44.248  58.458 -51.171  1.00  0.00     0.014 C 
HETATM   10  C   UNL     1     -45.562  58.674 -51.944  1.00  0.00     0.003 C 
HETATM   11  C   UNL     1     -45.739  59.955 -52.768  1.00  0.00     0.027 C 
ENDROOT
BRANCH   1  12
HETATM   12  N   UNL     1     -45.827  60.171 -55.271  1.00  0.00    -0.337 N 
HETATM   13  C   UNL     1     -45.743  59.751 -56.563  1.00  0.00     0.321 C 
HETATM   14  N   UNL     1     -44.721  58.908 -56.866  1.00  0.00    -0.305 N 
HETATM   15  O   UNL     1     -46.620  60.148 -57.320  1.00  0.00    -0.247 OA
HETATM   16  H   UNL     1     -43.957  58.860 -56.213  1.00  0.00     0.171 HD
HETATM   17  H   UNL     1     -46.611  60.809 -55.183  1.00  0.00     0.164 HD
BRANCH  14  18
HETATM   18  C   UNL     1     -44.566  58.167 -58.033  1.00  0.00     0.094 A 
HETATM   19  C   UNL     1     -43.320  57.911 -58.682  1.00  0.00     0.087 A 
HETATM   20  C   UNL     1     -41.961  58.345 -58.282  1.00  0.00     0.075 C 
HETATM   21  N   UNL     1     -43.474  57.146 -59.767  1.00  0.00    -0.131 NA
HETATM   22  O   UNL     1     -44.822  56.886 -59.847  1.00  0.00    -0.216 OA
HETATM   23  C   UNL     1     -45.478  57.484 -58.812  1.00  0.00     0.103 A 
HETATM   24  C   UNL     1     -46.935  57.247 -58.808  1.00  0.00     0.081 C 
ENDBRANCH  14  18
ENDBRANCH   1  12
BRANCH   8  25
HETATM   25  C   UNL     1     -42.967  57.178 -53.006  1.00  0.00     0.222 C 
HETATM   26  N   UNL     1     -41.843  56.408 -53.175  1.00  0.00    -0.356 N 
HETATM   27  H   UNL     1     -40.955  56.702 -52.775  1.00  0.00     0.162 HD
HETATM   28  O   UNL     1     -44.004  56.949 -53.626  1.00  0.00    -0.273 OA
BRANCH  26  29
HETATM   29  C   UNL     1     -41.786  55.331 -54.138  1.00  0.00     0.161 C 
BRANCH  29  30
HETATM   30  C   UNL     1     -41.107  54.102 -53.592  1.00  0.00    -0.035 A 
HETATM   31  C   UNL     1     -40.770  54.000 -52.236  1.00  0.00     0.051 A 
HETATM   32  C   UNL     1     -40.127  52.857 -51.760  1.00  0.00     0.119 A 
HETATM   33  F   UNL     1     -39.806  52.778 -50.462  1.00  0.00    -0.206 F 
HETATM   34  C   UNL     1     -39.806  51.805 -52.607  1.00  0.00     0.084 A 
HETATM   35  C   UNL     1     -40.134  51.908 -53.950  1.00  0.00     0.119 A 
HETATM   36  F   UNL     1     -39.832  50.906 -54.784  1.00  0.00    -0.206 F 
HETATM   37  C   UNL     1     -40.774  53.040 -54.448  1.00  0.00     0.051 A 
ENDBRANCH  29  30
ENDBRANCH  26  29
ENDBRANCH   8  25
TORSDOF 5
ENDMDL
MODEL 5
REMARK VINA RESULT:      -8.2      1.799      2.374
REMARK  5 active torsions:
REMARK  status: ('A' for Active; 'I' for Inactive)
REMARK    1  A    between atoms: C_7  and  N_8 
REMARK       I    between atoms: N_8  and  C_9 
REMARK       I    between atoms: C_9  and  N_10 
REMARK    2  A    between atoms: N_10  and  C_11 
REMARK    3  A    between atoms: C_18  and  C_19 
REMARK       I    between atoms: C_19  and  N_20 
REMARK    4  A    between atoms: N_20  and  C_21 
REMARK    5  A    between atoms: C_21  and  C_22 
ROOT
HETATM    1  C   UNL     1     -42.781  56.965 -54.600  1.00  0.00     0.104 C 
HETATM    2  C   UNL     1     -43.138  58.259 -53.819  1.00  0.00     0.150 C 
HETATM    3  N   UNL     1     -42.204  58.516 -52.726  1.00  0.00    -0.354 N 
HETATM    4  C   UNL     1     -41.141  59.474 -52.994  1.00  0.00     0.152 C 
HETATM    5  C   UNL     1     -42.231  57.849 -51.519  1.00  0.00     0.220 C 
HETATM    6  O   UNL     1     -41.383  58.026 -50.639  1.00  0.00    -0.273 OA
HETATM    7  C   UNL     1     -43.320  56.823 -51.272  1.00  0.00     0.117 C 
HETATM    8  C   UNL     1     -42.985  55.348 -51.547  1.00  0.00     0.086 C 
HETATM    9  C   UNL     1     -44.043  54.677 -52.466  1.00  0.00     0.014 C 
HETATM   10  C   UNL     1     -43.910  54.715 -53.999  1.00  0.00     0.003 C 
HETATM   11  C   UNL     1     -44.027  56.061 -54.724  1.00  0.00     0.027 C 
ENDROOT
BRANCH   1  12
HETATM   12  N   UNL     1     -42.207  57.333 -55.903  1.00  0.00    -0.337 N 
HETATM   13  C   UNL     1     -42.713  57.335 -57.166  1.00  0.00     0.321 C 
HETATM   14  N   UNL     1     -44.030  57.030 -57.298  1.00  0.00    -0.305 N 
HETATM   15  O   UNL     1     -41.935  57.649 -58.061  1.00  0.00    -0.247 OA
HETATM   16  H   UNL     1     -44.473  56.570 -56.520  1.00  0.00     0.171 HD
HETATM   17  H   UNL     1     -41.217  57.551 -55.944  1.00  0.00     0.164 HD
BRANCH  14  18
HETATM   18  C   UNL     1     -44.819  57.197 -58.431  1.00  0.00     0.094 A 
HETATM   19  C   UNL     1     -44.886  56.282 -59.526  1.00  0.00     0.087 A 
HETATM   20  C   UNL     1     -44.173  54.996 -59.703  1.00  0.00     0.075 C 
HETATM   21  N   UNL     1     -45.749  56.689 -60.460  1.00  0.00    -0.131 NA
HETATM   22  O   UNL     1     -46.264  57.877 -59.995  1.00  0.00    -0.216 OA
HETATM   23  C   UNL     1     -45.721  58.181 -58.782  1.00  0.00     0.103 A 
HETATM   24  C   UNL     1     -46.226  59.437 -58.195  1.00  0.00     0.081 C 
ENDBRANCH  14  18
ENDBRANCH   1  12
BRANCH   8  25
HETATM   25  C   UNL     1     -41.543  54.939 -51.890  1.00  0.00     0.222 C 
HETATM   26  N   UNL     1     -40.999  53.930 -51.136  1.00  0.00    -0.356 N 
HETATM   27  H   UNL     1     -41.434  53.653 -50.259  1.00  0.00     0.162 HD
HETATM   28  O   UNL     1     -40.945  55.420 -52.852  1.00  0.00    -0.273 OA
BRANCH  26  29
HETATM   29  C   UNL     1     -39.668  53.420 -51.379  1.00  0.00     0.161 C 
BRANCH  29  30
HETATM   30  C   UNL     1     -39.677  52.005 -51.898  1.00  0.00    -0.035 A 
HETATM   31  C   UNL     1     -39.746  50.912 -51.024  1.00  0.00     0.051 A 
HETATM   32  C   UNL     1     -39.737  49.612 -51.531  1.00  0.00     0.119 A 
HETATM   33  F   UNL     1     -39.796  48.578 -50.682  1.00  0.00    -0.206 F 
HETATM   34  C   UNL     1     -39.658  49.370 -52.896  1.00  0.00     0.084 A 
HETATM   35  C   UNL     1     -39.584  50.452 -53.760  1.00  0.00     0.119 A 
HETATM   36  F   UNL     1     -39.507  50.241 -55.079  1.00  0.00    -0.206 F 
HETATM   37  C   UNL     1     -39.590  51.758 -53.277  1.00  0.00     0.051 A 
ENDBRANCH  29  30
ENDBRANCH  26  29
ENDBRANCH   8  25
TORSDOF 5
ENDMDL
MODEL 6
REMARK VINA RESULT:      -8.0      2.348      3.415
REMARK  5 active torsions:
REMARK  status: ('A' for Active; 'I' for Inactive)
REMARK    1  A    between atoms: C_7  and  N_8 
REMARK       I    between atoms: N_8  and  C_9 
REMARK       I    between atoms: C_9  and  N_10 
REMARK    2  A    between atoms: N_10  and  C_11 
REMARK    3  A    between atoms: C_18  and  C_19 
REMARK       I    between atoms: C_19  and  N_20 
REMARK    4  A    between atoms: N_20  and  C_21 
REMARK    5  A    between atoms: C_21  and  C_22 
ROOT
HETATM    1  C   UNL     1     -45.151  59.014 -55.938  1.00  0.00     0.104 C 
HETATM    2  C   UNL     1     -44.631  60.337 -56.562  1.00  0.00     0.150 C 
HETATM    3  N   UNL     1     -43.416  60.136 -57.345  1.00  0.00    -0.354 N 
HETATM    4  C   UNL     1     -43.584  60.015 -58.786  1.00  0.00     0.152 C 
HETATM    5  C   UNL     1     -42.163  59.973 -56.790  1.00  0.00     0.220 C 
HETATM    6  O   UNL     1     -41.160  59.725 -57.467  1.00  0.00    -0.273 OA
HETATM    7  C   UNL     1     -42.011  60.061 -55.284  1.00  0.00     0.117 C 
HETATM    8  C   UNL     1     -42.019  58.744 -54.490  1.00  0.00     0.086 C 
HETATM    9  C   UNL     1     -43.039  58.783 -53.318  1.00  0.00     0.014 C 
HETATM   10  C   UNL     1     -44.505  58.361 -53.518  1.00  0.00     0.003 C 
HETATM   11  C   UNL     1     -45.406  59.205 -54.428  1.00  0.00     0.027 C 
ENDROOT
BRANCH   1  12
HETATM   12  N   UNL     1     -46.347  58.573 -56.671  1.00  0.00    -0.337 N 
HETATM   13  C   UNL     1     -46.516  57.907 -57.846  1.00  0.00     0.321 C 
HETATM   14  N   UNL     1     -45.390  57.461 -58.462  1.00  0.00    -0.305 N 
HETATM   15  O   UNL     1     -47.673  57.743 -58.215  1.00  0.00    -0.247 OA
HETATM   16  H   UNL     1     -44.517  57.868 -58.172  1.00  0.00     0.171 HD
HETATM   17  H   UNL     1     -47.255  58.871 -56.329  1.00  0.00     0.164 HD
BRANCH  14  18
HETATM   18  C   UNL     1     -45.316  56.565 -59.524  1.00  0.00     0.094 A 
HETATM   19  C   UNL     1     -44.275  55.606 -59.716  1.00  0.00     0.087 A 
HETATM   20  C   UNL     1     -43.090  55.343 -58.868  1.00  0.00     0.075 C 
HETATM   21  N   UNL     1     -44.481  54.862 -60.807  1.00  0.00    -0.131 NA
HETATM   22  O   UNL     1     -45.661  55.320 -61.348  1.00  0.00    -0.216 OA
HETATM   23  C   UNL     1     -46.168  56.329 -60.584  1.00  0.00     0.103 A 
HETATM   24  C   UNL     1     -47.446  56.874 -61.081  1.00  0.00     0.081 C 
ENDBRANCH  14  18
ENDBRANCH   1  12
BRANCH   8  25
HETATM   25  C   UNL     1     -42.008  57.399 -55.234  1.00  0.00     0.222 C 
HETATM   26  N   UNL     1     -41.314  56.377 -54.637  1.00  0.00    -0.356 N 
HETATM   27  H   UNL     1     -40.653  56.574 -53.888  1.00  0.00     0.162 HD
HETATM   28  O   UNL     1     -42.669  57.218 -56.257  1.00  0.00    -0.273 OA
BRANCH  26  29
HETATM   29  C   UNL     1     -41.257  55.049 -55.207  1.00  0.00     0.161 C 
BRANCH  29  30
HETATM   30  C   UNL     1     -40.757  54.020 -54.227  1.00  0.00    -0.035 A 
HETATM   31  C   UNL     1     -40.240  52.792 -54.664  1.00  0.00     0.051 A 
HETATM   32  C   UNL     1     -39.798  51.851 -53.733  1.00  0.00     0.119 A 
HETATM   33  F   UNL     1     -39.314  50.680 -54.167  1.00  0.00    -0.206 F 
HETATM   34  C   UNL     1     -39.859  52.101 -52.369  1.00  0.00     0.084 A 
HETATM   35  C   UNL     1     -40.375  53.313 -51.937  1.00  0.00     0.119 A 
HETATM   36  F   UNL     1     -40.445  53.573 -50.627  1.00  0.00    -0.206 F 
HETATM   37  C   UNL     1     -40.824  54.267 -52.847  1.00  0.00     0.051 A 
ENDBRANCH  29  30
ENDBRANCH  26  29
ENDBRANCH   8  25
TORSDOF 5
ENDMDL
MODEL 7
REMARK VINA RESULT:      -8.0      3.599      6.657
REMARK  5 active torsions:
REMARK  status: ('A' for Active; 'I' for Inactive)
REMARK    1  A    between atoms: C_7  and  N_8 
REMARK       I    between atoms: N_8  and  C_9 
REMARK       I    between atoms: C_9  and  N_10 
REMARK    2  A    between atoms: N_10  and  C_11 
REMARK    3  A    between atoms: C_18  and  C_19 
REMARK       I    between atoms: C_19  and  N_20 
REMARK    4  A    between atoms: N_20  and  C_21 
REMARK    5  A    between atoms: C_21  and  C_22 
ROOT
HETATM    1  C   UNL     1     -43.521  56.616 -52.005  1.00  0.00     0.104 C 
HETATM    2  C   UNL     1     -42.250  57.041 -51.221  1.00  0.00     0.150 C 
HETATM    3  N   UNL     1     -41.525  58.116 -51.890  1.00  0.00    -0.354 N 
HETATM    4  C   UNL     1     -41.766  59.465 -51.398  1.00  0.00     0.152 C 
HETATM    5  C   UNL     1     -40.712  57.928 -52.989  1.00  0.00     0.220 C 
HETATM    6  O   UNL     1     -40.172  58.862 -53.588  1.00  0.00    -0.273 OA
HETATM    7  C   UNL     1     -40.505  56.521 -53.515  1.00  0.00     0.117 C 
HETATM    8  C   UNL     1     -41.396  56.056 -54.678  1.00  0.00     0.086 C 
HETATM    9  C   UNL     1     -42.080  54.695 -54.374  1.00  0.00     0.014 C 
HETATM   10  C   UNL     1     -43.441  54.626 -53.657  1.00  0.00     0.003 C 
HETATM   11  C   UNL     1     -43.538  55.084 -52.197  1.00  0.00     0.027 C 
ENDROOT
BRANCH   1  12
HETATM   12  N   UNL     1     -44.711  57.120 -51.302  1.00  0.00    -0.337 N 
HETATM   13  C   UNL     1     -45.359  58.316 -51.326  1.00  0.00     0.321 C 
HETATM   14  N   UNL     1     -44.914  59.234 -52.223  1.00  0.00    -0.305 N 
HETATM   15  O   UNL     1     -46.307  58.435 -50.559  1.00  0.00    -0.247 OA
HETATM   16  H   UNL     1     -43.996  59.089 -52.611  1.00  0.00     0.171 HD
HETATM   17  H   UNL     1     -45.121  56.538 -50.579  1.00  0.00     0.164 HD
BRANCH  14  18
HETATM   18  C   UNL     1     -45.548  60.413 -52.599  1.00  0.00     0.094 A 
HETATM   19  C   UNL     1     -45.801  60.814 -53.947  1.00  0.00     0.087 A 
HETATM   20  C   UNL     1     -45.473  60.101 -55.202  1.00  0.00     0.075 C 
HETATM   21  N   UNL     1     -46.452  61.980 -54.003  1.00  0.00    -0.131 NA
HETATM   22  O   UNL     1     -46.637  62.364 -52.695  1.00  0.00    -0.216 OA
HETATM   23  C   UNL     1     -46.109  61.430 -51.853  1.00  0.00     0.103 A 
HETATM   24  C   UNL     1     -46.275  61.750 -50.422  1.00  0.00     0.081 C 
ENDBRANCH  14  18
ENDBRANCH   1  12
BRANCH   8  25
HETATM   25  C   UNL     1     -42.331  57.057 -55.377  1.00  0.00     0.222 C 
HETATM   26  N   UNL     1     -42.171  57.199 -56.732  1.00  0.00    -0.356 N 
HETATM   27  H   UNL     1     -41.330  56.851 -57.188  1.00  0.00     0.162 HD
HETATM   28  O   UNL     1     -43.240  57.626 -54.772  1.00  0.00    -0.273 OA
BRANCH  26  29
HETATM   29  C   UNL     1     -43.010  58.075 -57.519  1.00  0.00     0.161 C 
BRANCH  29  30
HETATM   30  C   UNL     1     -43.984  57.319 -58.384  1.00  0.00    -0.035 A 
HETATM   31  C   UNL     1     -43.656  56.069 -58.927  1.00  0.00     0.051 A 
HETATM   32  C   UNL     1     -44.572  55.398 -59.738  1.00  0.00     0.119 A 
HETATM   33  F   UNL     1     -44.239  54.208 -60.254  1.00  0.00    -0.206 F 
HETATM   34  C   UNL     1     -45.815  55.943 -60.026  1.00  0.00     0.084 A 
HETATM   35  C   UNL     1     -46.138  57.182 -59.494  1.00  0.00     0.119 A 
HETATM   36  F   UNL     1     -47.331  57.726 -59.760  1.00  0.00    -0.206 F 
HETATM   37  C   UNL     1     -45.240  57.871 -58.683  1.00  0.00     0.051 A 
ENDBRANCH  29  30
ENDBRANCH  26  29
ENDBRANCH   8  25
TORSDOF 5
ENDMDL
MODEL 8
REMARK VINA RESULT:      -8.0      2.670      4.453
REMARK  5 active torsions:
REMARK  status: ('A' for Active; 'I' for Inactive)
REMARK    1  A    between atoms: C_7  and  N_8 
REMARK       I    between atoms: N_8  and  C_9 
REMARK       I    between atoms: C_9  and  N_10 
REMARK    2  A    between atoms: N_10  and  C_11 
REMARK    3  A    between atoms: C_18  and  C_19 
REMARK       I    between atoms: C_19  and  N_20 
REMARK    4  A    between atoms: N_20  and  C_21 
REMARK    5  A    between atoms: C_21  and  C_22 
ROOT
HETATM    1  C   UNL     1     -44.716  61.197 -57.105  1.00  0.00     0.104 C 
HETATM    2  C   UNL     1     -43.281  61.773 -56.961  1.00  0.00     0.150 C 
HETATM    3  N   UNL     1     -42.311  60.749 -56.586  1.00  0.00    -0.354 N 
HETATM    4  C   UNL     1     -41.520  60.177 -57.665  1.00  0.00     0.152 C 
HETATM    5  C   UNL     1     -42.176  60.251 -55.305  1.00  0.00     0.220 C 
HETATM    6  O   UNL     1     -41.405  59.328 -55.026  1.00  0.00    -0.273 OA
HETATM    7  C   UNL     1     -43.039  60.828 -54.200  1.00  0.00     0.117 C 
HETATM    8  C   UNL     1     -44.338  60.085 -53.849  1.00  0.00     0.086 C 
HETATM    9  C   UNL     1     -45.565  61.039 -53.844  1.00  0.00     0.014 C 
HETATM   10  C   UNL     1     -46.378  61.305 -55.124  1.00  0.00     0.003 C 
HETATM   11  C   UNL     1     -45.712  62.048 -56.288  1.00  0.00     0.027 C 
ENDROOT
BRANCH   1  12
HETATM   12  N   UNL     1     -45.062  61.118 -58.532  1.00  0.00    -0.337 N 
HETATM   13  C   UNL     1     -44.949  60.124 -59.455  1.00  0.00     0.321 C 
HETATM   14  N   UNL     1     -44.517  58.918 -59.004  1.00  0.00    -0.305 N 
HETATM   15  O   UNL     1     -45.283  60.407 -60.599  1.00  0.00    -0.247 OA
HETATM   16  H   UNL     1     -44.061  58.900 -58.106  1.00  0.00     0.171 HD
HETATM   17  H   UNL     1     -45.369  61.966 -58.997  1.00  0.00     0.164 HD
BRANCH  14  18
HETATM   18  C   UNL     1     -44.548  57.708 -59.689  1.00  0.00     0.094 A 
HETATM   19  C   UNL     1     -43.403  57.034 -60.215  1.00  0.00     0.087 A 
HETATM   20  C   UNL     1     -41.980  57.438 -60.151  1.00  0.00     0.075 C 
HETATM   21  N   UNL     1     -43.734  55.878 -60.799  1.00  0.00    -0.131 NA
HETATM   22  O   UNL     1     -45.099  55.773 -60.665  1.00  0.00    -0.216 OA
HETATM   23  C   UNL     1     -45.590  56.856 -59.997  1.00  0.00     0.103 A 
HETATM   24  C   UNL     1     -47.051  56.824 -59.793  1.00  0.00     0.081 C 
ENDBRANCH  14  18
ENDBRANCH   1  12
BRANCH   8  25
HETATM   25  C   UNL     1     -44.640  58.720 -54.489  1.00  0.00     0.222 C 
HETATM   26  N   UNL     1     -43.939  57.648 -53.997  1.00  0.00    -0.356 N 
HETATM   27  H   UNL     1     -43.108  57.795 -53.428  1.00  0.00     0.162 HD
HETATM   28  O   UNL     1     -45.531  58.580 -55.325  1.00  0.00    -0.273 OA
BRANCH  26  29
HETATM   29  C   UNL     1     -44.154  56.302 -54.479  1.00  0.00     0.161 C 
BRANCH  29  30
HETATM   30  C   UNL     1     -43.023  55.372 -54.123  1.00  0.00    -0.035 A 
HETATM   31  C   UNL     1     -42.010  55.075 -55.044  1.00  0.00     0.051 A 
HETATM   32  C   UNL     1     -40.983  54.199 -54.693  1.00  0.00     0.119 A 
HETATM   33  F   UNL     1     -40.026  53.921 -55.588  1.00  0.00    -0.206 F 
HETATM   34  C   UNL     1     -40.939  53.603 -53.440  1.00  0.00     0.084 A 
HETATM   35  C   UNL     1     -41.945  53.892 -52.531  1.00  0.00     0.119 A 
HETATM   36  F   UNL     1     -41.923  53.328 -51.318  1.00  0.00    -0.206 F 
HETATM   37  C   UNL     1     -42.981  54.763 -52.859  1.00  0.00     0.051 A 
ENDBRANCH  29  30
ENDBRANCH  26  29
ENDBRANCH   8  25
TORSDOF 5
ENDMDL
MODEL 9
REMARK VINA RESULT:      -7.9      3.813      6.538
REMARK  5 active torsions:
REMARK  status: ('A' for Active; 'I' for Inactive)
REMARK    1  A    between atoms: C_7  and  N_8 
REMARK       I    between atoms: N_8  and  C_9 
REMARK       I    between atoms: C_9  and  N_10 
REMARK    2  A    between atoms: N_10  and  C_11 
REMARK    3  A    between atoms: C_18  and  C_19 
REMARK       I    between atoms: C_19  and  N_20 
REMARK    4  A    between atoms: N_20  and  C_21 
REMARK    5  A    between atoms: C_21  and  C_22 
ROOT
HETATM    1  C   UNL     1     -42.299  56.258 -55.855  1.00  0.00     0.104 C 
HETATM    2  C   UNL     1     -43.795  55.967 -55.558  1.00  0.00     0.150 C 
HETATM    3  N   UNL     1     -44.308  56.784 -54.464  1.00  0.00    -0.354 N 
HETATM    4  C   UNL     1     -45.051  57.979 -54.839  1.00  0.00     0.152 C 
HETATM    5  C   UNL     1     -44.055  56.532 -53.131  1.00  0.00     0.220 C 
HETATM    6  O   UNL     1     -44.432  57.282 -52.225  1.00  0.00    -0.273 OA
HETATM    7  C   UNL     1     -43.243  55.306 -52.759  1.00  0.00     0.117 C 
HETATM    8  C   UNL     1     -41.735  55.494 -52.527  1.00  0.00     0.086 C 
HETATM    9  C   UNL     1     -40.893  54.483 -53.355  1.00  0.00     0.014 C 
HETATM   10  C   UNL     1     -40.441  54.805 -54.791  1.00  0.00     0.003 C 
HETATM   11  C   UNL     1     -41.499  54.938 -55.892  1.00  0.00     0.027 C 
ENDROOT
BRANCH   1  12
HETATM   12  N   UNL     1     -42.197  57.027 -57.105  1.00  0.00    -0.337 N 
HETATM   13  C   UNL     1     -43.012  57.135 -58.190  1.00  0.00     0.321 C 
HETATM   14  N   UNL     1     -44.209  56.496 -58.122  1.00  0.00    -0.305 N 
HETATM   15  O   UNL     1     -42.599  57.830 -59.111  1.00  0.00    -0.247 OA
HETATM   16  H   UNL     1     -44.308  55.783 -57.418  1.00  0.00     0.171 HD
HETATM   17  H   UNL     1     -41.333  57.524 -57.291  1.00  0.00     0.164 HD
BRANCH  14  18
HETATM   18  C   UNL     1     -45.291  56.651 -58.982  1.00  0.00     0.094 A 
HETATM   19  C   UNL     1     -45.540  55.850 -60.138  1.00  0.00     0.087 A 
HETATM   20  C   UNL     1     -44.751  54.714 -60.665  1.00  0.00     0.075 C 
HETATM   21  N   UNL     1     -46.669  56.210 -60.756  1.00  0.00    -0.131 NA
HETATM   22  O   UNL     1     -47.180  57.251 -60.016  1.00  0.00    -0.216 OA
HETATM   23  C   UNL     1     -46.368  57.514 -58.953  1.00  0.00     0.103 A 
HETATM   24  C   UNL     1     -46.845  58.611 -58.090  1.00  0.00     0.081 C 
ENDBRANCH  14  18
ENDBRANCH   1  12
BRANCH   8  25
HETATM   25  C   UNL     1     -41.131  56.908 -52.510  1.00  0.00     0.222 C 
HETATM   26  N   UNL     1     -41.292  57.626 -51.351  1.00  0.00    -0.356 N 
HETATM   27  H   UNL     1     -41.976  57.333 -50.657  1.00  0.00     0.162 HD
HETATM   28  O   UNL     1     -40.453  57.335 -53.444  1.00  0.00    -0.273 OA
BRANCH  26  29
HETATM   29  C   UNL     1     -40.739  58.952 -51.185  1.00  0.00     0.161 C 
BRANCH  29  30
HETATM   30  C   UNL     1     -41.757  60.037 -51.418  1.00  0.00    -0.035 A 
HETATM   31  C   UNL     1     -42.263  60.295 -52.699  1.00  0.00     0.051 A 
HETATM   32  C   UNL     1     -43.194  61.317 -52.888  1.00  0.00     0.119 A 
HETATM   33  F   UNL     1     -43.662  61.555 -54.120  1.00  0.00    -0.206 F 
HETATM   34  C   UNL     1     -43.637  62.096 -51.828  1.00  0.00     0.084 A 
HETATM   35  C   UNL     1     -43.131  61.845 -50.562  1.00  0.00     0.119 A 
HETATM   36  F   UNL     1     -43.543  62.585 -49.526  1.00  0.00    -0.206 F 
HETATM   37  C   UNL     1     -42.200  60.831 -50.348  1.00  0.00     0.051 A 
ENDBRANCH  29  30
ENDBRANCH  26  29
ENDBRANCH   8  25
TORSDOF 5
ENDMDL
MODEL 10
REMARK VINA RESULT:      -7.9      3.463      7.493
REMARK  5 active torsions:
REMARK  status: ('A' for Active; 'I' for Inactive)
REMARK    1  A    between atoms: C_7  and  N_8 
REMARK       I    between atoms: N_8  and  C_9 
REMARK       I    between atoms: C_9  and  N_10 
REMARK    2  A    between atoms: N_10  and  C_11 
REMARK    3  A    between atoms: C_18  and  C_19 
REMARK       I    between atoms: C_19  and  N_20 
REMARK    4  A    between atoms: N_20  and  C_21 
REMARK    5  A    between atoms: C_21  and  C_22 
ROOT
HETATM    1  C   UNL     1     -43.419  57.086 -52.611  1.00  0.00     0.104 C 
HETATM    2  C   UNL     1     -43.464  58.240 -51.573  1.00  0.00     0.150 C 
HETATM    3  N   UNL     1     -44.604  59.127 -51.784  1.00  0.00    -0.354 N 
HETATM    4  C   UNL     1     -45.772  58.893 -50.947  1.00  0.00     0.152 C 
HETATM    5  C   UNL     1     -44.655  60.090 -52.770  1.00  0.00     0.220 C 
HETATM    6  O   UNL     1     -45.660  60.776 -52.982  1.00  0.00    -0.273 OA
HETATM    7  C   UNL     1     -43.445  60.293 -53.662  1.00  0.00     0.117 C 
HETATM    8  C   UNL     1     -43.433  59.571 -55.019  1.00  0.00     0.086 C 
HETATM    9  C   UNL     1     -42.121  58.766 -55.233  1.00  0.00     0.014 C 
HETATM   10  C   UNL     1     -41.992  57.307 -54.759  1.00  0.00     0.003 C 
HETATM   11  C   UNL     1     -42.018  57.008 -53.255  1.00  0.00     0.027 C 
ENDROOT
BRANCH   1  12
HETATM   12  N   UNL     1     -43.821  55.833 -51.955  1.00  0.00    -0.337 N 
HETATM   13  C   UNL     1     -43.202  54.630 -51.806  1.00  0.00     0.321 C 
HETATM   14  N   UNL     1     -41.923  54.541 -52.257  1.00  0.00    -0.305 N 
HETATM   15  O   UNL     1     -43.849  53.753 -51.245  1.00  0.00    -0.247 OA
HETATM   16  H   UNL     1     -41.612  55.253 -52.896  1.00  0.00     0.171 HD
HETATM   17  H   UNL     1     -44.770  55.760 -51.603  1.00  0.00     0.164 HD
BRANCH  14  18
HETATM   18  C   UNL     1     -41.017  53.516 -52.006  1.00  0.00     0.094 A 
HETATM   19  C   UNL     1     -40.401  52.704 -53.007  1.00  0.00     0.087 A 
HETATM   20  C   UNL     1     -40.564  52.763 -54.478  1.00  0.00     0.075 C 
HETATM   21  N   UNL     1     -39.552  51.819 -52.474  1.00  0.00    -0.131 NA
HETATM   22  O   UNL     1     -39.597  52.036 -51.116  1.00  0.00    -0.216 OA
HETATM   23  C   UNL     1     -40.461  53.052 -50.831  1.00  0.00     0.103 A 
HETATM   24  C   UNL     1     -40.563  53.367 -49.393  1.00  0.00     0.081 C 
ENDBRANCH  14  18
ENDBRANCH   1  12
BRANCH   8  25
HETATM   25  C   UNL     1     -44.685  58.822 -55.503  1.00  0.00     0.222 C 
HETATM   26  N   UNL     1     -45.082  59.067 -56.794  1.00  0.00    -0.356 N 
HETATM   27  H   UNL     1     -44.717  59.871 -57.299  1.00  0.00     0.162 HD
HETATM   28  O   UNL     1     -45.242  57.975 -54.806  1.00  0.00    -0.273 OA
BRANCH  26  29
HETATM   29  C   UNL     1     -46.218  58.398 -57.389  1.00  0.00     0.161 C 
BRANCH  29  30
HETATM   30  C   UNL     1     -45.828  57.510 -58.542  1.00  0.00    -0.035 A 
HETATM   31  C   UNL     1     -46.758  57.144 -59.523  1.00  0.00     0.051 A 
HETATM   32  C   UNL     1     -46.373  56.308 -60.572  1.00  0.00     0.119 A 
HETATM   33  F   UNL     1     -47.277  55.961 -61.498  1.00  0.00    -0.206 F 
HETATM   34  C   UNL     1     -45.077  55.822 -60.669  1.00  0.00     0.084 A 
HETATM   35  C   UNL     1     -44.158  56.180 -59.695  1.00  0.00     0.119 A 
HETATM   36  F   UNL     1     -42.903  55.721 -59.768  1.00  0.00    -0.206 F 
HETATM   37  C   UNL     1     -44.519  57.012 -58.638  1.00  0.00     0.051 A 
ENDBRANCH  29  30
ENDBRANCH  26  29
ENDBRANCH   8  25
TORSDOF 5
ENDMDL
