MODEL 1
REMARK VINA RESULT:      -8.3      0.000      0.000
REMARK  3 active torsions:
REMARK  status: ('A' for Active; 'I' for Inactive)
REMARK    1  A    between atoms: C_5  and  C_6 
REMARK    2  A    between atoms: C_10  and  N_11 
REMARK    3  A    between atoms: C_18  and  C_19 
ROOT
HETATM    1  C   UNL     1     -43.541  56.966 -52.944  1.00  0.00     0.106 A 
HETATM    2  C   UNL     1     -44.518  58.021 -53.473  1.00  0.00     0.081 A 
HETATM    3  C   UNL     1     -45.092  58.899 -52.507  1.00  0.00     0.100 C 
HETATM    4  N   UNL     1     -45.562  59.613 -51.724  1.00  0.00    -0.191 NA
HETATM    5  C   UNL     1     -44.872  58.109 -54.785  1.00  0.00     0.140 A 
HETATM    6  O   UNL     1     -44.360  57.231 -55.755  1.00  0.00    -0.279 OA
HETATM    7  C   UNL     1     -43.577  56.255 -55.311  1.00  0.00     0.175 A 
HETATM    8  C   UNL     1     -43.143  56.028 -54.031  1.00  0.00     0.040 A 
HETATM    9  N   UNL     1     -43.055  55.274 -56.085  1.00  0.00    -0.256 N 
HETATM   10  H   UNL     1     -43.168  55.131 -57.082  1.00  0.00     0.191 HD
HETATM   11  N   UNL     1     -42.306  54.403 -55.386  1.00  0.00    -0.172 NA
HETATM   12  C   UNL     1     -42.371  54.835 -54.110  1.00  0.00     0.099 A 
ENDROOT
BRANCH   1  13
HETATM   13  C   UNL     1     -42.260  57.585 -52.401  1.00  0.00    -0.044 A 
HETATM   14  C   UNL     1     -42.013  57.554 -51.018  1.00  0.00     0.009 A 
HETATM   15  C   UNL     1     -40.875  58.161 -50.478  1.00  0.00     0.007 A 
HETATM   16  C   UNL     1     -39.965  58.826 -51.304  1.00  0.00    -0.062 A 
HETATM   17  C   UNL     1     -38.731  59.453 -50.727  1.00  0.00     0.048 C 
HETATM   18  C   UNL     1     -40.194  58.850 -52.683  1.00  0.00     0.007 A 
HETATM   19  C   UNL     1     -41.333  58.249 -53.224  1.00  0.00     0.009 A 
ENDBRANCH   1  13
BRANCH   5  20
HETATM   20  N   UNL     1     -45.745  59.033 -55.316  1.00  0.00    -0.282 NA
HETATM   21  H   UNL     1     -45.352  59.652 -56.022  1.00  0.00     0.126 HD
HETATM   22  H   UNL     1     -46.622  58.608 -55.604  1.00  0.00     0.126 HD
ENDBRANCH   5  20
BRANCH  12  23
HETATM   23  C   UNL     1     -41.695  54.101 -53.042  1.00  0.00    -0.005 A 
HETATM   24  C   UNL     1     -40.539  53.361 -53.327  1.00  0.00     0.014 A 
HETATM   25  C   UNL     1     -39.883  52.649 -52.320  1.00  0.00     0.001 A 
HETATM   26  C   UNL     1     -40.382  52.666 -51.019  1.00  0.00     0.000 A 
HETATM   27  C   UNL     1     -41.537  53.390 -50.725  1.00  0.00     0.001 A 
HETATM   28  C   UNL     1     -42.193  54.100 -51.733  1.00  0.00     0.014 A 
ENDBRANCH  12  23
TORSDOF 3
ENDMDL
MODEL 2
REMARK VINA RESULT:      -8.2      2.587      4.111
REMARK  3 active torsions:
REMARK  status: ('A' for Active; 'I' for Inactive)
REMARK    1  A    between atoms: C_5  and  C_6 
REMARK    2  A    between atoms: C_10  and  N_11 
REMARK    3  A    between atoms: C_18  and  C_19 
ROOT
HETATM    1  C   UNL     1     -42.442  56.983 -52.360  1.00  0.00     0.106 A 
HETATM    2  C   UNL     1     -43.070  58.296 -51.884  1.00  0.00     0.081 A 
HETATM    3  C   UNL     1     -42.444  59.498 -52.327  1.00  0.00     0.100 C 
HETATM    4  N   UNL     1     -41.936  60.478 -52.684  1.00  0.00    -0.191 NA
HETATM    5  C   UNL     1     -44.142  58.343 -51.045  1.00  0.00     0.140 A 
HETATM    6  O   UNL     1     -44.754  57.177 -50.554  1.00  0.00    -0.279 OA
HETATM    7  C   UNL     1     -44.180  56.027 -50.883  1.00  0.00     0.175 A 
HETATM    8  C   UNL     1     -43.099  55.819 -51.701  1.00  0.00     0.040 A 
HETATM    9  N   UNL     1     -44.581  54.811 -50.442  1.00  0.00    -0.256 N 
HETATM   10  H   UNL     1     -45.351  54.590 -49.821  1.00  0.00     0.191 HD
HETATM   11  N   UNL     1     -43.821  53.808 -50.915  1.00  0.00    -0.172 NA
HETATM   12  C   UNL     1     -42.881  54.413 -51.672  1.00  0.00     0.099 A 
ENDROOT
BRANCH   1  13
HETATM   13  C   UNL     1     -42.590  56.782 -53.863  1.00  0.00    -0.044 A 
HETATM   14  C   UNL     1     -43.861  56.897 -54.450  1.00  0.00     0.009 A 
HETATM   15  C   UNL     1     -44.044  56.664 -55.816  1.00  0.00     0.007 A 
HETATM   16  C   UNL     1     -42.966  56.296 -56.625  1.00  0.00    -0.062 A 
HETATM   17  C   UNL     1     -43.158  56.072 -58.096  1.00  0.00     0.048 C 
HETATM   18  C   UNL     1     -41.695  56.192 -56.053  1.00  0.00     0.007 A 
HETATM   19  C   UNL     1     -41.510  56.419 -54.687  1.00  0.00     0.009 A 
ENDBRANCH   1  13
BRANCH   5  20
HETATM   20  N   UNL     1     -44.745  59.492 -50.583  1.00  0.00    -0.282 NA
HETATM   21  H   UNL     1     -44.788  60.262 -51.248  1.00  0.00     0.126 HD
HETATM   22  H   UNL     1     -45.637  59.302 -50.135  1.00  0.00     0.126 HD
ENDBRANCH   5  20
BRANCH  12  23
HETATM   23  C   UNL     1     -41.840  53.627 -52.330  1.00  0.00    -0.005 A 
HETATM   24  C   UNL     1     -41.955  53.316 -53.693  1.00  0.00     0.014 A 
HETATM   25  C   UNL     1     -40.972  52.561 -54.336  1.00  0.00     0.001 A 
HETATM   26  C   UNL     1     -39.867  52.103 -53.621  1.00  0.00     0.000 A 
HETATM   27  C   UNL     1     -39.747  52.396 -52.263  1.00  0.00     0.001 A 
HETATM   28  C   UNL     1     -40.731  53.150 -51.620  1.00  0.00     0.014 A 
ENDBRANCH  12  23
TORSDOF 3
ENDMDL
MODEL 3
REMARK VINA RESULT:      -7.9      2.868      5.479
REMARK  3 active torsions:
REMARK  status: ('A' for Active; 'I' for Inactive)
REMARK    1  A    between atoms: C_5  and  C_6 
REMARK    2  A    between atoms: C_10  and  N_11 
REMARK    3  A    between atoms: C_18  and  C_19 
ROOT
HETATM    1  C   UNL     1     -43.549  57.541 -53.716  1.00  0.00     0.106 A 
HETATM    2  C   UNL     1     -43.522  58.011 -52.258  1.00  0.00     0.081 A 
HETATM    3  C   UNL     1     -44.212  57.196 -51.314  1.00  0.00     0.100 C 
HETATM    4  N   UNL     1     -44.774  56.536 -50.543  1.00  0.00    -0.191 NA
HETATM    5  C   UNL     1     -42.917  59.166 -51.864  1.00  0.00     0.140 A 
HETATM    6  O   UNL     1     -42.268  60.015 -52.776  1.00  0.00    -0.279 OA
HETATM    7  C   UNL     1     -42.348  59.675 -54.057  1.00  0.00     0.175 A 
HETATM    8  C   UNL     1     -42.927  58.561 -54.607  1.00  0.00     0.040 A 
HETATM    9  N   UNL     1     -41.852  60.409 -55.081  1.00  0.00    -0.256 N 
HETATM   10  H   UNL     1     -41.358  61.293 -55.040  1.00  0.00     0.191 HD
HETATM   11  N   UNL     1     -42.077  59.847 -56.282  1.00  0.00    -0.172 NA
HETATM   12  C   UNL     1     -42.766  58.718 -56.012  1.00  0.00     0.099 A 
ENDROOT
BRANCH   1  13
HETATM   13  C   UNL     1     -42.777  56.244 -53.920  1.00  0.00    -0.044 A 
HETATM   14  C   UNL     1     -41.394  56.221 -53.673  1.00  0.00     0.009 A 
HETATM   15  C   UNL     1     -40.643  55.065 -53.903  1.00  0.00     0.007 A 
HETATM   16  C   UNL     1     -41.252  53.909 -54.400  1.00  0.00    -0.062 A 
HETATM   17  C   UNL     1     -40.450  52.661 -54.622  1.00  0.00     0.048 C 
HETATM   18  C   UNL     1     -42.630  53.918 -54.637  1.00  0.00     0.007 A 
HETATM   19  C   UNL     1     -43.382  55.073 -54.412  1.00  0.00     0.009 A 
ENDBRANCH   1  13
BRANCH   5  20
HETATM   20  N   UNL     1     -42.864  59.639 -50.571  1.00  0.00    -0.282 NA
HETATM   21  H   UNL     1     -41.954  59.575 -50.119  1.00  0.00     0.126 HD
HETATM   22  H   UNL     1     -43.289  60.557 -50.482  1.00  0.00     0.126 HD
ENDBRANCH   5  20
BRANCH  12  23
HETATM   23  C   UNL     1     -43.224  57.851 -57.096  1.00  0.00    -0.005 A 
HETATM   24  C   UNL     1     -44.424  58.140 -57.762  1.00  0.00     0.014 A 
HETATM   25  C   UNL     1     -44.879  57.318 -58.795  1.00  0.00     0.001 A 
HETATM   26  C   UNL     1     -44.142  56.196 -59.169  1.00  0.00     0.000 A 
HETATM   27  C   UNL     1     -42.953  55.893 -58.506  1.00  0.00     0.001 A 
HETATM   28  C   UNL     1     -42.498  56.714 -57.471  1.00  0.00     0.014 A 
ENDBRANCH  12  23
TORSDOF 3
ENDMDL
MODEL 4
REMARK VINA RESULT:      -7.7      2.661      3.960
REMARK  3 active torsions:
REMARK  status: ('A' for Active; 'I' for Inactive)
REMARK    1  A    between atoms: C_5  and  C_6 
REMARK    2  A    between atoms: C_10  and  N_11 
REMARK    3  A    between atoms: C_18  and  C_19 
ROOT
HETATM    1  C   UNL     1     -43.808  58.445 -52.352  1.00  0.00     0.106 A 
HETATM    2  C   UNL     1     -44.406  59.592 -51.530  1.00  0.00     0.081 A 
HETATM    3  C   UNL     1     -45.394  59.235 -50.566  1.00  0.00     0.100 C 
HETATM    4  N   UNL     1     -46.199  58.949 -49.781  1.00  0.00    -0.191 NA
HETATM    5  C   UNL     1     -44.065  60.896 -51.721  1.00  0.00     0.140 A 
HETATM    6  O   UNL     1     -43.129  61.285 -52.694  1.00  0.00    -0.279 OA
HETATM    7  C   UNL     1     -42.657  60.322 -53.476  1.00  0.00     0.175 A 
HETATM    8  C   UNL     1     -42.912  58.976 -53.418  1.00  0.00     0.040 A 
HETATM    9  N   UNL     1     -41.809  60.518 -54.514  1.00  0.00    -0.256 N 
HETATM   10  H   UNL     1     -41.412  61.390 -54.845  1.00  0.00     0.191 HD
HETATM   11  N   UNL     1     -41.494  59.377 -55.152  1.00  0.00    -0.172 NA
HETATM   12  C   UNL     1     -42.189  58.417 -54.508  1.00  0.00     0.099 A 
ENDROOT
BRANCH   1  13
HETATM   13  C   UNL     1     -42.971  57.499 -51.501  1.00  0.00    -0.044 A 
HETATM   14  C   UNL     1     -41.735  57.937 -50.999  1.00  0.00     0.009 A 
HETATM   15  C   UNL     1     -40.914  57.078 -50.262  1.00  0.00     0.007 A 
HETATM   16  C   UNL     1     -41.303  55.756 -50.022  1.00  0.00    -0.062 A 
HETATM   17  C   UNL     1     -40.434  54.843 -49.208  1.00  0.00     0.048 C 
HETATM   18  C   UNL     1     -42.537  55.315 -50.505  1.00  0.00     0.007 A 
HETATM   19  C   UNL     1     -43.357  56.170 -51.246  1.00  0.00     0.009 A 
ENDBRANCH   1  13
BRANCH   5  20
HETATM   20  N   UNL     1     -44.571  61.965 -51.016  1.00  0.00    -0.282 NA
HETATM   21  H   UNL     1     -45.560  62.156 -51.160  1.00  0.00     0.126 HD
HETATM   22  H   UNL     1     -44.311  61.934 -50.034  1.00  0.00     0.126 HD
ENDBRANCH   5  20
BRANCH  12  23
HETATM   23  C   UNL     1     -42.122  57.026 -54.954  1.00  0.00    -0.005 A 
HETATM   24  C   UNL     1     -41.188  56.153 -54.378  1.00  0.00     0.014 A 
HETATM   25  C   UNL     1     -41.106  54.823 -54.797  1.00  0.00     0.001 A 
HETATM   26  C   UNL     1     -41.954  54.355 -55.800  1.00  0.00     0.000 A 
HETATM   27  C   UNL     1     -42.878  55.218 -56.387  1.00  0.00     0.001 A 
HETATM   28  C   UNL     1     -42.959  56.549 -55.969  1.00  0.00     0.014 A 
ENDBRANCH  12  23
TORSDOF 3
ENDMDL
MODEL 5
REMARK VINA RESULT:      -7.6      1.578      2.430
REMARK  3 active torsions:
REMARK  status: ('A' for Active; 'I' for Inactive)
REMARK    1  A    between atoms: C_5  and  C_6 
REMARK    2  A    between atoms: C_10  and  N_11 
REMARK    3  A    between atoms: C_18  and  C_19 
ROOT
HETATM    1  C   UNL     1     -42.544  55.629 -53.380  1.00  0.00     0.106 A 
HETATM    2  C   UNL     1     -43.252  56.137 -54.640  1.00  0.00     0.081 A 
HETATM    3  C   UNL     1     -44.350  57.024 -54.439  1.00  0.00     0.100 C 
HETATM    4  N   UNL     1     -45.245  57.745 -54.278  1.00  0.00    -0.191 NA
HETATM    5  C   UNL     1     -42.902  55.743 -55.895  1.00  0.00     0.140 A 
HETATM    6  O   UNL     1     -41.855  54.834 -56.125  1.00  0.00    -0.279 OA
HETATM    7  C   UNL     1     -41.278  54.315 -55.049  1.00  0.00     0.175 A 
HETATM    8  C   UNL     1     -41.526  54.599 -53.730  1.00  0.00     0.040 A 
HETATM    9  N   UNL     1     -40.308  53.370 -55.074  1.00  0.00    -0.256 N 
HETATM   10  H   UNL     1     -39.881  52.929 -55.880  1.00  0.00     0.191 HD
HETATM   11  N   UNL     1     -39.904  53.005 -53.845  1.00  0.00    -0.172 NA
HETATM   12  C   UNL     1     -40.665  53.732 -53.000  1.00  0.00     0.099 A 
ENDROOT
BRANCH   1  13
HETATM   13  C   UNL     1     -41.811  56.741 -52.640  1.00  0.00    -0.044 A 
HETATM   14  C   UNL     1     -42.188  57.054 -51.323  1.00  0.00     0.009 A 
HETATM   15  C   UNL     1     -41.577  58.105 -50.633  1.00  0.00     0.007 A 
HETATM   16  C   UNL     1     -40.586  58.877 -51.246  1.00  0.00    -0.062 A 
HETATM   17  C   UNL     1     -39.912  59.988 -50.495  1.00  0.00     0.048 C 
HETATM   18  C   UNL     1     -40.195  58.565 -52.551  1.00  0.00     0.007 A 
HETATM   19  C   UNL     1     -40.807  57.519 -53.245  1.00  0.00     0.009 A 
ENDBRANCH   1  13
BRANCH   5  20
HETATM   20  N   UNL     1     -43.504  56.163 -57.061  1.00  0.00    -0.282 NA
HETATM   21  H   UNL     1     -44.385  56.659 -56.945  1.00  0.00     0.126 HD
HETATM   22  H   UNL     1     -42.853  56.646 -57.674  1.00  0.00     0.126 HD
ENDBRANCH   5  20
BRANCH  12  23
HETATM   23  C   UNL     1     -40.529  53.573 -51.553  1.00  0.00    -0.005 A 
HETATM   24  C   UNL     1     -40.747  52.318 -50.966  1.00  0.00     0.014 A 
HETATM   25  C   UNL     1     -40.627  52.150 -49.584  1.00  0.00     0.001 A 
HETATM   26  C   UNL     1     -40.293  53.236 -48.776  1.00  0.00     0.000 A 
HETATM   27  C   UNL     1     -40.085  54.490 -49.349  1.00  0.00     0.001 A 
HETATM   28  C   UNL     1     -40.207  54.659 -50.730  1.00  0.00     0.014 A 
ENDBRANCH  12  23
TORSDOF 3
ENDMDL
MODEL 6
REMARK VINA RESULT:      -7.5      1.900      2.594
REMARK  3 active torsions:
REMARK  status: ('A' for Active; 'I' for Inactive)
REMARK    1  A    between atoms: C_5  and  C_6 
REMARK    2  A    between atoms: C_10  and  N_11 
REMARK    3  A    between atoms: C_18  and  C_19 
ROOT
HETATM    1  C   UNL     1     -44.215  57.973 -52.718  1.00  0.00     0.106 A 
HETATM    2  C   UNL     1     -45.236  59.048 -52.331  1.00  0.00     0.081 A 
HETATM    3  C   UNL     1     -45.621  59.095 -50.959  1.00  0.00     0.100 C 
HETATM    4  N   UNL     1     -45.938  59.134 -49.844  1.00  0.00    -0.191 NA
HETATM    5  C   UNL     1     -45.795  59.897 -53.236  1.00  0.00     0.140 A 
HETATM    6  O   UNL     1     -45.471  59.847 -54.603  1.00  0.00    -0.279 OA
HETATM    7  C   UNL     1     -44.654  58.872 -54.979  1.00  0.00     0.175 A 
HETATM    8  C   UNL     1     -44.024  57.940 -54.196  1.00  0.00     0.040 A 
HETATM    9  N   UNL     1     -44.292  58.622 -56.260  1.00  0.00    -0.256 N 
HETATM   10  H   UNL     1     -44.569  59.115 -57.100  1.00  0.00     0.191 HD
HETATM   11  N   UNL     1     -43.463  57.568 -56.370  1.00  0.00    -0.172 NA
HETATM   12  C   UNL     1     -43.308  57.115 -55.109  1.00  0.00     0.099 A 
ENDROOT
BRANCH   1  13
HETATM   13  C   UNL     1     -42.845  58.226 -52.100  1.00  0.00    -0.044 A 
HETATM   14  C   UNL     1     -42.156  59.408 -52.418  1.00  0.00     0.009 A 
HETATM   15  C   UNL     1     -40.873  59.648 -51.915  1.00  0.00     0.007 A 
HETATM   16  C   UNL     1     -40.244  58.707 -51.095  1.00  0.00    -0.062 A 
HETATM   17  C   UNL     1     -38.880  58.977 -50.534  1.00  0.00     0.048 C 
HETATM   18  C   UNL     1     -40.928  57.534 -50.762  1.00  0.00     0.007 A 
HETATM   19  C   UNL     1     -42.207  57.290 -51.267  1.00  0.00     0.009 A 
ENDBRANCH   1  13
BRANCH   5  20
HETATM   20  N   UNL     1     -46.718  60.878 -52.947  1.00  0.00    -0.282 NA
HETATM   21  H   UNL     1     -47.538  60.899 -53.550  1.00  0.00     0.126 HD
HETATM   22  H   UNL     1     -46.951  60.904 -51.958  1.00  0.00     0.126 HD
ENDBRANCH   5  20
BRANCH  12  23
HETATM   23  C   UNL     1     -42.488  55.936 -54.838  1.00  0.00    -0.005 A 
HETATM   24  C   UNL     1     -41.104  56.076 -54.659  1.00  0.00     0.014 A 
HETATM   25  C   UNL     1     -40.303  54.959 -54.407  1.00  0.00     0.001 A 
HETATM   26  C   UNL     1     -40.879  53.691 -54.337  1.00  0.00     0.000 A 
HETATM   27  C   UNL     1     -42.252  53.540 -54.524  1.00  0.00     0.001 A 
HETATM   28  C   UNL     1     -43.052  54.656 -54.779  1.00  0.00     0.014 A 
ENDBRANCH  12  23
TORSDOF 3
ENDMDL
MODEL 7
REMARK VINA RESULT:      -7.4      1.988      5.055
REMARK  3 active torsions:
REMARK  status: ('A' for Active; 'I' for Inactive)
REMARK    1  A    between atoms: C_5  and  C_6 
REMARK    2  A    between atoms: C_10  and  N_11 
REMARK    3  A    between atoms: C_18  and  C_19 
ROOT
HETATM    1  C   UNL     1     -42.822  57.480 -55.820  1.00  0.00     0.106 A 
HETATM    2  C   UNL     1     -43.609  57.373 -57.130  1.00  0.00     0.081 A 
HETATM    3  C   UNL     1     -42.869  56.991 -58.287  1.00  0.00     0.100 C 
HETATM    4  N   UNL     1     -42.270  56.682 -59.231  1.00  0.00    -0.191 NA
HETATM    5  C   UNL     1     -44.936  57.666 -57.222  1.00  0.00     0.140 A 
HETATM    6  O   UNL     1     -45.684  58.090 -56.110  1.00  0.00    -0.279 OA
HETATM    7  C   UNL     1     -45.010  58.271 -54.982  1.00  0.00     0.175 A 
HETATM    8  C   UNL     1     -43.682  58.035 -54.736  1.00  0.00     0.040 A 
HETATM    9  N   UNL     1     -45.546  58.748 -53.833  1.00  0.00    -0.256 N 
HETATM   10  H   UNL     1     -46.503  59.026 -53.653  1.00  0.00     0.191 HD
HETATM   11  N   UNL     1     -44.644  58.848 -52.840  1.00  0.00    -0.172 NA
HETATM   12  C   UNL     1     -43.480  58.440 -53.387  1.00  0.00     0.099 A 
ENDROOT
BRANCH   1  13
HETATM   13  C   UNL     1     -42.317  56.127 -55.336  1.00  0.00    -0.044 A 
HETATM   14  C   UNL     1     -40.959  55.978 -55.008  1.00  0.00     0.009 A 
HETATM   15  C   UNL     1     -40.448  54.738 -54.614  1.00  0.00     0.007 A 
HETATM   16  C   UNL     1     -41.278  53.614 -54.553  1.00  0.00    -0.062 A 
HETATM   17  C   UNL     1     -40.735  52.290 -54.105  1.00  0.00     0.048 C 
HETATM   18  C   UNL     1     -42.633  53.756 -54.864  1.00  0.00     0.007 A 
HETATM   19  C   UNL     1     -43.145  54.993 -55.262  1.00  0.00     0.009 A 
ENDBRANCH   1  13
BRANCH   5  20
HETATM   20  N   UNL     1     -45.692  57.591 -58.371  1.00  0.00    -0.282 NA
HETATM   21  H   UNL     1     -45.270  57.074 -59.140  1.00  0.00     0.126 HD
HETATM   22  H   UNL     1     -46.649  57.309 -58.181  1.00  0.00     0.126 HD
ENDBRANCH   5  20
BRANCH  12  23
HETATM   23  C   UNL     1     -42.247  58.447 -52.601  1.00  0.00    -0.005 A 
HETATM   24  C   UNL     1     -42.207  57.797 -51.359  1.00  0.00     0.014 A 
HETATM   25  C   UNL     1     -41.040  57.800 -50.592  1.00  0.00     0.001 A 
HETATM   26  C   UNL     1     -39.903  58.458 -51.057  1.00  0.00     0.000 A 
HETATM   27  C   UNL     1     -39.935  59.117 -52.285  1.00  0.00     0.001 A 
HETATM   28  C   UNL     1     -41.103  59.116 -53.051  1.00  0.00     0.014 A 
ENDBRANCH  12  23
TORSDOF 3
ENDMDL
MODEL 8
REMARK VINA RESULT:      -7.2      1.659      5.059
REMARK  3 active torsions:
REMARK  status: ('A' for Active; 'I' for Inactive)
REMARK    1  A    between atoms: C_5  and  C_6 
REMARK    2  A    between atoms: C_10  and  N_11 
REMARK    3  A    between atoms: C_18  and  C_19 
ROOT
HETATM    1  C   UNL     1     -41.393  55.464 -53.332  1.00  0.00     0.106 A 
HETATM    2  C   UNL     1     -41.964  54.390 -54.261  1.00  0.00     0.081 A 
HETATM    3  C   UNL     1     -41.117  53.279 -54.546  1.00  0.00     0.100 C 
HETATM    4  N   UNL     1     -40.429  52.375 -54.782  1.00  0.00    -0.191 NA
HETATM    5  C   UNL     1     -43.195  54.486 -54.835  1.00  0.00     0.140 A 
HETATM    6  O   UNL     1     -44.037  55.589 -54.611  1.00  0.00    -0.279 OA
HETATM    7  C   UNL     1     -43.534  56.574 -53.877  1.00  0.00     0.175 A 
HETATM    8  C   UNL     1     -42.318  56.630 -53.247  1.00  0.00     0.040 A 
HETATM    9  N   UNL     1     -44.166  57.744 -53.621  1.00  0.00    -0.256 N 
HETATM   10  H   UNL     1     -45.084  58.044 -53.928  1.00  0.00     0.191 HD
HETATM   11  N   UNL     1     -43.432  58.577 -52.861  1.00  0.00    -0.172 NA
HETATM   12  C   UNL     1     -42.275  57.918 -52.644  1.00  0.00     0.099 A 
ENDROOT
BRANCH   1  13
HETATM   13  C   UNL     1     -41.193  54.954 -51.910  1.00  0.00    -0.044 A 
HETATM   14  C   UNL     1     -42.155  55.252 -50.931  1.00  0.00     0.009 A 
HETATM   15  C   UNL     1     -41.977  54.849 -49.604  1.00  0.00     0.007 A 
HETATM   16  C   UNL     1     -40.828  54.151 -49.222  1.00  0.00    -0.062 A 
HETATM   17  C   UNL     1     -40.651  53.695 -47.803  1.00  0.00     0.048 C 
HETATM   18  C   UNL     1     -39.872  53.837 -50.191  1.00  0.00     0.007 A 
HETATM   19  C   UNL     1     -40.044  54.244 -51.516  1.00  0.00     0.009 A 
ENDBRANCH   1  13
BRANCH   5  20
HETATM   20  N   UNL     1     -43.758  53.554 -55.679  1.00  0.00    -0.282 NA
HETATM   21  H   UNL     1     -43.299  52.645 -55.697  1.00  0.00     0.126 HD
HETATM   22  H   UNL     1     -44.765  53.489 -55.560  1.00  0.00     0.126 HD
ENDBRANCH   5  20
BRANCH  12  23
HETATM   23  C   UNL     1     -41.200  58.541 -51.873  1.00  0.00    -0.005 A 
HETATM   24  C   UNL     1     -39.931  58.702 -52.448  1.00  0.00     0.014 A 
HETATM   25  C   UNL     1     -38.891  59.288 -51.723  1.00  0.00     0.001 A 
HETATM   26  C   UNL     1     -39.109  59.714 -50.413  1.00  0.00     0.000 A 
HETATM   27  C   UNL     1     -40.364  59.549 -49.828  1.00  0.00     0.001 A 
HETATM   28  C   UNL     1     -41.403  58.960 -50.553  1.00  0.00     0.014 A 
ENDBRANCH  12  23
TORSDOF 3
ENDMDL
MODEL 9
REMARK VINA RESULT:      -7.2     16.148     18.520
REMARK  3 active torsions:
REMARK  status: ('A' for Active; 'I' for Inactive)
REMARK    1  A    between atoms: C_5  and  C_6 
REMARK    2  A    between atoms: C_10  and  N_11 
REMARK    3  A    between atoms: C_18  and  C_19 
ROOT
HETATM    1  C   UNL     1     -35.883  39.679 -53.110  1.00  0.00     0.106 A 
HETATM    2  C   UNL     1     -37.239  40.083 -52.523  1.00  0.00     0.081 A 
HETATM    3  C   UNL     1     -37.834  39.168 -51.607  1.00  0.00     0.100 C 
HETATM    4  N   UNL     1     -38.323  38.424 -50.863  1.00  0.00    -0.191 NA
HETATM    5  C   UNL     1     -37.885  41.229 -52.875  1.00  0.00     0.140 A 
HETATM    6  O   UNL     1     -37.347  42.130 -53.810  1.00  0.00    -0.279 OA
HETATM    7  C   UNL     1     -36.214  41.765 -54.395  1.00  0.00     0.175 A 
HETATM    8  C   UNL     1     -35.456  40.646 -54.160  1.00  0.00     0.040 A 
HETATM    9  N   UNL     1     -35.590  42.466 -55.372  1.00  0.00    -0.256 N 
HETATM   10  H   UNL     1     -35.871  43.343 -55.794  1.00  0.00     0.191 HD
HETATM   11  N   UNL     1     -34.465  41.869 -55.804  1.00  0.00    -0.172 NA
HETATM   12  C   UNL     1     -34.380  40.729 -55.087  1.00  0.00     0.099 A 
ENDROOT
BRANCH   1  13
HETATM   13  C   UNL     1     -34.781  39.654 -52.057  1.00  0.00    -0.044 A 
HETATM   14  C   UNL     1     -34.489  40.826 -51.341  1.00  0.00     0.009 A 
HETATM   15  C   UNL     1     -33.448  40.856 -50.408  1.00  0.00     0.007 A 
HETATM   16  C   UNL     1     -32.666  39.720 -50.179  1.00  0.00    -0.062 A 
HETATM   17  C   UNL     1     -31.566  39.745 -49.159  1.00  0.00     0.048 C 
HETATM   18  C   UNL     1     -32.958  38.545 -50.878  1.00  0.00     0.007 A 
HETATM   19  C   UNL     1     -33.994  38.514 -51.814  1.00  0.00     0.009 A 
ENDBRANCH   1  13
BRANCH   5  20
HETATM   20  N   UNL     1     -39.105  41.641 -52.385  1.00  0.00    -0.282 NA
HETATM   21  H   UNL     1     -39.579  42.354 -52.935  1.00  0.00     0.126 HD
HETATM   22  H   UNL     1     -39.705  40.857 -52.146  1.00  0.00     0.126 HD
ENDBRANCH   5  20
BRANCH  12  23
HETATM   23  C   UNL     1     -33.283  39.790 -55.313  1.00  0.00    -0.005 A 
HETATM   24  C   UNL     1     -33.447  38.729 -56.216  1.00  0.00     0.014 A 
HETATM   25  C   UNL     1     -32.411  37.819 -56.439  1.00  0.00     0.001 A 
HETATM   26  C   UNL     1     -31.204  37.957 -55.757  1.00  0.00     0.000 A 
HETATM   27  C   UNL     1     -31.034  39.001 -54.849  1.00  0.00     0.001 A 
HETATM   28  C   UNL     1     -32.070  39.911 -54.625  1.00  0.00     0.014 A 
ENDBRANCH  12  23
TORSDOF 3
ENDMDL
MODEL 10
REMARK VINA RESULT:      -7.1     16.690     19.124
REMARK  3 active torsions:
REMARK  status: ('A' for Active; 'I' for Inactive)
REMARK    1  A    between atoms: C_5  and  C_6 
REMARK    2  A    between atoms: C_10  and  N_11 
REMARK    3  A    between atoms: C_18  and  C_19 
ROOT
HETATM    1  C   UNL     1     -33.921  39.200 -54.947  1.00  0.00     0.106 A 
HETATM    2  C   UNL     1     -32.615  38.748 -55.609  1.00  0.00     0.081 A 
HETATM    3  C   UNL     1     -32.735  37.826 -56.689  1.00  0.00     0.100 C 
HETATM    4  N   UNL     1     -32.829  37.074 -57.568  1.00  0.00    -0.191 NA
HETATM    5  C   UNL     1     -31.389  39.155 -55.179  1.00  0.00     0.140 A 
HETATM    6  O   UNL     1     -31.235  40.027 -54.088  1.00  0.00    -0.279 OA
HETATM    7  C   UNL     1     -32.344  40.368 -53.444  1.00  0.00     0.175 A 
HETATM    8  C   UNL     1     -33.639  40.034 -53.745  1.00  0.00     0.040 A 
HETATM    9  N   UNL     1     -32.383  41.135 -52.329  1.00  0.00    -0.256 N 
HETATM   10  H   UNL     1     -31.609  41.557 -51.828  1.00  0.00     0.191 HD
HETATM   11  N   UNL     1     -33.632  41.321 -51.868  1.00  0.00    -0.172 NA
HETATM   12  C   UNL     1     -34.421  40.624 -52.712  1.00  0.00     0.099 A 
ENDROOT
BRANCH   1  13
HETATM   13  C   UNL     1     -34.780  40.045 -55.880  1.00  0.00    -0.044 A 
HETATM   14  C   UNL     1     -36.035  39.560 -56.286  1.00  0.00     0.009 A 
HETATM   15  C   UNL     1     -36.826  40.282 -57.185  1.00  0.00     0.007 A 
HETATM   16  C   UNL     1     -36.377  41.496 -57.711  1.00  0.00    -0.062 A 
HETATM   17  C   UNL     1     -37.238  42.282 -58.655  1.00  0.00     0.048 C 
HETATM   18  C   UNL     1     -35.136  41.993 -57.302  1.00  0.00     0.007 A 
HETATM   19  C   UNL     1     -34.341  41.272 -56.408  1.00  0.00     0.009 A 
ENDBRANCH   1  13
BRANCH   5  20
HETATM   20  N   UNL     1     -30.184  38.780 -55.731  1.00  0.00    -0.282 NA
HETATM   21  H   UNL     1     -30.058  39.023 -56.712  1.00  0.00     0.126 HD
HETATM   22  H   UNL     1     -29.396  39.050 -55.149  1.00  0.00     0.126 HD
ENDBRANCH   5  20
BRANCH  12  23
HETATM   23  C   UNL     1     -35.865  40.564 -52.501  1.00  0.00    -0.005 A 
HETATM   24  C   UNL     1     -36.410  39.567 -51.679  1.00  0.00     0.014 A 
HETATM   25  C   UNL     1     -37.789  39.491 -51.471  1.00  0.00     0.001 A 
HETATM   26  C   UNL     1     -38.638  40.408 -52.088  1.00  0.00     0.000 A 
HETATM   27  C   UNL     1     -38.108  41.398 -52.916  1.00  0.00     0.001 A 
HETATM   28  C   UNL     1     -36.729  41.472 -53.125  1.00  0.00     0.014 A 
ENDBRANCH  12  23
TORSDOF 3
ENDMDL
