MODEL 1
REMARK VINA RESULT:      -8.9      0.000      0.000
REMARK  5 active torsions:
REMARK  status: ('A' for Active; 'I' for Inactive)
REMARK    1  A    between atoms: C_2  and  C_3 
REMARK    2  A    between atoms: C_8  and  C_9 
REMARK       I    between atoms: C_9  and  N_10 
REMARK    3  A    between atoms: N_10  and  C_11 
REMARK    4  A    between atoms: C_11  and  C_12 
REMARK    5  A    between atoms: C_19  and  C_20 
ROOT
HETATM    1  C   UNL     1     -42.255  54.960 -51.716  1.00  0.00     0.118 C 
HETATM    2  N   UNL     1     -43.476  55.334 -52.422  1.00  0.00    -0.366 N 
HETATM    3  C   UNL     1     -43.458  56.304 -53.364  1.00  0.00     0.123 C 
HETATM    4  N   UNL     1     -42.397  57.161 -53.499  1.00  0.00    -0.240 N 
HETATM    5  N   UNL     1     -42.464  57.917 -54.609  1.00  0.00    -0.165 NA
HETATM    6  C   UNL     1     -43.679  57.627 -55.127  1.00  0.00     0.148 C 
HETATM    7  C   UNL     1     -44.342  56.635 -54.356  1.00  0.00     0.088 C 
HETATM    8  C   UNL     1     -41.182  57.079 -52.708  1.00  0.00     0.221 C 
HETATM    9  C   UNL     1     -41.386  56.198 -51.460  1.00  0.00     0.066 C 
HETATM   10  H   UNL     1     -44.163  54.584 -52.497  1.00  0.00     0.161 HD
ENDROOT
BRANCH   6  11
HETATM   11  C   UNL     1     -44.170  58.244 -56.369  1.00  0.00     0.272 C 
HETATM   12  N   UNL     1     -44.929  57.394 -57.138  1.00  0.00    -0.353 N 
HETATM   13  H   UNL     1     -44.918  56.417 -56.855  1.00  0.00     0.162 HD
HETATM   14  O   UNL     1     -43.934  59.408 -56.676  1.00  0.00    -0.266 OA
BRANCH  12  15
HETATM   15  C   UNL     1     -45.454  57.762 -58.434  1.00  0.00     0.155 C 
BRANCH  15  16
HETATM   16  C   UNL     1     -44.873  56.912 -59.565  1.00  0.00     0.139 C 
HETATM   17  O   UNL     1     -44.130  55.798 -59.030  1.00  0.00    -0.384 OA
HETATM   18  C   UNL     1     -44.254  54.697 -59.941  1.00  0.00     0.168 C 
HETATM   19  C   UNL     1     -45.201  55.121 -61.047  1.00  0.00     0.029 C 
HETATM   20  C   UNL     1     -45.945  56.281 -60.434  1.00  0.00     0.035 C 
ENDBRANCH  15  16
ENDBRANCH  12  15
ENDBRANCH   6  11
BRANCH   8  21
HETATM   21  C   UNL     1     -40.707  58.453 -52.285  1.00  0.00     0.409 C 
HETATM   22  F   UNL     1     -41.732  59.301 -52.042  1.00  0.00    -0.169 F 
HETATM   23  F   UNL     1     -40.003  58.355 -51.123  1.00  0.00    -0.169 F 
HETATM   24  F   UNL     1     -39.879  59.035 -53.176  1.00  0.00    -0.169 F 
ENDBRANCH   8  21
BRANCH   1  25
HETATM   25  C   UNL     1     -41.530  53.809 -52.399  1.00  0.00    -0.035 A 
HETATM   26  C   UNL     1     -41.785  53.422 -53.726  1.00  0.00     0.011 A 
HETATM   27  C   UNL     1     -41.094  52.357 -54.313  1.00  0.00     0.024 A 
HETATM   28  C   UNL     1     -40.142  51.661 -53.579  1.00  0.00     0.034 A 
HETATM   29  C   UNL     1     -39.870  52.022 -52.263  1.00  0.00     0.024 A 
HETATM   30 CL   UNL     1     -39.299  50.344 -54.297  1.00  0.00    -0.084 Cl
HETATM   31  C   UNL     1     -40.557  53.091 -51.679  1.00  0.00     0.011 A 
ENDBRANCH   1  25
TORSDOF 5
ENDMDL
MODEL 2
REMARK VINA RESULT:      -8.7      0.806      1.266
REMARK  5 active torsions:
REMARK  status: ('A' for Active; 'I' for Inactive)
REMARK    1  A    between atoms: C_2  and  C_3 
REMARK    2  A    between atoms: C_8  and  C_9 
REMARK       I    between atoms: C_9  and  N_10 
REMARK    3  A    between atoms: N_10  and  C_11 
REMARK    4  A    between atoms: C_11  and  C_12 
REMARK    5  A    between atoms: C_19  and  C_20 
ROOT
HETATM    1  C   UNL     1     -42.385  54.963 -52.074  1.00  0.00     0.118 C 
HETATM    2  N   UNL     1     -43.452  55.338 -52.996  1.00  0.00    -0.366 N 
HETATM    3  C   UNL     1     -43.246  56.282 -53.942  1.00  0.00     0.123 C 
HETATM    4  N   UNL     1     -42.160  57.117 -53.904  1.00  0.00    -0.240 N 
HETATM    5  N   UNL     1     -42.012  57.845 -55.026  1.00  0.00    -0.165 NA
HETATM    6  C   UNL     1     -43.121  57.561 -55.746  1.00  0.00     0.148 C 
HETATM    7  C   UNL     1     -43.931  56.601 -55.083  1.00  0.00     0.088 C 
HETATM    8  C   UNL     1     -41.107  57.037 -52.907  1.00  0.00     0.221 C 
HETATM    9  C   UNL     1     -41.550  56.193 -51.696  1.00  0.00     0.066 C 
HETATM   10  H   UNL     1     -44.129  54.597 -53.175  1.00  0.00     0.161 HD
ENDROOT
BRANCH   6  11
HETATM   11  C   UNL     1     -43.369  58.153 -57.070  1.00  0.00     0.272 C 
HETATM   12  N   UNL     1     -42.881  57.394 -58.107  1.00  0.00    -0.353 N 
HETATM   13  H   UNL     1     -42.271  56.625 -57.841  1.00  0.00     0.162 HD
HETATM   14  O   UNL     1     -43.968  59.212 -57.227  1.00  0.00    -0.266 OA
BRANCH  12  15
HETATM   15  C   UNL     1     -42.946  57.815 -59.489  1.00  0.00     0.155 C 
BRANCH  15  16
HETATM   16  C   UNL     1     -43.846  56.914 -60.335  1.00  0.00     0.139 C 
HETATM   17  O   UNL     1     -43.489  55.529 -60.155  1.00  0.00    -0.384 OA
HETATM   18  C   UNL     1     -44.679  54.739 -60.286  1.00  0.00     0.168 C 
HETATM   19  C   UNL     1     -45.846  55.691 -60.460  1.00  0.00     0.029 C 
HETATM   20  C   UNL     1     -45.306  56.995 -59.927  1.00  0.00     0.035 C 
ENDBRANCH  15  16
ENDBRANCH  12  15
ENDBRANCH   6  11
BRANCH   8  21
HETATM   21  C   UNL     1     -40.688  58.413 -52.438  1.00  0.00     0.409 C 
HETATM   22  F   UNL     1     -41.733  59.267 -52.343  1.00  0.00    -0.169 F 
HETATM   23  F   UNL     1     -40.147  58.325 -51.191  1.00  0.00    -0.169 F 
HETATM   24  F   UNL     1     -39.744  58.984 -53.215  1.00  0.00    -0.169 F 
ENDBRANCH   8  21
BRANCH   1  25
HETATM   25  C   UNL     1     -41.573  53.782 -52.590  1.00  0.00    -0.035 A 
HETATM   26  C   UNL     1     -40.602  53.123 -51.816  1.00  0.00     0.011 A 
HETATM   27  C   UNL     1     -39.881  52.042 -52.332  1.00  0.00     0.024 A 
HETATM   28  C   UNL     1     -40.116  51.608 -53.631  1.00  0.00     0.034 A 
HETATM   29  C   UNL     1     -41.071  52.243 -54.419  1.00  0.00     0.024 A 
HETATM   30 CL   UNL     1     -39.221  50.285 -54.269  1.00  0.00    -0.084 Cl
HETATM   31  C   UNL     1     -41.797  53.320 -53.900  1.00  0.00     0.011 A 
ENDBRANCH   1  25
TORSDOF 5
ENDMDL
MODEL 3
REMARK VINA RESULT:      -8.1      1.681      2.666
REMARK  5 active torsions:
REMARK  status: ('A' for Active; 'I' for Inactive)
REMARK    1  A    between atoms: C_2  and  C_3 
REMARK    2  A    between atoms: C_8  and  C_9 
REMARK       I    between atoms: C_9  and  N_10 
REMARK    3  A    between atoms: N_10  and  C_11 
REMARK    4  A    between atoms: C_11  and  C_12 
REMARK    5  A    between atoms: C_19  and  C_20 
ROOT
HETATM    1  C   UNL     1     -42.225  54.880 -51.717  1.00  0.00     0.118 C 
HETATM    2  N   UNL     1     -43.462  55.226 -52.409  1.00  0.00    -0.366 N 
HETATM    3  C   UNL     1     -43.476  56.189 -53.358  1.00  0.00     0.123 C 
HETATM    4  N   UNL     1     -42.433  57.064 -53.514  1.00  0.00    -0.240 N 
HETATM    5  N   UNL     1     -42.529  57.811 -54.629  1.00  0.00    -0.165 NA
HETATM    6  C   UNL     1     -43.747  57.495 -55.127  1.00  0.00     0.148 C 
HETATM    7  C   UNL     1     -44.380  56.496 -54.339  1.00  0.00     0.088 C 
HETATM    8  C   UNL     1     -41.205  57.011 -52.741  1.00  0.00     0.221 C 
HETATM    9  C   UNL     1     -41.376  56.136 -51.483  1.00  0.00     0.066 C 
HETATM   10  H   UNL     1     -44.136  54.463 -52.468  1.00  0.00     0.161 HD
ENDROOT
BRANCH   6  11
HETATM   11  C   UNL     1     -44.266  58.093 -56.366  1.00  0.00     0.272 C 
HETATM   12  N   UNL     1     -43.414  57.958 -57.437  1.00  0.00    -0.353 N 
HETATM   13  H   UNL     1     -42.479  57.627 -57.215  1.00  0.00     0.162 HD
HETATM   14  O   UNL     1     -45.361  58.643 -56.436  1.00  0.00    -0.266 OA
BRANCH  12  15
HETATM   15  C   UNL     1     -43.686  58.533 -58.736  1.00  0.00     0.155 C 
BRANCH  15  16
HETATM   16  C   UNL     1     -42.799  59.741 -59.039  1.00  0.00     0.139 C 
HETATM   17  O   UNL     1     -43.543  60.967 -58.884  1.00  0.00    -0.384 OA
HETATM   18  C   UNL     1     -42.640  61.985 -58.432  1.00  0.00     0.168 C 
HETATM   19  C   UNL     1     -41.290  61.333 -58.203  1.00  0.00     0.029 C 
HETATM   20  C   UNL     1     -41.634  59.870 -58.075  1.00  0.00     0.035 C 
ENDBRANCH  15  16
ENDBRANCH  12  15
ENDBRANCH   6  11
BRANCH   8  21
HETATM   21  C   UNL     1     -40.750  58.397 -52.334  1.00  0.00     0.409 C 
HETATM   22  F   UNL     1     -41.787  59.245 -52.143  1.00  0.00    -0.169 F 
HETATM   23  F   UNL     1     -40.084  58.329 -51.148  1.00  0.00    -0.169 F 
HETATM   24  F   UNL     1     -39.896  58.963 -53.211  1.00  0.00    -0.169 F 
ENDBRANCH   8  21
BRANCH   1  25
HETATM   25  C   UNL     1     -41.488  53.738 -52.402  1.00  0.00    -0.035 A 
HETATM   26  C   UNL     1     -41.706  53.380 -53.744  1.00  0.00     0.011 A 
HETATM   27  C   UNL     1     -41.006  52.322 -54.332  1.00  0.00     0.024 A 
HETATM   28  C   UNL     1     -40.081  51.603 -53.585  1.00  0.00     0.034 A 
HETATM   29  C   UNL     1     -39.846  51.934 -52.254  1.00  0.00     0.024 A 
HETATM   30 CL   UNL     1     -39.227  50.295 -54.304  1.00  0.00    -0.084 Cl
HETATM   31  C   UNL     1     -40.543  52.997 -51.669  1.00  0.00     0.011 A 
ENDBRANCH   1  25
TORSDOF 5
ENDMDL
MODEL 4
REMARK VINA RESULT:      -7.8      3.583      7.081
REMARK  5 active torsions:
REMARK  status: ('A' for Active; 'I' for Inactive)
REMARK    1  A    between atoms: C_2  and  C_3 
REMARK    2  A    between atoms: C_8  and  C_9 
REMARK       I    between atoms: C_9  and  N_10 
REMARK    3  A    between atoms: N_10  and  C_11 
REMARK    4  A    between atoms: C_11  and  C_12 
REMARK    5  A    between atoms: C_19  and  C_20 
ROOT
HETATM    1  C   UNL     1     -42.710  58.750 -55.225  1.00  0.00     0.118 C 
HETATM    2  N   UNL     1     -41.588  58.118 -54.541  1.00  0.00    -0.366 N 
HETATM    3  C   UNL     1     -41.797  57.287 -53.494  1.00  0.00     0.123 C 
HETATM    4  N   UNL     1     -43.007  57.223 -52.854  1.00  0.00    -0.240 N 
HETATM    5  N   UNL     1     -43.091  56.204 -51.981  1.00  0.00    -0.165 NA
HETATM    6  C   UNL     1     -41.841  55.686 -51.964  1.00  0.00     0.148 C 
HETATM    7  C   UNL     1     -40.995  56.359 -52.886  1.00  0.00     0.088 C 
HETATM    8  C   UNL     1     -44.183  57.971 -53.262  1.00  0.00     0.221 C 
HETATM    9  C   UNL     1     -43.808  59.119 -54.220  1.00  0.00     0.066 C 
HETATM   10  H   UNL     1     -40.765  57.977 -55.127  1.00  0.00     0.161 HD
ENDROOT
BRANCH   6  11
HETATM   11  C   UNL     1     -41.482  54.531 -51.128  1.00  0.00     0.272 C 
HETATM   12  N   UNL     1     -40.452  53.781 -51.645  1.00  0.00    -0.353 N 
HETATM   13  H   UNL     1     -40.184  54.003 -52.601  1.00  0.00     0.162 HD
HETATM   14  O   UNL     1     -42.039  54.275 -50.065  1.00  0.00    -0.266 OA
BRANCH  12  15
HETATM   15  C   UNL     1     -39.981  52.560 -51.030  1.00  0.00     0.155 C 
BRANCH  15  16
HETATM   16  C   UNL     1     -39.339  51.605 -52.039  1.00  0.00     0.139 C 
HETATM   17  O   UNL     1     -39.530  50.235 -51.631  1.00  0.00    -0.384 OA
HETATM   18  C   UNL     1     -39.634  49.427 -52.811  1.00  0.00     0.168 C 
HETATM   19  C   UNL     1     -39.604  50.357 -54.009  1.00  0.00     0.029 C 
HETATM   20  C   UNL     1     -39.974  51.692 -53.414  1.00  0.00     0.035 C 
ENDBRANCH  15  16
ENDBRANCH  12  15
ENDBRANCH   6  11
BRANCH   8  21
HETATM   21  C   UNL     1     -44.921  58.530 -52.066  1.00  0.00     0.409 C 
HETATM   22  F   UNL     1     -44.093  59.140 -51.186  1.00  0.00    -0.169 F 
HETATM   23  F   UNL     1     -45.809  59.477 -52.479  1.00  0.00    -0.169 F 
HETATM   24  F   UNL     1     -45.643  57.608 -51.397  1.00  0.00    -0.169 F 
ENDBRANCH   8  21
BRANCH   1  25
HETATM   25  C   UNL     1     -43.191  57.928 -56.413  1.00  0.00    -0.035 A 
HETATM   26  C   UNL     1     -42.647  56.677 -56.750  1.00  0.00     0.011 A 
HETATM   27  C   UNL     1     -43.121  55.956 -57.851  1.00  0.00     0.024 A 
HETATM   28  C   UNL     1     -44.143  56.480 -58.634  1.00  0.00     0.034 A 
HETATM   29  C   UNL     1     -44.699  57.718 -58.325  1.00  0.00     0.024 A 
HETATM   30 CL   UNL     1     -44.718  55.600 -59.995  1.00  0.00    -0.084 Cl
HETATM   31  C   UNL     1     -44.228  58.434 -57.219  1.00  0.00     0.011 A 
ENDBRANCH   1  25
TORSDOF 5
ENDMDL
MODEL 5
REMARK VINA RESULT:      -7.7      1.828      2.043
REMARK  5 active torsions:
REMARK  status: ('A' for Active; 'I' for Inactive)
REMARK    1  A    between atoms: C_2  and  C_3 
REMARK    2  A    between atoms: C_8  and  C_9 
REMARK       I    between atoms: C_9  and  N_10 
REMARK    3  A    between atoms: N_10  and  C_11 
REMARK    4  A    between atoms: C_11  and  C_12 
REMARK    5  A    between atoms: C_19  and  C_20 
ROOT
HETATM    1  C   UNL     1     -42.727  55.257 -51.108  1.00  0.00     0.118 C 
HETATM    2  N   UNL     1     -43.856  55.702 -51.917  1.00  0.00    -0.366 N 
HETATM    3  C   UNL     1     -43.751  56.795 -52.707  1.00  0.00     0.123 C 
HETATM    4  N   UNL     1     -42.714  57.682 -52.576  1.00  0.00    -0.240 N 
HETATM    5  N   UNL     1     -42.661  58.585 -53.572  1.00  0.00    -0.165 NA
HETATM    6  C   UNL     1     -43.785  58.348 -54.286  1.00  0.00     0.148 C 
HETATM    7  C   UNL     1     -44.506  57.245 -53.756  1.00  0.00     0.088 C 
HETATM    8  C   UNL     1     -41.613  57.514 -51.645  1.00  0.00     0.221 C 
HETATM    9  C   UNL     1     -41.948  56.463 -50.569  1.00  0.00     0.066 C 
HETATM   10  H   UNL     1     -44.498  54.957 -52.187  1.00  0.00     0.161 HD
ENDROOT
BRANCH   6  11
HETATM   11  C   UNL     1     -44.129  59.123 -55.488  1.00  0.00     0.272 C 
HETATM   12  N   UNL     1     -44.123  58.374 -56.641  1.00  0.00    -0.353 N 
HETATM   13  H   UNL     1     -43.724  57.443 -56.558  1.00  0.00     0.162 HD
HETATM   14  O   UNL     1     -44.409  60.317 -55.456  1.00  0.00    -0.266 OA
BRANCH  12  15
HETATM   15  C   UNL     1     -44.359  58.943 -57.950  1.00  0.00     0.155 C 
BRANCH  15  16
HETATM   16  C   UNL     1     -43.072  59.106 -58.759  1.00  0.00     0.139 C 
HETATM   17  O   UNL     1     -42.419  57.832 -58.933  1.00  0.00    -0.384 OA
HETATM   18  C   UNL     1     -41.745  57.844 -60.199  1.00  0.00     0.168 C 
HETATM   19  C   UNL     1     -42.078  59.155 -60.885  1.00  0.00     0.029 C 
HETATM   20  C   UNL     1     -43.325  59.608 -60.168  1.00  0.00     0.035 C 
ENDBRANCH  15  16
ENDBRANCH  12  15
ENDBRANCH   6  11
BRANCH   8  21
HETATM   21  C   UNL     1     -41.252  58.824 -50.978  1.00  0.00     0.409 C 
HETATM   22  F   UNL     1     -40.694  58.645 -49.758  1.00  0.00    -0.169 F 
HETATM   23  F   UNL     1     -40.328  59.481 -51.732  1.00  0.00    -0.169 F 
HETATM   24  F   UNL     1     -42.295  59.668 -50.846  1.00  0.00    -0.169 F 
ENDBRANCH   8  21
BRANCH   1  25
HETATM   25  C   UNL     1     -41.874  54.227 -51.836  1.00  0.00    -0.035 A 
HETATM   26  C   UNL     1     -42.067  53.888 -53.186  1.00  0.00     0.011 A 
HETATM   27  C   UNL     1     -41.258  52.935 -53.814  1.00  0.00     0.024 A 
HETATM   28  C   UNL     1     -40.248  52.304 -53.098  1.00  0.00     0.034 A 
HETATM   29  C   UNL     1     -40.036  52.619 -51.760  1.00  0.00     0.024 A 
HETATM   30 CL   UNL     1     -39.260  51.124 -53.867  1.00  0.00    -0.084 Cl
HETATM   31  C   UNL     1     -40.841  53.577 -51.134  1.00  0.00     0.011 A 
ENDBRANCH   1  25
TORSDOF 5
ENDMDL
MODEL 6
REMARK VINA RESULT:      -7.7     16.102     18.873
REMARK  5 active torsions:
REMARK  status: ('A' for Active; 'I' for Inactive)
REMARK    1  A    between atoms: C_2  and  C_3 
REMARK    2  A    between atoms: C_8  and  C_9 
REMARK       I    between atoms: C_9  and  N_10 
REMARK    3  A    between atoms: N_10  and  C_11 
REMARK    4  A    between atoms: C_11  and  C_12 
REMARK    5  A    between atoms: C_19  and  C_20 
ROOT
HETATM    1  C   UNL     1     -37.263  41.980 -57.467  1.00  0.00     0.118 C 
HETATM    2  N   UNL     1     -35.837  42.214 -57.268  1.00  0.00    -0.366 N 
HETATM    3  C   UNL     1     -35.165  41.582 -56.279  1.00  0.00     0.123 C 
HETATM    4  N   UNL     1     -35.818  40.933 -55.264  1.00  0.00    -0.240 N 
HETATM    5  N   UNL     1     -34.999  40.194 -54.494  1.00  0.00    -0.165 NA
HETATM    6  C   UNL     1     -33.763  40.493 -54.955  1.00  0.00     0.148 C 
HETATM    7  C   UNL     1     -33.829  41.382 -56.061  1.00  0.00     0.088 C 
HETATM    8  C   UNL     1     -37.262  40.803 -55.177  1.00  0.00     0.221 C 
HETATM    9  C   UNL     1     -37.968  41.800 -56.117  1.00  0.00     0.066 C 
HETATM   10  H   UNL     1     -35.335  42.484 -58.114  1.00  0.00     0.161 HD
ENDROOT
BRANCH   6  11
HETATM   11  C   UNL     1     -32.547  39.892 -54.385  1.00  0.00     0.272 C 
HETATM   12  N   UNL     1     -32.776  39.193 -53.224  1.00  0.00    -0.353 N 
HETATM   13  H   UNL     1     -33.697  39.315 -52.811  1.00  0.00     0.162 HD
HETATM   14  O   UNL     1     -31.442  39.995 -54.909  1.00  0.00    -0.266 OA
BRANCH  12  15
HETATM   15  C   UNL     1     -31.716  38.582 -52.452  1.00  0.00     0.155 C 
BRANCH  15  16
HETATM   16  C   UNL     1     -32.088  38.412 -50.978  1.00  0.00     0.139 C 
HETATM   17  O   UNL     1     -31.389  39.377 -50.165  1.00  0.00    -0.384 OA
HETATM   18  C   UNL     1     -32.228  39.716 -49.052  1.00  0.00     0.168 C 
HETATM   19  C   UNL     1     -33.551  38.998 -49.238  1.00  0.00     0.029 C 
HETATM   20  C   UNL     1     -33.559  38.672 -50.711  1.00  0.00     0.035 C 
ENDBRANCH  15  16
ENDBRANCH  12  15
ENDBRANCH   6  11
BRANCH   8  21
HETATM   21  C   UNL     1     -37.749  41.011 -53.760  1.00  0.00     0.409 C 
HETATM   22  F   UNL     1     -37.156  42.068 -53.159  1.00  0.00    -0.169 F 
HETATM   23  F   UNL     1     -39.086  41.274 -53.771  1.00  0.00    -0.169 F 
HETATM   24  F   UNL     1     -37.588  39.930 -52.970  1.00  0.00    -0.169 F 
ENDBRANCH   8  21
BRANCH   1  25
HETATM   25  C   UNL     1     -37.524  40.864 -58.470  1.00  0.00    -0.035 A 
HETATM   26  C   UNL     1     -38.101  39.633 -58.114  1.00  0.00     0.011 A 
HETATM   27  C   UNL     1     -38.322  38.636 -59.070  1.00  0.00     0.024 A 
HETATM   28  C   UNL     1     -37.964  38.855 -60.394  1.00  0.00     0.034 A 
HETATM   29  C   UNL     1     -37.389  40.064 -60.774  1.00  0.00     0.024 A 
HETATM   30 CL   UNL     1     -38.225  37.625 -61.568  1.00  0.00    -0.084 Cl
HETATM   31  C   UNL     1     -37.175  41.063 -59.819  1.00  0.00     0.011 A 
ENDBRANCH   1  25
TORSDOF 5
ENDMDL
MODEL 7
REMARK VINA RESULT:      -7.6      1.404      1.920
REMARK  5 active torsions:
REMARK  status: ('A' for Active; 'I' for Inactive)
REMARK    1  A    between atoms: C_2  and  C_3 
REMARK    2  A    between atoms: C_8  and  C_9 
REMARK       I    between atoms: C_9  and  N_10 
REMARK    3  A    between atoms: N_10  and  C_11 
REMARK    4  A    between atoms: C_11  and  C_12 
REMARK    5  A    between atoms: C_19  and  C_20 
ROOT
HETATM    1  C   UNL     1     -42.368  54.975 -52.038  1.00  0.00     0.118 C 
HETATM    2  N   UNL     1     -43.450  55.364 -52.936  1.00  0.00    -0.366 N 
HETATM    3  C   UNL     1     -43.259  56.318 -53.875  1.00  0.00     0.123 C 
HETATM    4  N   UNL     1     -42.170  57.149 -53.847  1.00  0.00    -0.240 N 
HETATM    5  N   UNL     1     -42.040  57.889 -54.963  1.00  0.00    -0.165 NA
HETATM    6  C   UNL     1     -43.163  57.618 -55.666  1.00  0.00     0.148 C 
HETATM    7  C   UNL     1     -43.964  56.652 -54.999  1.00  0.00     0.088 C 
HETATM    8  C   UNL     1     -41.099  57.054 -52.871  1.00  0.00     0.221 C 
HETATM    9  C   UNL     1     -41.522  56.198 -51.662  1.00  0.00     0.066 C 
HETATM   10  H   UNL     1     -44.134  54.627 -53.111  1.00  0.00     0.161 HD
ENDROOT
BRANCH   6  11
HETATM   11  C   UNL     1     -43.433  58.225 -56.978  1.00  0.00     0.272 C 
HETATM   12  N   UNL     1     -44.460  59.139 -56.955  1.00  0.00    -0.353 N 
HETATM   13  H   UNL     1     -45.012  59.160 -56.101  1.00  0.00     0.162 HD
HETATM   14  O   UNL     1     -42.792  57.951 -57.987  1.00  0.00    -0.266 OA
BRANCH  12  15
HETATM   15  C   UNL     1     -44.947  59.805 -58.143  1.00  0.00     0.155 C 
BRANCH  15  16
HETATM   16  C   UNL     1     -46.182  59.123 -58.733  1.00  0.00     0.139 C 
HETATM   17  O   UNL     1     -47.150  60.104 -59.156  1.00  0.00    -0.384 OA
HETATM   18  C   UNL     1     -47.852  59.581 -60.292  1.00  0.00     0.168 C 
HETATM   19  C   UNL     1     -47.220  58.249 -60.648  1.00  0.00     0.029 C 
HETATM   20  C   UNL     1     -45.869  58.323 -59.984  1.00  0.00     0.035 C 
ENDBRANCH  15  16
ENDBRANCH  12  15
ENDBRANCH   6  11
BRANCH   8  21
HETATM   21  C   UNL     1     -40.666  58.424 -52.394  1.00  0.00     0.409 C 
HETATM   22  F   UNL     1     -41.706  59.282 -52.275  1.00  0.00    -0.169 F 
HETATM   23  F   UNL     1     -40.108  58.320 -51.156  1.00  0.00    -0.169 F 
HETATM   24  F   UNL     1     -39.731  58.998 -53.178  1.00  0.00    -0.169 F 
ENDBRANCH   8  21
BRANCH   1  25
HETATM   25  C   UNL     1     -41.570  53.797 -52.582  1.00  0.00    -0.035 A 
HETATM   26  C   UNL     1     -41.724  53.306 -53.890  1.00  0.00     0.011 A 
HETATM   27  C   UNL     1     -40.969  52.222 -54.347  1.00  0.00     0.024 A 
HETATM   28  C   UNL     1     -40.053  51.609 -53.500  1.00  0.00     0.034 A 
HETATM   29  C   UNL     1     -39.881  52.074 -52.200  1.00  0.00     0.024 A 
HETATM   30 CL   UNL     1     -39.132  50.268 -54.058  1.00  0.00    -0.084 Cl
HETATM   31  C   UNL     1     -40.633  53.163 -51.746  1.00  0.00     0.011 A 
ENDBRANCH   1  25
TORSDOF 5
ENDMDL
MODEL 8
REMARK VINA RESULT:      -7.6      3.246      4.006
REMARK  5 active torsions:
REMARK  status: ('A' for Active; 'I' for Inactive)
REMARK    1  A    between atoms: C_2  and  C_3 
REMARK    2  A    between atoms: C_8  and  C_9 
REMARK       I    between atoms: C_9  and  N_10 
REMARK    3  A    between atoms: N_10  and  C_11 
REMARK    4  A    between atoms: C_11  and  C_12 
REMARK    5  A    between atoms: C_19  and  C_20 
ROOT
HETATM    1  C   UNL     1     -43.570  55.566 -53.600  1.00  0.00     0.118 C 
HETATM    2  N   UNL     1     -44.035  55.727 -54.973  1.00  0.00    -0.366 N 
HETATM    3  C   UNL     1     -43.479  56.654 -55.786  1.00  0.00     0.123 C 
HETATM    4  N   UNL     1     -42.679  57.655 -55.299  1.00  0.00    -0.240 N 
HETATM    5  N   UNL     1     -42.055  58.351 -56.265  1.00  0.00    -0.165 NA
HETATM    6  C   UNL     1     -42.583  57.864 -57.411  1.00  0.00     0.148 C 
HETATM    7  C   UNL     1     -43.500  56.812 -57.146  1.00  0.00     0.088 C 
HETATM    8  C   UNL     1     -42.300  57.785 -53.903  1.00  0.00     0.221 C 
HETATM    9  C   UNL     1     -43.206  56.929 -52.997  1.00  0.00     0.066 C 
HETATM   10  H   UNL     1     -44.427  54.880 -55.384  1.00  0.00     0.161 HD
ENDROOT
BRANCH   6  11
HETATM   11  C   UNL     1     -42.172  58.355 -58.735  1.00  0.00     0.272 C 
HETATM   12  N   UNL     1     -42.526  59.663 -58.966  1.00  0.00    -0.353 N 
HETATM   13  H   UNL     1     -43.163  60.073 -58.289  1.00  0.00     0.162 HD
HETATM   14  O   UNL     1     -41.560  57.664 -59.543  1.00  0.00    -0.266 OA
BRANCH  12  15
HETATM   15  C   UNL     1     -42.289  60.331 -60.228  1.00  0.00     0.155 C 
BRANCH  15  16
HETATM   16  C   UNL     1     -41.670  61.718 -60.049  1.00  0.00     0.139 C 
HETATM   17  O   UNL     1     -40.765  61.727 -58.926  1.00  0.00    -0.384 OA
HETATM   18  C   UNL     1     -39.712  62.660 -59.208  1.00  0.00     0.168 C 
HETATM   19  C   UNL     1     -39.925  63.181 -60.617  1.00  0.00     0.029 C 
HETATM   20  C   UNL     1     -40.822  62.139 -61.235  1.00  0.00     0.035 C 
ENDBRANCH  15  16
ENDBRANCH  12  15
ENDBRANCH   6  11
BRANCH   8  21
HETATM   21  C   UNL     1     -42.352  59.229 -53.452  1.00  0.00     0.409 C 
HETATM   22  F   UNL     1     -43.417  59.891 -53.960  1.00  0.00    -0.169 F 
HETATM   23  F   UNL     1     -42.477  59.279 -52.096  1.00  0.00    -0.169 F 
HETATM   24  F   UNL     1     -41.238  59.928 -53.750  1.00  0.00    -0.169 F 
ENDBRANCH   8  21
BRANCH   1  25
HETATM   25  C   UNL     1     -42.476  54.513 -53.486  1.00  0.00    -0.035 A 
HETATM   26  C   UNL     1     -42.084  53.697 -54.561  1.00  0.00     0.011 A 
HETATM   27  C   UNL     1     -41.073  52.742 -54.411  1.00  0.00     0.024 A 
HETATM   28  C   UNL     1     -40.445  52.586 -53.181  1.00  0.00     0.034 A 
HETATM   29  C   UNL     1     -40.814  53.380 -52.100  1.00  0.00     0.024 A 
HETATM   30 CL   UNL     1     -39.209  51.404 -52.993  1.00  0.00    -0.084 Cl
HETATM   31  C   UNL     1     -41.820  54.340 -52.253  1.00  0.00     0.011 A 
ENDBRANCH   1  25
TORSDOF 5
ENDMDL
MODEL 9
REMARK VINA RESULT:      -7.4      4.830      7.599
REMARK  5 active torsions:
REMARK  status: ('A' for Active; 'I' for Inactive)
REMARK    1  A    between atoms: C_2  and  C_3 
REMARK    2  A    between atoms: C_8  and  C_9 
REMARK       I    between atoms: C_9  and  N_10 
REMARK    3  A    between atoms: N_10  and  C_11 
REMARK    4  A    between atoms: C_11  and  C_12 
REMARK    5  A    between atoms: C_19  and  C_20 
ROOT
HETATM    1  C   UNL     1     -41.055  56.848 -53.559  1.00  0.00     0.118 C 
HETATM    2  N   UNL     1     -41.221  57.976 -52.649  1.00  0.00    -0.366 N 
HETATM    3  C   UNL     1     -42.455  58.385 -52.274  1.00  0.00     0.123 C 
HETATM    4  N   UNL     1     -43.584  57.966 -52.929  1.00  0.00    -0.240 N 
HETATM    5  N   UNL     1     -44.720  58.305 -52.295  1.00  0.00    -0.165 NA
HETATM    6  C   UNL     1     -44.302  59.085 -51.272  1.00  0.00     0.148 C 
HETATM    7  C   UNL     1     -42.884  59.177 -51.243  1.00  0.00     0.088 C 
HETATM    8  C   UNL     1     -43.582  57.014 -54.025  1.00  0.00     0.221 C 
HETATM    9  C   UNL     1     -42.168  56.846 -54.615  1.00  0.00     0.066 C 
HETATM   10  H   UNL     1     -40.438  58.120 -52.012  1.00  0.00     0.161 HD
ENDROOT
BRANCH   6  11
HETATM   11  C   UNL     1     -45.238  59.681 -50.306  1.00  0.00     0.272 C 
HETATM   12  N   UNL     1     -44.957  60.995 -50.013  1.00  0.00    -0.353 N 
HETATM   13  H   UNL     1     -44.062  61.339 -50.351  1.00  0.00     0.162 HD
HETATM   14  O   UNL     1     -46.184  59.066 -49.824  1.00  0.00    -0.266 OA
BRANCH  12  15
HETATM   15  C   UNL     1     -45.699  61.759 -49.034  1.00  0.00     0.155 C 
BRANCH  15  16
HETATM   16  C   UNL     1     -44.953  61.892 -47.706  1.00  0.00     0.139 C 
HETATM   17  O   UNL     1     -45.305  63.126 -47.049  1.00  0.00    -0.384 OA
HETATM   18  C   UNL     1     -45.250  62.911 -45.632  1.00  0.00     0.168 C 
HETATM   19  C   UNL     1     -44.942  61.444 -45.402  1.00  0.00     0.029 C 
HETATM   20  C   UNL     1     -45.322  60.805 -46.714  1.00  0.00     0.035 C 
ENDBRANCH  15  16
ENDBRANCH  12  15
ENDBRANCH   6  11
BRANCH   8  21
HETATM   21  C   UNL     1     -44.540  57.433 -55.119  1.00  0.00     0.409 C 
HETATM   22  F   UNL     1     -44.571  58.774 -55.293  1.00  0.00    -0.169 F 
HETATM   23  F   UNL     1     -44.139  56.899 -56.306  1.00  0.00    -0.169 F 
HETATM   24  F   UNL     1     -45.803  57.002 -54.924  1.00  0.00    -0.169 F 
ENDBRANCH   8  21
BRANCH   1  25
HETATM   25  C   UNL     1     -40.890  55.532 -52.812  1.00  0.00    -0.035 A 
HETATM   26  C   UNL     1     -41.014  55.422 -51.417  1.00  0.00     0.011 A 
HETATM   27  C   UNL     1     -40.855  54.190 -50.773  1.00  0.00     0.024 A 
HETATM   28  C   UNL     1     -40.563  53.053 -51.516  1.00  0.00     0.034 A 
HETATM   29  C   UNL     1     -40.433  53.133 -52.899  1.00  0.00     0.024 A 
HETATM   30 CL   UNL     1     -40.355  51.540 -50.723  1.00  0.00    -0.084 Cl
HETATM   31  C   UNL     1     -40.600  54.364 -53.542  1.00  0.00     0.011 A 
ENDBRANCH   1  25
TORSDOF 5
ENDMDL
MODEL 10
REMARK VINA RESULT:      -7.1      4.901      7.356
REMARK  5 active torsions:
REMARK  status: ('A' for Active; 'I' for Inactive)
REMARK    1  A    between atoms: C_2  and  C_3 
REMARK    2  A    between atoms: C_8  and  C_9 
REMARK       I    between atoms: C_9  and  N_10 
REMARK    3  A    between atoms: N_10  and  C_11 
REMARK    4  A    between atoms: C_11  and  C_12 
REMARK    5  A    between atoms: C_19  and  C_20 
ROOT
HETATM    1  C   UNL     1     -42.637  55.666 -52.205  1.00  0.00     0.118 C 
HETATM    2  N   UNL     1     -43.908  56.078 -51.618  1.00  0.00    -0.366 N 
HETATM    3  C   UNL     1     -44.166  57.383 -51.376  1.00  0.00     0.123 C 
HETATM    4  N   UNL     1     -43.176  58.330 -51.395  1.00  0.00    -0.240 N 
HETATM    5  N   UNL     1     -43.645  59.589 -51.338  1.00  0.00    -0.165 NA
HETATM    6  C   UNL     1     -44.974  59.432 -51.137  1.00  0.00     0.148 C 
HETATM    7  C   UNL     1     -45.332  58.057 -51.131  1.00  0.00     0.088 C 
HETATM    8  C   UNL     1     -41.791  58.052 -51.732  1.00  0.00     0.221 C 
HETATM    9  C   UNL     1     -41.496  56.540 -51.670  1.00  0.00     0.066 C 
HETATM   10  H   UNL     1     -44.685  55.449 -51.820  1.00  0.00     0.161 HD
ENDROOT
BRANCH   6  11
HETATM   11  C   UNL     1     -45.890  60.576 -51.015  1.00  0.00     0.272 C 
HETATM   12  N   UNL     1     -45.553  61.438 -49.998  1.00  0.00    -0.353 N 
HETATM   13  H   UNL     1     -44.838  61.105 -49.357  1.00  0.00     0.162 HD
HETATM   14  O   UNL     1     -46.849  60.748 -51.760  1.00  0.00    -0.266 OA
BRANCH  12  15
HETATM   15  C   UNL     1     -46.353  62.591 -49.646  1.00  0.00     0.155 C 
BRANCH  15  16
HETATM   16  C   UNL     1     -46.423  62.818 -48.136  1.00  0.00     0.139 C 
HETATM   17  O   UNL     1     -47.295  61.850 -47.518  1.00  0.00    -0.384 OA
HETATM   18  C   UNL     1     -46.799  61.577 -46.200  1.00  0.00     0.168 C 
HETATM   19  C   UNL     1     -45.501  62.342 -46.030  1.00  0.00     0.029 C 
HETATM   20  C   UNL     1     -45.083  62.625 -47.451  1.00  0.00     0.035 C 
ENDBRANCH  15  16
ENDBRANCH  12  15
ENDBRANCH   6  11
BRANCH   8  21
HETATM   21  C   UNL     1     -40.842  58.791 -50.814  1.00  0.00     0.409 C 
HETATM   22  F   UNL     1     -41.269  58.802 -49.531  1.00  0.00    -0.169 F 
HETATM   23  F   UNL     1     -39.631  58.167 -50.812  1.00  0.00    -0.169 F 
HETATM   24  F   UNL     1     -40.606  60.064 -51.193  1.00  0.00    -0.169 F 
ENDBRANCH   8  21
BRANCH   1  25
HETATM   25  C   UNL     1     -42.710  55.581 -53.723  1.00  0.00    -0.035 A 
HETATM   26  C   UNL     1     -43.106  54.419 -54.407  1.00  0.00     0.011 A 
HETATM   27  C   UNL     1     -43.158  54.386 -55.805  1.00  0.00     0.024 A 
HETATM   28  C   UNL     1     -42.810  55.515 -56.537  1.00  0.00     0.034 A 
HETATM   29  C   UNL     1     -42.413  56.678 -55.886  1.00  0.00     0.024 A 
HETATM   30 CL   UNL     1     -42.864  55.472 -58.256  1.00  0.00    -0.084 Cl
HETATM   31  C   UNL     1     -42.368  56.712 -54.488  1.00  0.00     0.011 A 
ENDBRANCH   1  25
TORSDOF 5
ENDMDL
