MODEL 1
REMARK VINA RESULT:      -7.8      0.000      0.000
REMARK  10 active torsions:
REMARK  status: ('A' for Active; 'I' for Inactive)
REMARK    1  A    between atoms: C_6  and  C_7 
REMARK    2  A    between atoms: C_9  and  C_10 
REMARK    3  A    between atoms: C_10  and  C_11 
REMARK       I    between atoms: C_11  and  N_12 
REMARK    4  A    between atoms: N_12  and  C_13 
REMARK    5  A    between atoms: C_13  and  C_14 
REMARK    6  A    between atoms: C_14  and  N_15 
REMARK    7  A    between atoms: C_26  and  C_27 
REMARK    8  A    between atoms: C_27  and  O_28 
REMARK    9  A    between atoms: O_28  and  C_29 
REMARK   10  A    between atoms: C_29  and  C_30 
ROOT
HETATM    1  C   UNL     1     -43.825  57.824 -53.943  1.00  0.00     0.166 C 
HETATM    2  N   UNL     1     -44.086  58.932 -54.882  1.00  0.00    -0.318 N 
HETATM    3  C   UNL     1     -44.932  59.165 -55.833  1.00  0.00     0.011 C 
HETATM    4  C   UNL     1     -43.324  60.236 -54.518  1.00  0.00     0.170 C 
HETATM    5  S   UNL     1     -43.368  61.383 -55.820  1.00  0.00    -0.086 SA
HETATM    6  C   UNL     1     -44.708  60.445 -56.613  1.00  0.00     0.135 C 
HETATM    7  N   UNL     1     -42.811  60.491 -53.368  1.00  0.00    -0.229 NA
HETATM    8  C   UNL     1     -43.087  59.607 -52.340  1.00  0.00     0.048 C 
HETATM    9  C   UNL     1     -42.830  60.178 -50.966  1.00  0.00     0.071 C 
HETATM   10  C   UNL     1     -43.601  58.377 -52.563  1.00  0.00     0.069 C 
ENDROOT
BRANCH   3  11
HETATM   11  C   UNL     1     -46.146  58.316 -56.055  1.00  0.00     0.156 C 
BRANCH  11  12
HETATM   12  C   UNL     1     -46.658  58.198 -57.467  1.00  0.00     0.223 C 
HETATM   13  N   UNL     1     -45.979  57.270 -58.219  1.00  0.00    -0.359 N 
HETATM   14  H   UNL     1     -45.171  56.818 -57.792  1.00  0.00     0.162 HD
HETATM   15  O   UNL     1     -47.568  58.894 -57.901  1.00  0.00    -0.273 OA
BRANCH  13  16
HETATM   16  C   UNL     1     -46.026  57.146 -59.677  1.00  0.00     0.150 C 
BRANCH  16  17
HETATM   17  C   UNL     1     -44.685  57.206 -60.434  1.00  0.00     0.253 C 
BRANCH  17  18
HETATM   18  N   UNL     1     -43.919  55.900 -60.392  1.00  0.00    -0.077 N 
HETATM   19  H   UNL     1     -43.364  55.850 -61.269  1.00  0.00     0.279 HD
HETATM   20  C   UNL     1     -42.941  55.798 -59.253  1.00  0.00     0.269 C 
HETATM   21  C   UNL     1     -44.850  54.718 -60.403  1.00  0.00     0.269 C 
ENDBRANCH  17  18
ENDBRANCH  16  17
ENDBRANCH  13  16
ENDBRANCH  11  12
ENDBRANCH   3  11
BRANCH   1  22
HETATM   22  C   UNL     1     -42.690  56.854 -54.361  1.00  0.00    -0.024 C 
HETATM   23  C   UNL     1     -41.344  56.849 -53.913  1.00  0.00    -0.053 C 
HETATM   24  C   UNL     1     -40.568  55.675 -54.061  1.00  0.00     0.014 C 
HETATM   25  C   UNL     1     -40.625  57.976 -53.228  1.00  0.00     0.049 C 
HETATM   26  C   UNL     1     -41.057  54.530 -54.687  1.00  0.00    -0.061 C 
HETATM   27  C   UNL     1     -40.266  53.254 -54.686  1.00  0.00     0.048 C 
HETATM   28  C   UNL     1     -42.320  54.582 -55.260  1.00  0.00     0.007 C 
HETATM   29  C   UNL     1     -43.111  55.726 -55.113  1.00  0.00     0.011 C 
ENDBRANCH   1  22
BRANCH  10  30
HETATM   30  C   UNL     1     -44.261  57.662 -51.448  1.00  0.00     0.294 C 
HETATM   31  O   UNL     1     -45.467  57.716 -51.280  1.00  0.00    -0.259 OA
BRANCH  30  32
HETATM   32  O   UNL     1     -43.385  56.875 -50.797  1.00  0.00    -0.313 OA
BRANCH  32  33
HETATM   33  C   UNL     1     -43.521  55.462 -51.029  1.00  0.00     0.217 C 
BRANCH  33  34
HETATM   34  C   UNL     1     -42.192  54.782 -50.804  1.00  0.00    -0.034 A 
HETATM   35  C   UNL     1     -41.938  53.508 -51.333  1.00  0.00     0.009 A 
HETATM   36  C   UNL     1     -40.695  52.895 -51.144  1.00  0.00     0.001 A 
HETATM   37  C   UNL     1     -39.699  53.547 -50.420  1.00  0.00     0.000 A 
HETATM   38  C   UNL     1     -39.943  54.807 -49.879  1.00  0.00     0.001 A 
HETATM   39  C   UNL     1     -41.184  55.420 -50.066  1.00  0.00     0.009 A 
ENDBRANCH  33  34
ENDBRANCH  32  33
ENDBRANCH  30  32
ENDBRANCH  10  30
TORSDOF 10
ENDMDL
MODEL 2
REMARK VINA RESULT:      -7.7      2.534      4.102
REMARK  10 active torsions:
REMARK  status: ('A' for Active; 'I' for Inactive)
REMARK    1  A    between atoms: C_6  and  C_7 
REMARK    2  A    between atoms: C_9  and  C_10 
REMARK    3  A    between atoms: C_10  and  C_11 
REMARK       I    between atoms: C_11  and  N_12 
REMARK    4  A    between atoms: N_12  and  C_13 
REMARK    5  A    between atoms: C_13  and  C_14 
REMARK    6  A    between atoms: C_14  and  N_15 
REMARK    7  A    between atoms: C_26  and  C_27 
REMARK    8  A    between atoms: C_27  and  O_28 
REMARK    9  A    between atoms: O_28  and  C_29 
REMARK   10  A    between atoms: C_29  and  C_30 
ROOT
HETATM    1  C   UNL     1     -43.051  57.271 -52.721  1.00  0.00     0.166 C 
HETATM    2  N   UNL     1     -44.174  58.200 -52.488  1.00  0.00    -0.318 N 
HETATM    3  C   UNL     1     -44.836  59.055 -53.198  1.00  0.00     0.011 C 
HETATM    4  C   UNL     1     -44.903  57.953 -51.138  1.00  0.00     0.170 C 
HETATM    5  S   UNL     1     -45.963  59.267 -50.739  1.00  0.00    -0.086 SA
HETATM    6  C   UNL     1     -45.857  59.884 -52.445  1.00  0.00     0.135 C 
HETATM    7  N   UNL     1     -44.822  56.873 -50.446  1.00  0.00    -0.229 NA
HETATM    8  C   UNL     1     -44.159  55.802 -51.017  1.00  0.00     0.048 C 
HETATM    9  C   UNL     1     -44.472  54.478 -50.360  1.00  0.00     0.071 C 
HETATM   10  C   UNL     1     -43.365  55.937 -52.101  1.00  0.00     0.069 C 
ENDROOT
BRANCH   3  11
HETATM   11  C   UNL     1     -44.722  59.120 -54.691  1.00  0.00     0.156 C 
BRANCH  11  12
HETATM   12  C   UNL     1     -45.504  58.109 -55.488  1.00  0.00     0.223 C 
HETATM   13  N   UNL     1     -46.118  58.644 -56.595  1.00  0.00    -0.359 N 
HETATM   14  H   UNL     1     -46.055  59.652 -56.728  1.00  0.00     0.162 HD
HETATM   15  O   UNL     1     -45.606  56.935 -55.151  1.00  0.00    -0.273 OA
BRANCH  13  16
HETATM   16  C   UNL     1     -47.179  58.008 -57.379  1.00  0.00     0.150 C 
BRANCH  16  17
HETATM   17  C   UNL     1     -46.970  57.912 -58.903  1.00  0.00     0.253 C 
BRANCH  17  18
HETATM   18  N   UNL     1     -46.507  56.542 -59.354  1.00  0.00    -0.077 N 
HETATM   19  H   UNL     1     -46.848  55.863 -58.645  1.00  0.00     0.279 HD
HETATM   20  C   UNL     1     -47.074  56.107 -60.679  1.00  0.00     0.269 C 
HETATM   21  C   UNL     1     -45.006  56.443 -59.359  1.00  0.00     0.269 C 
ENDBRANCH  17  18
ENDBRANCH  16  17
ENDBRANCH  13  16
ENDBRANCH  11  12
ENDBRANCH   3  11
BRANCH   1  22
HETATM   22  C   UNL     1     -41.658  57.791 -52.283  1.00  0.00    -0.024 C 
HETATM   23  C   UNL     1     -40.901  58.838 -52.867  1.00  0.00    -0.053 C 
HETATM   24  C   UNL     1     -39.873  59.455 -52.113  1.00  0.00     0.014 C 
HETATM   25  C   UNL     1     -41.097  59.430 -54.234  1.00  0.00     0.049 C 
HETATM   26  C   UNL     1     -39.532  59.033 -50.830  1.00  0.00    -0.061 C 
HETATM   27  C   UNL     1     -38.550  59.808 -50.000  1.00  0.00     0.048 C 
HETATM   28  C   UNL     1     -40.169  57.913 -50.315  1.00  0.00     0.007 C 
HETATM   29  C   UNL     1     -41.198  57.297 -51.035  1.00  0.00     0.011 C 
ENDBRANCH   1  22
BRANCH  10  30
HETATM   30  C   UNL     1     -43.039  54.740 -52.906  1.00  0.00     0.294 C 
HETATM   31  O   UNL     1     -43.597  54.511 -53.966  1.00  0.00    -0.259 OA
BRANCH  30  32
HETATM   32  O   UNL     1     -41.988  54.081 -52.384  1.00  0.00    -0.313 OA
BRANCH  32  33
HETATM   33  C   UNL     1     -40.863  53.900 -53.263  1.00  0.00     0.217 C 
BRANCH  33  34
HETATM   34  C   UNL     1     -40.424  52.456 -53.233  1.00  0.00    -0.034 A 
HETATM   35  C   UNL     1     -40.563  51.640 -54.366  1.00  0.00     0.009 A 
HETATM   36  C   UNL     1     -40.130  50.311 -54.340  1.00  0.00     0.001 A 
HETATM   37  C   UNL     1     -39.560  49.784 -53.183  1.00  0.00     0.000 A 
HETATM   38  C   UNL     1     -39.428  50.582 -52.048  1.00  0.00     0.001 A 
HETATM   39  C   UNL     1     -39.861  51.909 -52.071  1.00  0.00     0.009 A 
ENDBRANCH  33  34
ENDBRANCH  32  33
ENDBRANCH  30  32
ENDBRANCH  10  30
TORSDOF 10
ENDMDL
MODEL 3
REMARK VINA RESULT:      -7.7      1.058      1.783
REMARK  10 active torsions:
REMARK  status: ('A' for Active; 'I' for Inactive)
REMARK    1  A    between atoms: C_6  and  C_7 
REMARK    2  A    between atoms: C_9  and  C_10 
REMARK    3  A    between atoms: C_10  and  C_11 
REMARK       I    between atoms: C_11  and  N_12 
REMARK    4  A    between atoms: N_12  and  C_13 
REMARK    5  A    between atoms: C_13  and  C_14 
REMARK    6  A    between atoms: C_14  and  N_15 
REMARK    7  A    between atoms: C_26  and  C_27 
REMARK    8  A    between atoms: C_27  and  O_28 
REMARK    9  A    between atoms: O_28  and  C_29 
REMARK   10  A    between atoms: C_29  and  C_30 
ROOT
HETATM    1  C   UNL     1     -43.787  57.764 -53.992  1.00  0.00     0.166 C 
HETATM    2  N   UNL     1     -44.013  58.872 -54.940  1.00  0.00    -0.318 N 
HETATM    3  C   UNL     1     -44.835  59.110 -55.910  1.00  0.00     0.011 C 
HETATM    4  C   UNL     1     -43.245  60.168 -54.563  1.00  0.00     0.170 C 
HETATM    5  S   UNL     1     -43.246  61.310 -55.869  1.00  0.00    -0.086 SA
HETATM    6  C   UNL     1     -44.578  60.386 -56.689  1.00  0.00     0.135 C 
HETATM    7  N   UNL     1     -42.755  60.421 -53.402  1.00  0.00    -0.229 NA
HETATM    8  C   UNL     1     -43.064  59.543 -52.378  1.00  0.00     0.048 C 
HETATM    9  C   UNL     1     -42.832  60.117 -51.000  1.00  0.00     0.071 C 
HETATM   10  C   UNL     1     -43.587  58.320 -52.608  1.00  0.00     0.069 C 
ENDROOT
BRANCH   3  11
HETATM   11  C   UNL     1     -46.053  58.275 -56.157  1.00  0.00     0.156 C 
BRANCH  11  12
HETATM   12  C   UNL     1     -46.545  58.172 -57.577  1.00  0.00     0.223 C 
HETATM   13  N   UNL     1     -45.857  57.250 -58.328  1.00  0.00    -0.359 N 
HETATM   14  H   UNL     1     -45.056  56.792 -57.894  1.00  0.00     0.162 HD
HETATM   15  O   UNL     1     -47.447  58.875 -58.018  1.00  0.00    -0.273 OA
BRANCH  13  16
HETATM   16  C   UNL     1     -45.882  57.140 -59.788  1.00  0.00     0.150 C 
BRANCH  16  17
HETATM   17  C   UNL     1     -47.174  56.602 -60.434  1.00  0.00     0.253 C 
BRANCH  17  18
HETATM   18  N   UNL     1     -47.543  57.321 -61.714  1.00  0.00    -0.077 N 
HETATM   19  H   UNL     1     -46.708  57.281 -62.331  1.00  0.00     0.279 HD
HETATM   20  C   UNL     1     -48.674  56.683 -62.474  1.00  0.00     0.269 C 
HETATM   21  C   UNL     1     -47.825  58.778 -61.464  1.00  0.00     0.269 C 
ENDBRANCH  17  18
ENDBRANCH  16  17
ENDBRANCH  13  16
ENDBRANCH  11  12
ENDBRANCH   3  11
BRANCH   1  22
HETATM   22  C   UNL     1     -42.654  56.779 -54.380  1.00  0.00    -0.024 C 
HETATM   23  C   UNL     1     -41.314  56.771 -53.915  1.00  0.00    -0.053 C 
HETATM   24  C   UNL     1     -40.545  55.589 -54.035  1.00  0.00     0.014 C 
HETATM   25  C   UNL     1     -40.595  57.902 -53.236  1.00  0.00     0.049 C 
HETATM   26  C   UNL     1     -41.035  54.439 -54.652  1.00  0.00    -0.061 C 
HETATM   27  C   UNL     1     -40.253  53.157 -54.621  1.00  0.00     0.048 C 
HETATM   28  C   UNL     1     -42.290  54.492 -55.241  1.00  0.00     0.007 C 
HETATM   29  C   UNL     1     -43.074  55.644 -55.121  1.00  0.00     0.011 C 
ENDBRANCH   1  22
BRANCH  10  30
HETATM   30  C   UNL     1     -44.281  57.616 -51.506  1.00  0.00     0.294 C 
HETATM   31  O   UNL     1     -45.491  57.670 -51.376  1.00  0.00    -0.259 OA
BRANCH  30  32
HETATM   32  O   UNL     1     -43.424  56.837 -50.820  1.00  0.00    -0.313 OA
BRANCH  32  33
HETATM   33  C   UNL     1     -43.519  55.425 -51.077  1.00  0.00     0.217 C 
BRANCH  33  34
HETATM   34  C   UNL     1     -42.178  54.775 -50.834  1.00  0.00    -0.034 A 
HETATM   35  C   UNL     1     -41.174  55.444 -50.118  1.00  0.00     0.009 A 
HETATM   36  C   UNL     1     -39.944  54.826 -49.874  1.00  0.00     0.001 A 
HETATM   37  C   UNL     1     -39.704  53.538 -50.347  1.00  0.00     0.000 A 
HETATM   38  C   UNL     1     -40.689  52.867 -51.069  1.00  0.00     0.001 A 
HETATM   39  C   UNL     1     -41.918  53.483 -51.315  1.00  0.00     0.009 A 
ENDBRANCH  33  34
ENDBRANCH  32  33
ENDBRANCH  30  32
ENDBRANCH  10  30
TORSDOF 10
ENDMDL
MODEL 4
REMARK VINA RESULT:      -7.4      1.873      2.684
REMARK  10 active torsions:
REMARK  status: ('A' for Active; 'I' for Inactive)
REMARK    1  A    between atoms: C_6  and  C_7 
REMARK    2  A    between atoms: C_9  and  C_10 
REMARK    3  A    between atoms: C_10  and  C_11 
REMARK       I    between atoms: C_11  and  N_12 
REMARK    4  A    between atoms: N_12  and  C_13 
REMARK    5  A    between atoms: C_13  and  C_14 
REMARK    6  A    between atoms: C_14  and  N_15 
REMARK    7  A    between atoms: C_26  and  C_27 
REMARK    8  A    between atoms: C_27  and  O_28 
REMARK    9  A    between atoms: O_28  and  C_29 
REMARK   10  A    between atoms: C_29  and  C_30 
ROOT
HETATM    1  C   UNL     1     -43.559  57.666 -54.676  1.00  0.00     0.166 C 
HETATM    2  N   UNL     1     -43.344  58.221 -56.027  1.00  0.00    -0.318 N 
HETATM    3  C   UNL     1     -43.957  58.162 -57.164  1.00  0.00     0.011 C 
HETATM    4  C   UNL     1     -42.251  59.325 -56.068  1.00  0.00     0.170 C 
HETATM    5  S   UNL     1     -41.778  59.691 -57.696  1.00  0.00    -0.086 SA
HETATM    6  C   UNL     1     -43.248  58.828 -58.327  1.00  0.00     0.135 C 
HETATM    7  N   UNL     1     -41.819  59.970 -55.043  1.00  0.00    -0.229 NA
HETATM    8  C   UNL     1     -42.478  59.770 -53.843  1.00  0.00     0.048 C 
HETATM    9  C   UNL     1     -42.210  60.849 -52.820  1.00  0.00     0.071 C 
HETATM   10  C   UNL     1     -43.329  58.740 -53.648  1.00  0.00     0.069 C 
ENDROOT
BRANCH   3  11
HETATM   11  C   UNL     1     -45.345  57.616 -57.303  1.00  0.00     0.156 C 
BRANCH  11  12
HETATM   12  C   UNL     1     -45.977  57.675 -58.669  1.00  0.00     0.223 C 
HETATM   13  N   UNL     1     -46.064  56.449 -59.283  1.00  0.00    -0.359 N 
HETATM   14  H   UNL     1     -45.639  55.653 -58.809  1.00  0.00     0.162 HD
HETATM   15  O   UNL     1     -46.340  58.725 -59.186  1.00  0.00    -0.273 OA
BRANCH  13  16
HETATM   16  C   UNL     1     -46.334  56.218 -60.704  1.00  0.00     0.150 C 
BRANCH  16  17
HETATM   17  C   UNL     1     -47.765  56.491 -61.205  1.00  0.00     0.253 C 
BRANCH  17  18
HETATM   18  N   UNL     1     -47.813  57.450 -62.376  1.00  0.00    -0.077 N 
HETATM   19  H   UNL     1     -46.828  57.633 -62.652  1.00  0.00     0.279 HD
HETATM   20  C   UNL     1     -48.510  56.902 -63.592  1.00  0.00     0.269 C 
HETATM   21  C   UNL     1     -48.402  58.775 -61.976  1.00  0.00     0.269 C 
ENDBRANCH  17  18
ENDBRANCH  16  17
ENDBRANCH  13  16
ENDBRANCH  11  12
ENDBRANCH   3  11
BRANCH   1  22
HETATM   22  C   UNL     1     -42.754  56.381 -54.351  1.00  0.00    -0.024 C 
HETATM   23  C   UNL     1     -43.220  55.041 -54.356  1.00  0.00    -0.053 C 
HETATM   24  C   UNL     1     -42.285  53.982 -54.450  1.00  0.00     0.014 C 
HETATM   25  C   UNL     1     -44.653  54.592 -54.320  1.00  0.00     0.049 C 
HETATM   26  C   UNL     1     -40.909  54.201 -54.478  1.00  0.00    -0.061 C 
HETATM   27  C   UNL     1     -39.955  53.071 -54.737  1.00  0.00     0.048 C 
HETATM   28  C   UNL     1     -40.446  55.500 -54.321  1.00  0.00     0.007 C 
HETATM   29  C   UNL     1     -41.351  56.563 -54.243  1.00  0.00     0.011 C 
ENDBRANCH   1  22
BRANCH  10  30
HETATM   30  C   UNL     1     -44.305  58.814 -52.539  1.00  0.00     0.294 C 
HETATM   31  O   UNL     1     -45.457  59.166 -52.725  1.00  0.00    -0.259 OA
BRANCH  30  32
HETATM   32  O   UNL     1     -43.783  58.313 -51.405  1.00  0.00    -0.313 OA
BRANCH  32  33
HETATM   33  C   UNL     1     -44.266  57.016 -51.012  1.00  0.00     0.217 C 
BRANCH  33  34
HETATM   34  C   UNL     1     -43.102  56.066 -50.864  1.00  0.00    -0.034 A 
HETATM   35  C   UNL     1     -41.805  56.548 -50.637  1.00  0.00     0.009 A 
HETATM   36  C   UNL     1     -40.736  55.662 -50.473  1.00  0.00     0.001 A 
HETATM   37  C   UNL     1     -40.953  54.287 -50.541  1.00  0.00     0.000 A 
HETATM   38  C   UNL     1     -42.235  53.796 -50.778  1.00  0.00     0.001 A 
HETATM   39  C   UNL     1     -43.303  54.679 -50.943  1.00  0.00     0.009 A 
ENDBRANCH  33  34
ENDBRANCH  32  33
ENDBRANCH  30  32
ENDBRANCH  10  30
TORSDOF 10
ENDMDL
MODEL 5
REMARK VINA RESULT:      -7.3      2.721      6.137
REMARK  10 active torsions:
REMARK  status: ('A' for Active; 'I' for Inactive)
REMARK    1  A    between atoms: C_6  and  C_7 
REMARK    2  A    between atoms: C_9  and  C_10 
REMARK    3  A    between atoms: C_10  and  C_11 
REMARK       I    between atoms: C_11  and  N_12 
REMARK    4  A    between atoms: N_12  and  C_13 
REMARK    5  A    between atoms: C_13  and  C_14 
REMARK    6  A    between atoms: C_14  and  N_15 
REMARK    7  A    between atoms: C_26  and  C_27 
REMARK    8  A    between atoms: C_27  and  O_28 
REMARK    9  A    between atoms: O_28  and  C_29 
REMARK   10  A    between atoms: C_29  and  C_30 
ROOT
HETATM    1  C   UNL     1     -42.822  57.721 -53.532  1.00  0.00     0.166 C 
HETATM    2  N   UNL     1     -43.350  59.090 -53.698  1.00  0.00    -0.318 N 
HETATM    3  C   UNL     1     -44.497  59.668 -53.546  1.00  0.00     0.011 C 
HETATM    4  C   UNL     1     -42.237  60.157 -53.882  1.00  0.00     0.170 C 
HETATM    5  S   UNL     1     -42.890  61.669 -54.426  1.00  0.00    -0.086 SA
HETATM    6  C   UNL     1     -44.563  61.120 -53.977  1.00  0.00     0.135 C 
HETATM    7  N   UNL     1     -41.000  59.990 -53.575  1.00  0.00    -0.229 NA
HETATM    8  C   UNL     1     -40.666  58.832 -52.895  1.00  0.00     0.048 C 
HETATM    9  C   UNL     1     -39.325  58.903 -52.203  1.00  0.00     0.071 C 
HETATM   10  C   UNL     1     -41.502  57.775 -52.813  1.00  0.00     0.069 C 
ENDROOT
BRANCH   3  11
HETATM   11  C   UNL     1     -45.645  59.006 -52.847  1.00  0.00     0.156 C 
BRANCH  11  12
HETATM   12  C   UNL     1     -45.619  58.987 -51.341  1.00  0.00     0.223 C 
HETATM   13  N   UNL     1     -45.500  60.236 -50.781  1.00  0.00    -0.359 N 
HETATM   14  H   UNL     1     -45.367  61.025 -51.412  1.00  0.00     0.162 HD
HETATM   15  O   UNL     1     -45.663  57.949 -50.691  1.00  0.00    -0.273 OA
BRANCH  13  16
HETATM   16  C   UNL     1     -45.140  60.523 -49.391  1.00  0.00     0.150 C 
BRANCH  16  17
HETATM   17  C   UNL     1     -45.922  61.641 -48.675  1.00  0.00     0.253 C 
BRANCH  17  18
HETATM   18  N   UNL     1     -45.533  61.801 -47.220  1.00  0.00    -0.077 N 
HETATM   19  H   UNL     1     -44.496  61.863 -47.193  1.00  0.00     0.279 HD
HETATM   20  C   UNL     1     -46.059  63.056 -46.577  1.00  0.00     0.269 C 
HETATM   21  C   UNL     1     -45.914  60.589 -46.414  1.00  0.00     0.269 C 
ENDBRANCH  17  18
ENDBRANCH  16  17
ENDBRANCH  13  16
ENDBRANCH  11  12
ENDBRANCH   3  11
BRANCH   1  22
HETATM   22  C   UNL     1     -42.730  56.883 -54.834  1.00  0.00    -0.024 C 
HETATM   23  C   UNL     1     -43.217  55.570 -55.055  1.00  0.00    -0.053 C 
HETATM   24  C   UNL     1     -43.426  55.122 -56.382  1.00  0.00     0.014 C 
HETATM   25  C   UNL     1     -43.600  54.567 -54.004  1.00  0.00     0.049 C 
HETATM   26  C   UNL     1     -43.114  55.905 -57.492  1.00  0.00    -0.061 C 
HETATM   27  C   UNL     1     -43.495  55.464 -58.876  1.00  0.00     0.048 C 
HETATM   28  C   UNL     1     -42.498  57.130 -57.281  1.00  0.00     0.007 C 
HETATM   29  C   UNL     1     -42.296  57.600 -55.979  1.00  0.00     0.011 C 
ENDBRANCH   1  22
BRANCH  10  30
HETATM   30  C   UNL     1     -41.287  56.769 -51.750  1.00  0.00     0.294 C 
HETATM   31  O   UNL     1     -41.667  56.956 -50.607  1.00  0.00    -0.259 OA
BRANCH  30  32
HETATM   32  O   UNL     1     -40.778  55.632 -52.260  1.00  0.00    -0.313 OA
BRANCH  32  33
HETATM   33  C   UNL     1     -40.847  54.477 -51.405  1.00  0.00     0.217 C 
BRANCH  33  34
HETATM   34  C   UNL     1     -40.408  53.253 -52.172  1.00  0.00    -0.034 A 
HETATM   35  C   UNL     1     -39.901  52.129 -51.503  1.00  0.00     0.009 A 
HETATM   36  C   UNL     1     -39.522  50.988 -52.217  1.00  0.00     0.001 A 
HETATM   37  C   UNL     1     -39.640  50.963 -53.606  1.00  0.00     0.000 A 
HETATM   38  C   UNL     1     -40.131  52.077 -54.282  1.00  0.00     0.001 A 
HETATM   39  C   UNL     1     -40.510  53.217 -53.571  1.00  0.00     0.009 A 
ENDBRANCH  33  34
ENDBRANCH  32  33
ENDBRANCH  30  32
ENDBRANCH  10  30
TORSDOF 10
ENDMDL
MODEL 6
REMARK VINA RESULT:      -7.2      2.650      6.202
REMARK  10 active torsions:
REMARK  status: ('A' for Active; 'I' for Inactive)
REMARK    1  A    between atoms: C_6  and  C_7 
REMARK    2  A    between atoms: C_9  and  C_10 
REMARK    3  A    between atoms: C_10  and  C_11 
REMARK       I    between atoms: C_11  and  N_12 
REMARK    4  A    between atoms: N_12  and  C_13 
REMARK    5  A    between atoms: C_13  and  C_14 
REMARK    6  A    between atoms: C_14  and  N_15 
REMARK    7  A    between atoms: C_26  and  C_27 
REMARK    8  A    between atoms: C_27  and  O_28 
REMARK    9  A    between atoms: O_28  and  C_29 
REMARK   10  A    between atoms: C_29  and  C_30 
ROOT
HETATM    1  C   UNL     1     -43.517  56.738 -54.124  1.00  0.00     0.166 C 
HETATM    2  N   UNL     1     -42.948  57.647 -53.110  1.00  0.00    -0.318 N 
HETATM    3  C   UNL     1     -43.358  58.177 -52.003  1.00  0.00     0.011 C 
HETATM    4  C   UNL     1     -41.417  57.857 -53.264  1.00  0.00     0.170 C 
HETATM    5  S   UNL     1     -40.857  59.186 -52.301  1.00  0.00    -0.086 SA
HETATM    6  C   UNL     1     -42.414  59.176 -51.364  1.00  0.00     0.135 C 
HETATM    7  N   UNL     1     -40.633  57.088 -53.933  1.00  0.00    -0.229 NA
HETATM    8  C   UNL     1     -41.168  55.911 -54.425  1.00  0.00     0.048 C 
HETATM    9  C   UNL     1     -40.126  54.886 -54.806  1.00  0.00     0.071 C 
HETATM   10  C   UNL     1     -42.500  55.691 -54.487  1.00  0.00     0.069 C 
ENDROOT
BRANCH   3  11
HETATM   11  C   UNL     1     -44.606  57.725 -51.308  1.00  0.00     0.156 C 
BRANCH  11  12
HETATM   12  C   UNL     1     -45.596  58.786 -50.905  1.00  0.00     0.223 C 
HETATM   13  N   UNL     1     -45.919  59.647 -51.926  1.00  0.00    -0.359 N 
HETATM   14  H   UNL     1     -45.420  59.541 -52.808  1.00  0.00     0.162 HD
HETATM   15  O   UNL     1     -46.034  58.884 -49.765  1.00  0.00    -0.273 OA
BRANCH  13  16
HETATM   16  C   UNL     1     -46.593  60.939 -51.778  1.00  0.00     0.150 C 
BRANCH  16  17
HETATM   17  C   UNL     1     -45.810  62.068 -51.080  1.00  0.00     0.253 C 
BRANCH  17  18
HETATM   18  N   UNL     1     -45.942  62.038 -49.571  1.00  0.00    -0.077 N 
HETATM   19  H   UNL     1     -46.239  61.075 -49.317  1.00  0.00     0.279 HD
HETATM   20  C   UNL     1     -44.657  62.304 -48.836  1.00  0.00     0.269 C 
HETATM   21  C   UNL     1     -47.029  62.963 -49.097  1.00  0.00     0.269 C 
ENDBRANCH  17  18
ENDBRANCH  16  17
ENDBRANCH  13  16
ENDBRANCH  11  12
ENDBRANCH   3  11
BRANCH   1  22
HETATM   22  C   UNL     1     -44.099  57.431 -55.384  1.00  0.00    -0.024 C 
HETATM   23  C   UNL     1     -43.596  57.385 -56.709  1.00  0.00    -0.053 C 
HETATM   24  C   UNL     1     -44.453  57.710 -57.788  1.00  0.00     0.014 C 
HETATM   25  C   UNL     1     -42.215  56.970 -57.128  1.00  0.00     0.049 C 
HETATM   26  C   UNL     1     -45.767  58.133 -57.596  1.00  0.00    -0.061 C 
HETATM   27  C   UNL     1     -46.695  58.315 -58.763  1.00  0.00     0.048 C 
HETATM   28  C   UNL     1     -46.214  58.323 -56.297  1.00  0.00     0.007 C 
HETATM   29  C   UNL     1     -45.391  57.994 -55.215  1.00  0.00     0.011 C 
ENDBRANCH   1  22
BRANCH  10  30
HETATM   30  C   UNL     1     -42.994  54.302 -54.609  1.00  0.00     0.294 C 
HETATM   31  O   UNL     1     -43.499  53.892 -55.640  1.00  0.00    -0.259 OA
BRANCH  30  32
HETATM   32  O   UNL     1     -42.672  53.580 -53.520  1.00  0.00    -0.313 OA
BRANCH  32  33
HETATM   33  C   UNL     1     -43.202  54.060 -52.271  1.00  0.00     0.217 C 
BRANCH  33  34
HETATM   34  C   UNL     1     -42.084  54.198 -51.266  1.00  0.00    -0.034 A 
HETATM   35  C   UNL     1     -42.213  55.052 -50.161  1.00  0.00     0.009 A 
HETATM   36  C   UNL     1     -41.184  55.155 -49.220  1.00  0.00     0.001 A 
HETATM   37  C   UNL     1     -40.016  54.411 -49.377  1.00  0.00     0.000 A 
HETATM   38  C   UNL     1     -39.872  53.568 -50.477  1.00  0.00     0.001 A 
HETATM   39  C   UNL     1     -40.897  53.465 -51.419  1.00  0.00     0.009 A 
ENDBRANCH  33  34
ENDBRANCH  32  33
ENDBRANCH  30  32
ENDBRANCH  10  30
TORSDOF 10
ENDMDL
MODEL 7
REMARK VINA RESULT:      -7.2      2.050      3.241
REMARK  10 active torsions:
REMARK  status: ('A' for Active; 'I' for Inactive)
REMARK    1  A    between atoms: C_6  and  C_7 
REMARK    2  A    between atoms: C_9  and  C_10 
REMARK    3  A    between atoms: C_10  and  C_11 
REMARK       I    between atoms: C_11  and  N_12 
REMARK    4  A    between atoms: N_12  and  C_13 
REMARK    5  A    between atoms: C_13  and  C_14 
REMARK    6  A    between atoms: C_14  and  N_15 
REMARK    7  A    between atoms: C_26  and  C_27 
REMARK    8  A    between atoms: C_27  and  O_28 
REMARK    9  A    between atoms: O_28  and  C_29 
REMARK   10  A    between atoms: C_29  and  C_30 
ROOT
HETATM    1  C   UNL     1     -43.627  57.982 -54.390  1.00  0.00     0.166 C 
HETATM    2  N   UNL     1     -43.782  58.985 -55.462  1.00  0.00    -0.318 N 
HETATM    3  C   UNL     1     -44.576  59.151 -56.470  1.00  0.00     0.011 C 
HETATM    4  C   UNL     1     -42.954  60.276 -55.219  1.00  0.00     0.170 C 
HETATM    5  S   UNL     1     -42.878  61.261 -56.645  1.00  0.00    -0.086 SA
HETATM    6  C   UNL     1     -44.243  60.315 -57.382  1.00  0.00     0.135 C 
HETATM    7  N   UNL     1     -42.469  60.636 -54.084  1.00  0.00    -0.229 NA
HETATM    8  C   UNL     1     -42.838  59.897 -52.974  1.00  0.00     0.048 C 
HETATM    9  C   UNL     1     -42.596  60.611 -51.665  1.00  0.00     0.071 C 
HETATM   10  C   UNL     1     -43.420  58.682 -53.074  1.00  0.00     0.069 C 
ENDROOT
BRANCH   3  11
HETATM   11  C   UNL     1     -45.832  58.354 -56.645  1.00  0.00     0.156 C 
BRANCH  11  12
HETATM   12  C   UNL     1     -46.795  58.806 -57.712  1.00  0.00     0.223 C 
HETATM   13  N   UNL     1     -47.631  59.815 -57.301  1.00  0.00    -0.359 N 
HETATM   14  H   UNL     1     -47.578  60.103 -56.325  1.00  0.00     0.162 HD
HETATM   15  O   UNL     1     -46.842  58.289 -58.822  1.00  0.00    -0.273 OA
BRANCH  13  16
HETATM   16  C   UNL     1     -48.855  60.247 -57.981  1.00  0.00     0.150 C 
BRANCH  16  17
HETATM   17  C   UNL     1     -49.713  61.316 -57.278  1.00  0.00     0.253 C 
BRANCH  17  18
HETATM   18  N   UNL     1     -50.646  60.738 -56.235  1.00  0.00    -0.077 N 
HETATM   19  H   UNL     1     -50.131  59.966 -55.767  1.00  0.00     0.279 HD
HETATM   20  C   UNL     1     -51.044  61.710 -55.158  1.00  0.00     0.269 C 
HETATM   21  C   UNL     1     -51.863  60.120 -56.869  1.00  0.00     0.269 C 
ENDBRANCH  17  18
ENDBRANCH  16  17
ENDBRANCH  13  16
ENDBRANCH  11  12
ENDBRANCH   3  11
BRANCH   1  22
HETATM   22  C   UNL     1     -42.540  56.905 -54.641  1.00  0.00    -0.024 C 
HETATM   23  C   UNL     1     -41.268  56.796 -54.025  1.00  0.00    -0.053 C 
HETATM   24  C   UNL     1     -40.588  55.555 -54.051  1.00  0.00     0.014 C 
HETATM   25  C   UNL     1     -40.542  57.876 -53.272  1.00  0.00     0.049 C 
HETATM   26  C   UNL     1     -41.095  54.439 -54.714  1.00  0.00    -0.061 C 
HETATM   27  C   UNL     1     -40.429  53.100 -54.589  1.00  0.00     0.048 C 
HETATM   28  C   UNL     1     -42.266  54.585 -55.445  1.00  0.00     0.007 C 
HETATM   29  C   UNL     1     -42.963  55.797 -55.421  1.00  0.00     0.011 C 
ENDBRANCH   1  22
BRANCH  10  30
HETATM   30  C   UNL     1     -44.164  58.143 -51.914  1.00  0.00     0.294 C 
HETATM   31  O   UNL     1     -45.368  58.297 -51.802  1.00  0.00    -0.259 OA
BRANCH  30  32
HETATM   32  O   UNL     1     -43.368  57.378 -51.146  1.00  0.00    -0.313 OA
BRANCH  32  33
HETATM   33  C   UNL     1     -43.677  55.973 -51.130  1.00  0.00     0.217 C 
BRANCH  33  34
HETATM   34  C   UNL     1     -42.420  55.182 -50.854  1.00  0.00    -0.034 A 
HETATM   35  C   UNL     1     -42.304  53.848 -51.273  1.00  0.00     0.009 A 
HETATM   36  C   UNL     1     -41.128  53.130 -51.037  1.00  0.00     0.001 A 
HETATM   37  C   UNL     1     -40.061  53.735 -50.376  1.00  0.00     0.000 A 
HETATM   38  C   UNL     1     -40.169  55.055 -49.945  1.00  0.00     0.001 A 
HETATM   39  C   UNL     1     -41.343  55.774 -50.178  1.00  0.00     0.009 A 
ENDBRANCH  33  34
ENDBRANCH  32  33
ENDBRANCH  30  32
ENDBRANCH  10  30
TORSDOF 10
ENDMDL
MODEL 8
REMARK VINA RESULT:      -7.2      2.475      4.171
REMARK  10 active torsions:
REMARK  status: ('A' for Active; 'I' for Inactive)
REMARK    1  A    between atoms: C_6  and  C_7 
REMARK    2  A    between atoms: C_9  and  C_10 
REMARK    3  A    between atoms: C_10  and  C_11 
REMARK       I    between atoms: C_11  and  N_12 
REMARK    4  A    between atoms: N_12  and  C_13 
REMARK    5  A    between atoms: C_13  and  C_14 
REMARK    6  A    between atoms: C_14  and  N_15 
REMARK    7  A    between atoms: C_26  and  C_27 
REMARK    8  A    between atoms: C_27  and  O_28 
REMARK    9  A    between atoms: O_28  and  C_29 
REMARK   10  A    between atoms: C_29  and  C_30 
ROOT
HETATM    1  C   UNL     1     -42.745  58.434 -52.896  1.00  0.00     0.166 C 
HETATM    2  N   UNL     1     -44.036  59.016 -52.481  1.00  0.00    -0.318 N 
HETATM    3  C   UNL     1     -44.855  59.895 -52.959  1.00  0.00     0.011 C 
HETATM    4  C   UNL     1     -44.706  58.247 -51.309  1.00  0.00     0.170 C 
HETATM    5  S   UNL     1     -46.016  59.152 -50.621  1.00  0.00    -0.086 SA
HETATM    6  C   UNL     1     -46.030  60.250 -52.069  1.00  0.00     0.135 C 
HETATM    7  N   UNL     1     -44.408  57.049 -50.951  1.00  0.00    -0.229 NA
HETATM    8  C   UNL     1     -43.536  56.343 -51.760  1.00  0.00     0.048 C 
HETATM    9  C   UNL     1     -43.573  54.850 -51.530  1.00  0.00     0.071 C 
HETATM   10  C   UNL     1     -42.781  56.942 -52.705  1.00  0.00     0.069 C 
ENDROOT
BRANCH   3  11
HETATM   11  C   UNL     1     -44.750  60.416 -54.360  1.00  0.00     0.156 C 
BRANCH  11  12
HETATM   12  C   UNL     1     -44.646  59.402 -55.469  1.00  0.00     0.223 C 
HETATM   13  N   UNL     1     -43.584  59.622 -56.313  1.00  0.00    -0.359 N 
HETATM   14  H   UNL     1     -43.030  60.463 -56.163  1.00  0.00     0.162 HD
HETATM   15  O   UNL     1     -45.458  58.496 -55.615  1.00  0.00    -0.273 OA
BRANCH  13  16
HETATM   16  C   UNL     1     -43.397  59.016 -57.633  1.00  0.00     0.150 C 
BRANCH  16  17
HETATM   17  C   UNL     1     -42.016  58.406 -57.940  1.00  0.00     0.253 C 
BRANCH  17  18
HETATM   18  N   UNL     1     -42.097  57.130 -58.752  1.00  0.00    -0.077 N 
HETATM   19  H   UNL     1     -41.226  56.597 -58.560  1.00  0.00     0.279 HD
HETATM   20  C   UNL     1     -43.246  56.234 -58.375  1.00  0.00     0.269 C 
HETATM   21  C   UNL     1     -42.109  57.419 -60.228  1.00  0.00     0.269 C 
ENDBRANCH  17  18
ENDBRANCH  16  17
ENDBRANCH  13  16
ENDBRANCH  11  12
ENDBRANCH   3  11
BRANCH   1  22
HETATM   22  C   UNL     1     -41.491  59.065 -52.238  1.00  0.00    -0.024 C 
HETATM   23  C   UNL     1     -41.412  59.741 -50.994  1.00  0.00    -0.053 C 
HETATM   24  C   UNL     1     -40.155  59.879 -50.357  1.00  0.00     0.014 C 
HETATM   25  C   UNL     1     -42.561  60.314 -50.212  1.00  0.00     0.049 C 
HETATM   26  C   UNL     1     -38.972  59.425 -50.935  1.00  0.00    -0.061 C 
HETATM   27  C   UNL     1     -37.682  59.444 -50.165  1.00  0.00     0.048 C 
HETATM   28  C   UNL     1     -39.026  58.898 -52.218  1.00  0.00     0.007 C 
HETATM   29  C   UNL     1     -40.258  58.738 -52.860  1.00  0.00     0.011 C 
ENDBRANCH   1  22
BRANCH  10  30
HETATM   30  C   UNL     1     -42.210  56.122 -53.796  1.00  0.00     0.294 C 
HETATM   31  O   UNL     1     -42.559  56.269 -54.955  1.00  0.00    -0.259 OA
BRANCH  30  32
HETATM   32  O   UNL     1     -41.203  55.353 -53.343  1.00  0.00    -0.313 OA
BRANCH  32  33
HETATM   33  C   UNL     1     -40.661  54.412 -54.287  1.00  0.00     0.217 C 
BRANCH  33  34
HETATM   34  C   UNL     1     -40.305  53.129 -53.576  1.00  0.00    -0.034 A 
HETATM   35  C   UNL     1     -40.096  51.943 -54.295  1.00  0.00     0.009 A 
HETATM   36  C   UNL     1     -39.740  50.764 -53.632  1.00  0.00     0.001 A 
HETATM   37  C   UNL     1     -39.596  50.759 -52.246  1.00  0.00     0.000 A 
HETATM   38  C   UNL     1     -39.813  51.928 -51.520  1.00  0.00     0.001 A 
HETATM   39  C   UNL     1     -40.170  53.106 -52.179  1.00  0.00     0.009 A 
ENDBRANCH  33  34
ENDBRANCH  32  33
ENDBRANCH  30  32
ENDBRANCH  10  30
TORSDOF 10
ENDMDL
MODEL 9
REMARK VINA RESULT:      -7.1      3.367      7.117
REMARK  10 active torsions:
REMARK  status: ('A' for Active; 'I' for Inactive)
REMARK    1  A    between atoms: C_6  and  C_7 
REMARK    2  A    between atoms: C_9  and  C_10 
REMARK    3  A    between atoms: C_10  and  C_11 
REMARK       I    between atoms: C_11  and  N_12 
REMARK    4  A    between atoms: N_12  and  C_13 
REMARK    5  A    between atoms: C_13  and  C_14 
REMARK    6  A    between atoms: C_14  and  N_15 
REMARK    7  A    between atoms: C_26  and  C_27 
REMARK    8  A    between atoms: C_27  and  O_28 
REMARK    9  A    between atoms: O_28  and  C_29 
REMARK   10  A    between atoms: C_29  and  C_30 
ROOT
HETATM    1  C   UNL     1     -43.227  58.854 -52.123  1.00  0.00     0.166 C 
HETATM    2  N   UNL     1     -41.869  58.502 -51.664  1.00  0.00    -0.318 N 
HETATM    3  C   UNL     1     -41.355  57.608 -50.884  1.00  0.00     0.011 C 
HETATM    4  C   UNL     1     -40.747  59.215 -52.468  1.00  0.00     0.170 C 
HETATM    5  S   UNL     1     -39.208  59.063 -51.683  1.00  0.00    -0.086 SA
HETATM    6  C   UNL     1     -39.866  57.739 -50.627  1.00  0.00     0.135 C 
HETATM    7  N   UNL     1     -40.902  59.762 -53.621  1.00  0.00    -0.229 NA
HETATM    8  C   UNL     1     -42.117  59.571 -54.255  1.00  0.00     0.048 C 
HETATM    9  C   UNL     1     -42.077  59.856 -55.738  1.00  0.00     0.071 C 
HETATM   10  C   UNL     1     -43.207  59.108 -53.605  1.00  0.00     0.069 C 
ENDROOT
BRANCH   3  11
HETATM   11  C   UNL     1     -42.133  56.428 -50.389  1.00  0.00     0.156 C 
BRANCH  11  12
HETATM   12  C   UNL     1     -41.351  55.266 -49.836  1.00  0.00     0.223 C 
HETATM   13  N   UNL     1     -41.077  54.297 -50.770  1.00  0.00    -0.359 N 
HETATM   14  H   UNL     1     -41.480  54.412 -51.699  1.00  0.00     0.162 HD
HETATM   15  O   UNL     1     -41.028  55.187 -48.656  1.00  0.00    -0.273 OA
BRANCH  13  16
HETATM   16  C   UNL     1     -40.620  52.935 -50.487  1.00  0.00     0.150 C 
BRANCH  16  17
HETATM   17  C   UNL     1     -39.606  52.312 -51.466  1.00  0.00     0.253 C 
BRANCH  17  18
HETATM   18  N   UNL     1     -39.970  50.901 -51.880  1.00  0.00    -0.077 N 
HETATM   19  H   UNL     1     -41.007  50.846 -51.873  1.00  0.00     0.279 HD
HETATM   20  C   UNL     1     -39.524  50.533 -53.269  1.00  0.00     0.269 C 
HETATM   21  C   UNL     1     -39.478  49.892 -50.878  1.00  0.00     0.269 C 
ENDBRANCH  17  18
ENDBRANCH  16  17
ENDBRANCH  13  16
ENDBRANCH  11  12
ENDBRANCH   3  11
BRANCH   1  22
HETATM   22  C   UNL     1     -43.907  60.017 -51.353  1.00  0.00    -0.024 C 
HETATM   23  C   UNL     1     -45.187  60.020 -50.742  1.00  0.00    -0.053 C 
HETATM   24  C   UNL     1     -45.476  60.983 -49.745  1.00  0.00     0.014 C 
HETATM   25  C   UNL     1     -46.306  59.053 -51.003  1.00  0.00     0.049 C 
HETATM   26  C   UNL     1     -44.568  61.974 -49.378  1.00  0.00    -0.061 C 
HETATM   27  C   UNL     1     -44.845  62.877 -48.210  1.00  0.00     0.048 C 
HETATM   28  C   UNL     1     -43.375  62.065 -50.079  1.00  0.00     0.007 C 
HETATM   29  C   UNL     1     -43.060  61.116 -51.057  1.00  0.00     0.011 C 
ENDBRANCH   1  22
BRANCH  10  30
HETATM   30  C   UNL     1     -44.320  58.529 -54.390  1.00  0.00     0.294 C 
HETATM   31  O   UNL     1     -45.348  59.151 -54.595  1.00  0.00    -0.259 OA
BRANCH  30  32
HETATM   32  O   UNL     1     -43.964  57.349 -54.930  1.00  0.00    -0.313 OA
BRANCH  32  33
HETATM   33  C   UNL     1     -43.964  56.225 -54.031  1.00  0.00     0.217 C 
BRANCH  33  34
HETATM   34  C   UNL     1     -42.717  55.401 -54.251  1.00  0.00    -0.034 A 
HETATM   35  C   UNL     1     -42.773  54.000 -54.256  1.00  0.00     0.009 A 
HETATM   36  C   UNL     1     -41.620  53.244 -54.487  1.00  0.00     0.001 A 
HETATM   37  C   UNL     1     -40.400  53.881 -54.710  1.00  0.00     0.000 A 
HETATM   38  C   UNL     1     -40.330  55.272 -54.696  1.00  0.00     0.001 A 
HETATM   39  C   UNL     1     -41.480  56.029 -54.464  1.00  0.00     0.009 A 
ENDBRANCH  33  34
ENDBRANCH  32  33
ENDBRANCH  30  32
ENDBRANCH  10  30
TORSDOF 10
ENDMDL
MODEL 10
REMARK VINA RESULT:      -7.1      2.294      3.573
REMARK  10 active torsions:
REMARK  status: ('A' for Active; 'I' for Inactive)
REMARK    1  A    between atoms: C_6  and  C_7 
REMARK    2  A    between atoms: C_9  and  C_10 
REMARK    3  A    between atoms: C_10  and  C_11 
REMARK       I    between atoms: C_11  and  N_12 
REMARK    4  A    between atoms: N_12  and  C_13 
REMARK    5  A    between atoms: C_13  and  C_14 
REMARK    6  A    between atoms: C_14  and  N_15 
REMARK    7  A    between atoms: C_26  and  C_27 
REMARK    8  A    between atoms: C_27  and  O_28 
REMARK    9  A    between atoms: O_28  and  C_29 
REMARK   10  A    between atoms: C_29  and  C_30 
ROOT
HETATM    1  C   UNL     1     -43.550  59.785 -52.443  1.00  0.00     0.166 C 
HETATM    2  N   UNL     1     -43.534  61.028 -53.240  1.00  0.00    -0.318 N 
HETATM    3  C   UNL     1     -43.534  61.324 -54.499  1.00  0.00     0.011 C 
HETATM    4  C   UNL     1     -43.807  62.301 -52.394  1.00  0.00     0.170 C 
HETATM    5  S   UNL     1     -43.429  63.745 -53.279  1.00  0.00    -0.086 SA
HETATM    6  C   UNL     1     -43.383  62.796 -54.827  1.00  0.00     0.135 C 
HETATM    7  N   UNL     1     -44.345  62.307 -51.226  1.00  0.00    -0.229 NA
HETATM    8  C   UNL     1     -44.849  61.109 -50.755  1.00  0.00     0.048 C 
HETATM    9  C   UNL     1     -45.823  61.271 -49.611  1.00  0.00     0.071 C 
HETATM   10  C   UNL     1     -44.541  59.921 -51.320  1.00  0.00     0.069 C 
ENDROOT
BRANCH   3  11
HETATM   11  C   UNL     1     -43.822  60.310 -55.564  1.00  0.00     0.156 C 
BRANCH  11  12
HETATM   12  C   UNL     1     -42.845  60.211 -56.707  1.00  0.00     0.223 C 
HETATM   13  N   UNL     1     -43.417  59.779 -57.879  1.00  0.00    -0.359 N 
HETATM   14  H   UNL     1     -44.398  59.502 -57.850  1.00  0.00     0.162 HD
HETATM   15  O   UNL     1     -41.651  60.458 -56.580  1.00  0.00    -0.273 OA
BRANCH  13  16
HETATM   16  C   UNL     1     -42.697  59.291 -59.057  1.00  0.00     0.150 C 
BRANCH  16  17
HETATM   17  C   UNL     1     -41.780  58.068 -58.867  1.00  0.00     0.253 C 
BRANCH  17  18
HETATM   18  N   UNL     1     -42.487  56.751 -59.110  1.00  0.00    -0.077 N 
HETATM   19  H   UNL     1     -41.770  56.087 -59.464  1.00  0.00     0.279 HD
HETATM   20  C   UNL     1     -43.077  56.133 -57.871  1.00  0.00     0.269 C 
HETATM   21  C   UNL     1     -43.527  56.878 -60.189  1.00  0.00     0.269 C 
ENDBRANCH  17  18
ENDBRANCH  16  17
ENDBRANCH  13  16
ENDBRANCH  11  12
ENDBRANCH   3  11
BRANCH   1  22
HETATM   22  C   UNL     1     -42.167  59.308 -51.930  1.00  0.00    -0.024 C 
HETATM   23  C   UNL     1     -41.120  58.717 -52.682  1.00  0.00    -0.053 C 
HETATM   24  C   UNL     1     -39.802  58.729 -52.165  1.00  0.00     0.014 C 
HETATM   25  C   UNL     1     -41.237  58.094 -54.044  1.00  0.00     0.049 C 
HETATM   26  C   UNL     1     -39.498  59.250 -50.908  1.00  0.00    -0.061 C 
HETATM   27  C   UNL     1     -38.072  59.390 -50.458  1.00  0.00     0.048 C 
HETATM   28  C   UNL     1     -40.542  59.691 -50.109  1.00  0.00     0.007 C 
HETATM   29  C   UNL     1     -41.849  59.704 -50.604  1.00  0.00     0.011 C 
ENDBRANCH   1  22
BRANCH  10  30
HETATM   30  C   UNL     1     -45.415  58.755 -51.064  1.00  0.00     0.294 C 
HETATM   31  O   UNL     1     -46.499  58.877 -50.520  1.00  0.00    -0.259 OA
BRANCH  30  32
HETATM   32  O   UNL     1     -44.913  57.644 -51.634  1.00  0.00    -0.313 OA
BRANCH  32  33
HETATM   33  C   UNL     1     -44.558  56.583 -50.729  1.00  0.00     0.217 C 
BRANCH  33  34
HETATM   34  C   UNL     1     -43.284  55.923 -51.198  1.00  0.00    -0.034 A 
HETATM   35  C   UNL     1     -43.220  55.291 -52.449  1.00  0.00     0.009 A 
HETATM   36  C   UNL     1     -42.029  54.706 -52.888  1.00  0.00     0.001 A 
HETATM   37  C   UNL     1     -40.893  54.741 -52.081  1.00  0.00     0.000 A 
HETATM   38  C   UNL     1     -40.948  55.356 -50.832  1.00  0.00     0.001 A 
HETATM   39  C   UNL     1     -42.136  55.940 -50.390  1.00  0.00     0.009 A 
ENDBRANCH  33  34
ENDBRANCH  32  33
ENDBRANCH  30  32
ENDBRANCH  10  30
TORSDOF 10
ENDMDL
