MODEL 1
REMARK VINA RESULT:      -7.9      0.000      0.000
REMARK  5 active torsions:
REMARK  status: ('A' for Active; 'I' for Inactive)
REMARK    1  A    between atoms: C_4  and  C_5 
REMARK       I    between atoms: C_5  and  N_6 
REMARK    2  A    between atoms: N_6  and  C_7 
REMARK    3  A    between atoms: C_7  and  C_8 
REMARK    4  A    between atoms: C_8  and  C_9 
REMARK    5  A    between atoms: C_18  and  O_19 
ROOT
HETATM    1  C   UNL     1     -42.107  56.859 -55.978  1.00  0.00     0.254 C 
HETATM    2  N   UNL     1     -41.478  55.742 -55.467  1.00  0.00    -0.356 N 
HETATM    3  O   UNL     1     -42.311  57.876 -55.320  1.00  0.00    -0.268 OA
HETATM    4  H   UNL     1     -41.060  55.092 -56.123  1.00  0.00     0.162 HD
ENDROOT
BRANCH   1   5
HETATM    5  C   UNL     1     -42.509  56.824 -57.412  1.00  0.00     0.066 A 
HETATM    6  C   UNL     1     -42.128  57.845 -58.296  1.00  0.00     0.026 A 
HETATM    7  C   UNL     1     -42.516  57.806 -59.641  1.00  0.00    -0.060 A 
HETATM    8  C   UNL     1     -42.074  58.873 -60.600  1.00  0.00     0.048 C 
HETATM    9  C   UNL     1     -43.275  56.723 -60.103  1.00  0.00     0.016 A 
HETATM   10  C   UNL     1     -43.662  55.686 -59.241  1.00  0.00    -0.027 A 
HETATM   11  C   UNL     1     -43.253  55.734 -57.901  1.00  0.00     0.087 A 
HETATM   12  C   UNL     1     -44.433  54.517 -59.784  1.00  0.00     0.051 C 
BRANCH  11  13
HETATM   13  O   UNL     1     -43.603  54.675 -57.100  1.00  0.00    -0.359 OA
HETATM   14  H   UNL     1     -44.585  54.625 -57.075  1.00  0.00     0.218 HD
ENDBRANCH  11  13
ENDBRANCH   1   5
BRANCH   2  15
HETATM   15  C   UNL     1     -40.945  55.742 -54.114  1.00  0.00     0.136 C 
BRANCH  15  16
HETATM   16  C   UNL     1     -41.642  54.714 -53.174  1.00  0.00    -0.004 C 
HETATM   17  C   UNL     1     -41.647  55.290 -51.739  1.00  0.00     0.021 C 
HETATM   18  C   UNL     1     -43.121  54.594 -53.616  1.00  0.00     0.021 C 
BRANCH  16  19
HETATM   19  C   UNL     1     -40.890  53.370 -53.163  1.00  0.00    -0.046 A 
HETATM   20  C   UNL     1     -40.198  52.951 -52.013  1.00  0.00     0.027 A 
HETATM   21  C   UNL     1     -39.524  51.739 -52.022  1.00  0.00     0.116 A 
HETATM   22  N   UNL     1     -39.484  50.911 -53.084  1.00  0.00    -0.273 NA
HETATM   23  C   UNL     1     -40.160  51.310 -54.178  1.00  0.00     0.116 A 
HETATM   24  C   UNL     1     -40.862  52.507 -54.266  1.00  0.00     0.027 A 
ENDBRANCH  16  19
ENDBRANCH  15  16
ENDBRANCH   2  15
TORSDOF 5
ENDMDL
MODEL 2
REMARK VINA RESULT:      -7.6      0.851      2.115
REMARK  5 active torsions:
REMARK  status: ('A' for Active; 'I' for Inactive)
REMARK    1  A    between atoms: C_4  and  C_5 
REMARK       I    between atoms: C_5  and  N_6 
REMARK    2  A    between atoms: N_6  and  C_7 
REMARK    3  A    between atoms: C_7  and  C_8 
REMARK    4  A    between atoms: C_8  and  C_9 
REMARK    5  A    between atoms: C_18  and  O_19 
ROOT
HETATM    1  C   UNL     1     -42.127  56.633 -56.198  1.00  0.00     0.254 C 
HETATM    2  N   UNL     1     -41.418  55.514 -55.811  1.00  0.00    -0.356 N 
HETATM    3  O   UNL     1     -42.298  57.607 -55.468  1.00  0.00    -0.268 OA
HETATM    4  H   UNL     1     -41.046  54.915 -56.538  1.00  0.00     0.162 HD
ENDROOT
BRANCH   1   5
HETATM    5  C   UNL     1     -42.665  56.658 -57.587  1.00  0.00     0.066 A 
HETATM    6  C   UNL     1     -43.379  55.568 -58.107  1.00  0.00     0.026 A 
HETATM    7  C   UNL     1     -43.876  55.600 -59.416  1.00  0.00    -0.060 A 
HETATM    8  C   UNL     1     -44.677  54.454 -59.962  1.00  0.00     0.048 C 
HETATM    9  C   UNL     1     -43.670  56.744 -60.199  1.00  0.00     0.016 A 
HETATM   10  C   UNL     1     -42.966  57.849 -59.698  1.00  0.00    -0.027 A 
HETATM   11  C   UNL     1     -42.488  57.806 -58.381  1.00  0.00     0.087 A 
HETATM   12  C   UNL     1     -42.808  59.077 -60.550  1.00  0.00     0.051 C 
BRANCH  11  13
HETATM   13  O   UNL     1     -41.852  58.928 -57.907  1.00  0.00    -0.359 OA
HETATM   14  H   UNL     1     -42.455  59.695 -58.035  1.00  0.00     0.218 HD
ENDBRANCH  11  13
ENDBRANCH   1   5
BRANCH   2  15
HETATM   15  C   UNL     1     -40.757  55.464 -54.516  1.00  0.00     0.136 C 
BRANCH  15  16
HETATM   16  C   UNL     1     -41.511  54.590 -53.470  1.00  0.00    -0.004 C 
HETATM   17  C   UNL     1     -41.557  55.364 -52.132  1.00  0.00     0.021 C 
HETATM   18  C   UNL     1     -42.975  54.434 -53.950  1.00  0.00     0.021 C 
BRANCH  16  19
HETATM   19  C   UNL     1     -40.791  53.249 -53.240  1.00  0.00    -0.046 A 
HETATM   20  C   UNL     1     -40.272  52.928 -51.973  1.00  0.00     0.027 A 
HETATM   21  C   UNL     1     -39.623  51.716 -51.785  1.00  0.00     0.116 A 
HETATM   22  N   UNL     1     -39.450  50.800 -52.756  1.00  0.00    -0.273 NA
HETATM   23  C   UNL     1     -39.960  51.105 -53.965  1.00  0.00     0.116 A 
HETATM   24  C   UNL     1     -40.624  52.293 -54.250  1.00  0.00     0.027 A 
ENDBRANCH  16  19
ENDBRANCH  15  16
ENDBRANCH   2  15
TORSDOF 5
ENDMDL
MODEL 3
REMARK VINA RESULT:      -7.5      1.376      2.242
REMARK  5 active torsions:
REMARK  status: ('A' for Active; 'I' for Inactive)
REMARK    1  A    between atoms: C_4  and  C_5 
REMARK       I    between atoms: C_5  and  N_6 
REMARK    2  A    between atoms: N_6  and  C_7 
REMARK    3  A    between atoms: C_7  and  C_8 
REMARK    4  A    between atoms: C_8  and  C_9 
REMARK    5  A    between atoms: C_18  and  O_19 
ROOT
HETATM    1  C   UNL     1     -42.172  56.794 -56.108  1.00  0.00     0.254 C 
HETATM    2  N   UNL     1     -41.386  55.733 -55.711  1.00  0.00    -0.356 N 
HETATM    3  O   UNL     1     -42.515  57.699 -55.350  1.00  0.00    -0.268 OA
HETATM    4  H   UNL     1     -40.884  55.221 -56.426  1.00  0.00     0.162 HD
ENDROOT
BRANCH   1   5
HETATM    5  C   UNL     1     -42.575  56.851 -57.541  1.00  0.00     0.066 A 
HETATM    6  C   UNL     1     -42.195  57.926 -58.359  1.00  0.00     0.026 A 
HETATM    7  C   UNL     1     -42.585  57.972 -59.704  1.00  0.00    -0.060 A 
HETATM    8  C   UNL     1     -42.144  59.098 -60.593  1.00  0.00     0.048 C 
HETATM    9  C   UNL     1     -43.344  56.920 -60.233  1.00  0.00     0.016 A 
HETATM   10  C   UNL     1     -43.730  55.831 -59.437  1.00  0.00    -0.027 A 
HETATM   11  C   UNL     1     -43.319  55.794 -58.097  1.00  0.00     0.087 A 
HETATM   12  C   UNL     1     -44.502  54.698 -60.053  1.00  0.00     0.051 C 
BRANCH  11  13
HETATM   13  O   UNL     1     -43.669  54.686 -57.365  1.00  0.00    -0.359 OA
HETATM   14  H   UNL     1     -44.421  54.245 -57.821  1.00  0.00     0.218 HD
ENDBRANCH  11  13
ENDBRANCH   1   5
BRANCH   2  15
HETATM   15  C   UNL     1     -40.849  55.670 -54.360  1.00  0.00     0.136 C 
BRANCH  15  16
HETATM   16  C   UNL     1     -41.121  54.312 -53.648  1.00  0.00    -0.004 C 
HETATM   17  C   UNL     1     -42.609  53.943 -53.857  1.00  0.00     0.021 C 
HETATM   18  C   UNL     1     -40.284  53.225 -54.364  1.00  0.00     0.021 C 
BRANCH  16  19
HETATM   19  C   UNL     1     -40.844  54.409 -52.137  1.00  0.00    -0.046 A 
HETATM   20  C   UNL     1     -41.288  55.522 -51.402  1.00  0.00     0.027 A 
HETATM   21  C   UNL     1     -41.027  55.594 -50.041  1.00  0.00     0.116 A 
HETATM   22  N   UNL     1     -40.359  54.646 -49.355  1.00  0.00    -0.273 NA
HETATM   23  C   UNL     1     -39.947  53.576 -50.061  1.00  0.00     0.116 A 
HETATM   24  C   UNL     1     -40.160  53.415 -51.425  1.00  0.00     0.027 A 
ENDBRANCH  16  19
ENDBRANCH  15  16
ENDBRANCH   2  15
TORSDOF 5
ENDMDL
MODEL 4
REMARK VINA RESULT:      -7.4      3.481      4.808
REMARK  5 active torsions:
REMARK  status: ('A' for Active; 'I' for Inactive)
REMARK    1  A    between atoms: C_4  and  C_5 
REMARK       I    between atoms: C_5  and  N_6 
REMARK    2  A    between atoms: N_6  and  C_7 
REMARK    3  A    between atoms: C_7  and  C_8 
REMARK    4  A    between atoms: C_8  and  C_9 
REMARK    5  A    between atoms: C_18  and  O_19 
ROOT
HETATM    1  C   UNL     1     -41.709  56.785 -53.062  1.00  0.00     0.254 C 
HETATM    2  N   UNL     1     -41.865  55.470 -52.675  1.00  0.00    -0.356 N 
HETATM    3  O   UNL     1     -40.631  57.261 -53.409  1.00  0.00    -0.268 OA
HETATM    4  H   UNL     1     -42.794  55.070 -52.719  1.00  0.00     0.162 HD
ENDROOT
BRANCH   1   5
HETATM    5  C   UNL     1     -42.929  57.639 -53.097  1.00  0.00     0.066 A 
HETATM    6  C   UNL     1     -43.426  58.142 -54.309  1.00  0.00     0.026 A 
HETATM    7  C   UNL     1     -44.571  58.950 -54.330  1.00  0.00    -0.060 A 
HETATM    8  C   UNL     1     -45.131  59.454 -55.628  1.00  0.00     0.048 C 
HETATM    9  C   UNL     1     -45.230  59.234 -53.127  1.00  0.00     0.016 A 
HETATM   10  C   UNL     1     -44.757  58.735 -51.904  1.00  0.00    -0.027 A 
HETATM   11  C   UNL     1     -43.618  57.918 -51.902  1.00  0.00     0.087 A 
HETATM   12  C   UNL     1     -45.520  59.022 -50.641  1.00  0.00     0.051 C 
BRANCH  11  13
HETATM   13  O   UNL     1     -43.217  57.404 -50.694  1.00  0.00    -0.359 OA
HETATM   14  H   UNL     1     -43.410  56.439 -50.695  1.00  0.00     0.218 HD
ENDBRANCH  11  13
ENDBRANCH   1   5
BRANCH   2  15
HETATM   15  C   UNL     1     -40.747  54.541 -52.732  1.00  0.00     0.136 C 
BRANCH  15  16
HETATM   16  C   UNL     1     -40.805  53.577 -53.954  1.00  0.00    -0.004 C 
HETATM   17  C   UNL     1     -42.269  53.505 -54.449  1.00  0.00     0.021 C 
HETATM   18  C   UNL     1     -39.975  54.210 -55.097  1.00  0.00     0.021 C 
BRANCH  16  19
HETATM   19  C   UNL     1     -40.344  52.159 -53.569  1.00  0.00    -0.046 A 
HETATM   20  C   UNL     1     -40.364  51.122 -54.519  1.00  0.00     0.027 A 
HETATM   21  C   UNL     1     -39.948  49.850 -54.154  1.00  0.00     0.116 A 
HETATM   22  N   UNL     1     -39.514  49.529 -52.920  1.00  0.00    -0.273 NA
HETATM   23  C   UNL     1     -39.483  50.528 -52.018  1.00  0.00     0.116 A 
HETATM   24  C   UNL     1     -39.882  51.832 -52.288  1.00  0.00     0.027 A 
ENDBRANCH  16  19
ENDBRANCH  15  16
ENDBRANCH   2  15
TORSDOF 5
ENDMDL
MODEL 5
REMARK VINA RESULT:      -7.3      2.822      6.725
REMARK  5 active torsions:
REMARK  status: ('A' for Active; 'I' for Inactive)
REMARK    1  A    between atoms: C_4  and  C_5 
REMARK       I    between atoms: C_5  and  N_6 
REMARK    2  A    between atoms: N_6  and  C_7 
REMARK    3  A    between atoms: C_7  and  C_8 
REMARK    4  A    between atoms: C_8  and  C_9 
REMARK    5  A    between atoms: C_18  and  O_19 
ROOT
HETATM    1  C   UNL     1     -42.133  54.367 -54.834  1.00  0.00     0.254 C 
HETATM    2  N   UNL     1     -41.719  55.679 -54.941  1.00  0.00    -0.356 N 
HETATM    3  O   UNL     1     -43.122  53.924 -55.413  1.00  0.00    -0.268 OA
HETATM    4  H   UNL     1     -40.754  55.891 -54.717  1.00  0.00     0.162 HD
ENDROOT
BRANCH   1   5
HETATM    5  C   UNL     1     -41.300  53.450 -54.006  1.00  0.00     0.066 A 
HETATM    6  C   UNL     1     -40.863  52.216 -54.511  1.00  0.00     0.026 A 
HETATM    7  C   UNL     1     -40.085  51.358 -53.723  1.00  0.00    -0.060 A 
HETATM    8  C   UNL     1     -39.578  50.057 -54.273  1.00  0.00     0.048 C 
HETATM    9  C   UNL     1     -39.730  51.754 -52.426  1.00  0.00     0.016 A 
HETATM   10  C   UNL     1     -40.149  52.986 -51.903  1.00  0.00    -0.027 A 
HETATM   11  C   UNL     1     -40.915  53.839 -52.710  1.00  0.00     0.087 A 
HETATM   12  C   UNL     1     -39.706  53.397 -50.527  1.00  0.00     0.051 C 
BRANCH  11  13
HETATM   13  O   UNL     1     -41.259  55.059 -52.184  1.00  0.00    -0.359 OA
HETATM   14  H   UNL     1     -40.911  55.103 -51.265  1.00  0.00     0.218 HD
ENDBRANCH  11  13
ENDBRANCH   1   5
BRANCH   2  15
HETATM   15  C   UNL     1     -42.406  56.606 -55.827  1.00  0.00     0.136 C 
BRANCH  15  16
HETATM   16  C   UNL     1     -43.177  57.728 -55.070  1.00  0.00    -0.004 C 
HETATM   17  C   UNL     1     -43.279  58.960 -56.000  1.00  0.00     0.021 C 
HETATM   18  C   UNL     1     -44.622  57.228 -54.826  1.00  0.00     0.021 C 
BRANCH  16  19
HETATM   19  C   UNL     1     -42.441  58.140 -53.783  1.00  0.00    -0.046 A 
HETATM   20  C   UNL     1     -43.068  58.007 -52.531  1.00  0.00     0.027 A 
HETATM   21  C   UNL     1     -42.390  58.387 -51.381  1.00  0.00     0.116 A 
HETATM   22  N   UNL     1     -41.140  58.888 -51.379  1.00  0.00    -0.273 NA
HETATM   23  C   UNL     1     -40.539  59.001 -52.579  1.00  0.00     0.116 A 
HETATM   24  C   UNL     1     -41.137  58.650 -53.784  1.00  0.00     0.027 A 
ENDBRANCH  16  19
ENDBRANCH  15  16
ENDBRANCH   2  15
TORSDOF 5
ENDMDL
MODEL 6
REMARK VINA RESULT:      -7.3      1.544      3.063
REMARK  5 active torsions:
REMARK  status: ('A' for Active; 'I' for Inactive)
REMARK    1  A    between atoms: C_4  and  C_5 
REMARK       I    between atoms: C_5  and  N_6 
REMARK    2  A    between atoms: N_6  and  C_7 
REMARK    3  A    between atoms: C_7  and  C_8 
REMARK    4  A    between atoms: C_8  and  C_9 
REMARK    5  A    between atoms: C_18  and  O_19 
ROOT
HETATM    1  C   UNL     1     -42.268  56.686 -56.194  1.00  0.00     0.254 C 
HETATM    2  N   UNL     1     -41.407  55.678 -55.812  1.00  0.00    -0.356 N 
HETATM    3  O   UNL     1     -42.675  57.552 -55.423  1.00  0.00    -0.268 OA
HETATM    4  H   UNL     1     -40.870  55.214 -56.535  1.00  0.00     0.162 HD
ENDROOT
BRANCH   1   5
HETATM    5  C   UNL     1     -42.675  56.735 -57.626  1.00  0.00     0.066 A 
HETATM    6  C   UNL     1     -43.406  55.688 -58.207  1.00  0.00     0.026 A 
HETATM    7  C   UNL     1     -43.779  55.740 -59.557  1.00  0.00    -0.060 A 
HETATM    8  C   UNL     1     -44.598  54.643 -60.171  1.00  0.00     0.048 C 
HETATM    9  C   UNL     1     -43.431  56.863 -60.319  1.00  0.00     0.016 A 
HETATM   10  C   UNL     1     -42.706  57.926 -59.759  1.00  0.00    -0.027 A 
HETATM   11  C   UNL     1     -42.354  57.863 -58.404  1.00  0.00     0.087 A 
HETATM   12  C   UNL     1     -42.395  59.134 -60.596  1.00  0.00     0.051 C 
BRANCH  11  13
HETATM   13  O   UNL     1     -41.694  58.946 -57.876  1.00  0.00    -0.359 OA
HETATM   14  H   UNL     1     -41.828  59.708 -58.484  1.00  0.00     0.218 HD
ENDBRANCH  11  13
ENDBRANCH   1   5
BRANCH   2  15
HETATM   15  C   UNL     1     -40.867  55.634 -54.462  1.00  0.00     0.136 C 
BRANCH  15  16
HETATM   16  C   UNL     1     -41.156  54.294 -53.723  1.00  0.00    -0.004 C 
HETATM   17  C   UNL     1     -42.646  53.934 -53.931  1.00  0.00     0.021 C 
HETATM   18  C   UNL     1     -40.325  53.184 -54.412  1.00  0.00     0.021 C 
BRANCH  16  19
HETATM   19  C   UNL     1     -40.885  54.419 -52.213  1.00  0.00    -0.046 A 
HETATM   20  C   UNL     1     -40.287  53.360 -51.507  1.00  0.00     0.027 A 
HETATM   21  C   UNL     1     -40.053  53.489 -50.145  1.00  0.00     0.116 A 
HETATM   22  N   UNL     1     -40.367  54.588 -49.432  1.00  0.00    -0.273 NA
HETATM   23  C   UNL     1     -40.926  55.605 -50.115  1.00  0.00     0.116 A 
HETATM   24  C   UNL     1     -41.201  55.568 -51.477  1.00  0.00     0.027 A 
ENDBRANCH  16  19
ENDBRANCH  15  16
ENDBRANCH   2  15
TORSDOF 5
ENDMDL
MODEL 7
REMARK VINA RESULT:      -7.3      1.985      7.487
REMARK  5 active torsions:
REMARK  status: ('A' for Active; 'I' for Inactive)
REMARK    1  A    between atoms: C_4  and  C_5 
REMARK       I    between atoms: C_5  and  N_6 
REMARK    2  A    between atoms: N_6  and  C_7 
REMARK    3  A    between atoms: C_7  and  C_8 
REMARK    4  A    between atoms: C_8  and  C_9 
REMARK    5  A    between atoms: C_18  and  O_19 
ROOT
HETATM    1  C   UNL     1     -42.448  54.291 -54.812  1.00  0.00     0.254 C 
HETATM    2  N   UNL     1     -41.951  54.856 -55.967  1.00  0.00    -0.356 N 
HETATM    3  O   UNL     1     -43.617  54.412 -54.452  1.00  0.00    -0.268 OA
HETATM    4  H   UNL     1     -41.106  54.461 -56.363  1.00  0.00     0.162 HD
ENDROOT
BRANCH   1   5
HETATM    5  C   UNL     1     -41.517  53.459 -53.998  1.00  0.00     0.066 A 
HETATM    6  C   UNL     1     -41.004  52.251 -54.494  1.00  0.00     0.026 A 
HETATM    7  C   UNL     1     -40.134  51.474 -53.719  1.00  0.00    -0.060 A 
HETATM    8  C   UNL     1     -39.548  50.203 -54.262  1.00  0.00     0.048 C 
HETATM    9  C   UNL     1     -39.762  51.926 -52.446  1.00  0.00     0.016 A 
HETATM   10  C   UNL     1     -40.256  53.134 -51.932  1.00  0.00    -0.027 A 
HETATM   11  C   UNL     1     -41.115  53.907 -52.726  1.00  0.00     0.087 A 
HETATM   12  C   UNL     1     -39.796  53.610 -50.582  1.00  0.00     0.051 C 
BRANCH  11  13
HETATM   13  O   UNL     1     -41.534  55.109 -52.211  1.00  0.00    -0.359 OA
HETATM   14  H   UNL     1     -42.430  54.980 -51.828  1.00  0.00     0.218 HD
ENDBRANCH  11  13
ENDBRANCH   1   5
BRANCH   2  15
HETATM   15  C   UNL     1     -42.826  55.578 -56.878  1.00  0.00     0.136 C 
BRANCH  15  16
HETATM   16  C   UNL     1     -42.828  57.118 -56.644  1.00  0.00    -0.004 C 
HETATM   17  C   UNL     1     -44.235  57.535 -56.156  1.00  0.00     0.021 C 
HETATM   18  C   UNL     1     -41.843  57.423 -55.490  1.00  0.00     0.021 C 
BRANCH  16  19
HETATM   19  C   UNL     1     -42.510  57.880 -57.944  1.00  0.00    -0.046 A 
HETATM   20  C   UNL     1     -42.450  57.198 -59.172  1.00  0.00     0.027 A 
HETATM   21  C   UNL     1     -42.159  57.901 -60.333  1.00  0.00     0.116 A 
HETATM   22  N   UNL     1     -41.924  59.226 -60.367  1.00  0.00    -0.273 NA
HETATM   23  C   UNL     1     -41.996  59.878 -59.191  1.00  0.00     0.116 A 
HETATM   24  C   UNL     1     -42.278  59.261 -57.977  1.00  0.00     0.027 A 
ENDBRANCH  16  19
ENDBRANCH  15  16
ENDBRANCH   2  15
TORSDOF 5
ENDMDL
MODEL 8
REMARK VINA RESULT:      -7.2      1.705      2.510
REMARK  5 active torsions:
REMARK  status: ('A' for Active; 'I' for Inactive)
REMARK    1  A    between atoms: C_4  and  C_5 
REMARK       I    between atoms: C_5  and  N_6 
REMARK    2  A    between atoms: N_6  and  C_7 
REMARK    3  A    between atoms: C_7  and  C_8 
REMARK    4  A    between atoms: C_8  and  C_9 
REMARK    5  A    between atoms: C_18  and  O_19 
ROOT
HETATM    1  C   UNL     1     -42.673  56.565 -56.835  1.00  0.00     0.254 C 
HETATM    2  N   UNL     1     -42.358  55.311 -56.354  1.00  0.00    -0.356 N 
HETATM    3  O   UNL     1     -42.085  57.587 -56.487  1.00  0.00    -0.268 OA
HETATM    4  H   UNL     1     -42.642  54.508 -56.903  1.00  0.00     0.162 HD
ENDROOT
BRANCH   1   5
HETATM    5  C   UNL     1     -43.751  56.657 -57.859  1.00  0.00     0.066 A 
HETATM    6  C   UNL     1     -43.805  55.760 -58.936  1.00  0.00     0.026 A 
HETATM    7  C   UNL     1     -44.820  55.858 -59.897  1.00  0.00    -0.060 A 
HETATM    8  C   UNL     1     -44.907  54.874 -61.026  1.00  0.00     0.048 C 
HETATM    9  C   UNL     1     -45.797  56.853 -59.760  1.00  0.00     0.016 A 
HETATM   10  C   UNL     1     -45.769  57.757 -58.687  1.00  0.00    -0.027 A 
HETATM   11  C   UNL     1     -44.754  57.635 -57.728  1.00  0.00     0.087 A 
HETATM   12  C   UNL     1     -46.862  58.779 -58.549  1.00  0.00     0.051 C 
BRANCH  11  13
HETATM   13  O   UNL     1     -44.790  58.503 -56.663  1.00  0.00    -0.359 OA
HETATM   14  H   UNL     1     -44.532  58.003 -55.856  1.00  0.00     0.218 HD
ENDBRANCH  11  13
ENDBRANCH   1   5
BRANCH   2  15
HETATM   15  C   UNL     1     -41.237  55.123 -55.447  1.00  0.00     0.136 C 
BRANCH  15  16
HETATM   16  C   UNL     1     -41.671  54.786 -53.989  1.00  0.00    -0.004 C 
HETATM   17  C   UNL     1     -41.391  56.021 -53.101  1.00  0.00     0.021 C 
HETATM   18  C   UNL     1     -43.203  54.570 -53.989  1.00  0.00     0.021 C 
BRANCH  16  19
HETATM   19  C   UNL     1     -40.878  53.589 -53.433  1.00  0.00    -0.046 A 
HETATM   20  C   UNL     1     -40.491  52.536 -54.281  1.00  0.00     0.027 A 
HETATM   21  C   UNL     1     -39.780  51.464 -53.763  1.00  0.00     0.116 A 
HETATM   22  N   UNL     1     -39.424  51.357 -52.468  1.00  0.00    -0.273 NA
HETATM   23  C   UNL     1     -39.785  52.373 -51.662  1.00  0.00     0.116 A 
HETATM   24  C   UNL     1     -40.500  53.487 -52.089  1.00  0.00     0.027 A 
ENDBRANCH  16  19
ENDBRANCH  15  16
ENDBRANCH   2  15
TORSDOF 5
ENDMDL
MODEL 9
REMARK VINA RESULT:      -7.2      3.669      6.016
REMARK  5 active torsions:
REMARK  status: ('A' for Active; 'I' for Inactive)
REMARK    1  A    between atoms: C_4  and  C_5 
REMARK       I    between atoms: C_5  and  N_6 
REMARK    2  A    between atoms: N_6  and  C_7 
REMARK    3  A    between atoms: C_7  and  C_8 
REMARK    4  A    between atoms: C_8  and  C_9 
REMARK    5  A    between atoms: C_18  and  O_19 
ROOT
HETATM    1  C   UNL     1     -42.524  56.762 -52.394  1.00  0.00     0.254 C 
HETATM    2  N   UNL     1     -41.830  55.595 -52.150  1.00  0.00    -0.356 N 
HETATM    3  O   UNL     1     -43.503  56.820 -53.135  1.00  0.00    -0.268 OA
HETATM    4  H   UNL     1     -41.264  55.547 -51.311  1.00  0.00     0.162 HD
ENDROOT
BRANCH   1   5
HETATM    5  C   UNL     1     -42.076  57.990 -51.680  1.00  0.00     0.066 A 
HETATM    6  C   UNL     1     -40.718  58.210 -51.402  1.00  0.00     0.026 A 
HETATM    7  C   UNL     1     -40.307  59.366 -50.725  1.00  0.00    -0.060 A 
HETATM    8  C   UNL     1     -38.852  59.628 -50.465  1.00  0.00     0.048 C 
HETATM    9  C   UNL     1     -41.266  60.314 -50.344  1.00  0.00     0.016 A 
HETATM   10  C   UNL     1     -42.629  60.119 -50.618  1.00  0.00    -0.027 A 
HETATM   11  C   UNL     1     -43.021  58.964 -51.308  1.00  0.00     0.087 A 
HETATM   12  C   UNL     1     -43.621  61.181 -50.237  1.00  0.00     0.051 C 
BRANCH  11  13
HETATM   13  O   UNL     1     -44.355  58.834 -51.607  1.00  0.00    -0.359 OA
HETATM   14  H   UNL     1     -44.537  57.883 -51.777  1.00  0.00     0.218 HD
ENDBRANCH  11  13
ENDBRANCH   1   5
BRANCH   2  15
HETATM   15  C   UNL     1     -42.280  54.331 -52.711  1.00  0.00     0.136 C 
BRANCH  15  16
HETATM   16  C   UNL     1     -41.391  53.824 -53.886  1.00  0.00    -0.004 C 
HETATM   17  C   UNL     1     -42.298  53.590 -55.116  1.00  0.00     0.021 C 
HETATM   18  C   UNL     1     -40.408  54.960 -54.261  1.00  0.00     0.021 C 
BRANCH  16  19
HETATM   19  C   UNL     1     -40.694  52.499 -53.527  1.00  0.00    -0.046 A 
HETATM   20  C   UNL     1     -40.108  52.323 -52.261  1.00  0.00     0.027 A 
HETATM   21  C   UNL     1     -39.481  51.123 -51.956  1.00  0.00     0.116 A 
HETATM   22  N   UNL     1     -39.393  50.086 -52.811  1.00  0.00    -0.273 NA
HETATM   23  C   UNL     1     -39.968  50.254 -54.017  1.00  0.00     0.116 A 
HETATM   24  C   UNL     1     -40.615  51.418 -54.414  1.00  0.00     0.027 A 
ENDBRANCH  16  19
ENDBRANCH  15  16
ENDBRANCH   2  15
TORSDOF 5
ENDMDL
MODEL 10
REMARK VINA RESULT:      -7.1      1.586      2.551
REMARK  5 active torsions:
REMARK  status: ('A' for Active; 'I' for Inactive)
REMARK    1  A    between atoms: C_4  and  C_5 
REMARK       I    between atoms: C_5  and  N_6 
REMARK    2  A    between atoms: N_6  and  C_7 
REMARK    3  A    between atoms: C_7  and  C_8 
REMARK    4  A    between atoms: C_8  and  C_9 
REMARK    5  A    between atoms: C_18  and  O_19 
ROOT
HETATM    1  C   UNL     1     -42.541  56.097 -57.148  1.00  0.00     0.254 C 
HETATM    2  N   UNL     1     -41.811  55.799 -56.016  1.00  0.00    -0.356 N 
HETATM    3  O   UNL     1     -43.264  55.282 -57.717  1.00  0.00    -0.268 OA
HETATM    4  H   UNL     1     -41.510  56.568 -55.430  1.00  0.00     0.162 HD
ENDROOT
BRANCH   1   5
HETATM    5  C   UNL     1     -42.468  57.492 -57.664  1.00  0.00     0.066 A 
HETATM    6  C   UNL     1     -42.619  58.591 -56.804  1.00  0.00     0.026 A 
HETATM    7  C   UNL     1     -42.554  59.899 -57.300  1.00  0.00    -0.060 A 
HETATM    8  C   UNL     1     -42.671  61.077 -56.377  1.00  0.00     0.048 C 
HETATM    9  C   UNL     1     -42.316  60.103 -58.665  1.00  0.00     0.016 A 
HETATM   10  C   UNL     1     -42.155  59.020 -59.544  1.00  0.00    -0.027 A 
HETATM   11  C   UNL     1     -42.208  57.718 -59.028  1.00  0.00     0.087 A 
HETATM   12  C   UNL     1     -41.852  59.279 -60.993  1.00  0.00     0.051 C 
BRANCH  11  13
HETATM   13  O   UNL     1     -41.990  56.686 -59.908  1.00  0.00    -0.359 OA
HETATM   14  H   UNL     1     -42.216  55.845 -59.451  1.00  0.00     0.218 HD
ENDBRANCH  11  13
ENDBRANCH   1   5
BRANCH   2  15
HETATM   15  C   UNL     1     -41.925  54.495 -55.380  1.00  0.00     0.136 C 
BRANCH  15  16
HETATM   16  C   UNL     1     -41.805  54.551 -53.828  1.00  0.00    -0.004 C 
HETATM   17  C   UNL     1     -41.172  55.906 -53.437  1.00  0.00     0.021 C 
HETATM   18  C   UNL     1     -43.237  54.538 -53.241  1.00  0.00     0.021 C 
BRANCH  16  19
HETATM   19  C   UNL     1     -40.910  53.417 -53.296  1.00  0.00    -0.046 A 
HETATM   20  C   UNL     1     -40.642  53.307 -51.920  1.00  0.00     0.027 A 
HETATM   21  C   UNL     1     -39.830  52.281 -51.459  1.00  0.00     0.116 A 
HETATM   22  N   UNL     1     -39.265  51.356 -52.258  1.00  0.00    -0.273 NA
HETATM   23  C   UNL     1     -39.536  51.456 -53.574  1.00  0.00     0.116 A 
HETATM   24  C   UNL     1     -40.334  52.449 -54.129  1.00  0.00     0.027 A 
ENDBRANCH  16  19
ENDBRANCH  15  16
ENDBRANCH   2  15
TORSDOF 5
ENDMDL
