MODEL 1
REMARK VINA RESULT:      -9.0      0.000      0.000
REMARK  5 active torsions:
REMARK  status: ('A' for Active; 'I' for Inactive)
REMARK    1  A    between atoms: C_4  and  C_5 
REMARK    2  A    between atoms: C_17  and  C_18 
REMARK    3  A    between atoms: C_18  and  N_19 
REMARK       I    between atoms: N_19  and  C_20 
REMARK    4  A    between atoms: C_20  and  C_21 
REMARK    5  A    between atoms: C_21  and  C_22 
ROOT
HETATM    1  C   UNL     1     -40.506  59.566 -50.233  1.00  0.00     0.048 C 
HETATM    2  C   UNL     1     -41.312  58.657 -51.114  1.00  0.00    -0.060 A 
HETATM    3  C   UNL     1     -40.932  57.310 -51.294  1.00  0.00     0.024 A 
HETATM    4  C   UNL     1     -41.658  56.433 -52.125  1.00  0.00     0.034 A 
HETATM    5  C   UNL     1     -42.763  56.968 -52.777  1.00  0.00     0.088 A 
HETATM    6  C   UNL     1     -43.139  58.297 -52.617  1.00  0.00    -0.021 A 
HETATM    7  C   UNL     1     -44.284  58.611 -53.502  1.00  0.00     0.075 C 
HETATM    8  C   UNL     1     -44.684  57.192 -53.923  1.00  0.00     0.151 C 
HETATM    9  O   UNL     1     -43.558  56.304 -53.680  1.00  0.00    -0.342 OA
HETATM   10  C   UNL     1     -42.431  59.154 -51.792  1.00  0.00     0.017 A 
ENDROOT
BRANCH   8  11
HETATM   11  C   UNL     1     -45.058  57.084 -55.407  1.00  0.00     0.155 C 
BRANCH  11  12
HETATM   12  N   UNL     1     -44.179  57.788 -56.323  1.00  0.00    -0.359 N 
HETATM   13  C   UNL     1     -43.163  57.153 -57.001  1.00  0.00     0.219 C 
HETATM   14  O   UNL     1     -42.957  55.948 -56.920  1.00  0.00    -0.274 OA
HETATM   15  H   UNL     1     -44.246  58.798 -56.362  1.00  0.00     0.162 HD
BRANCH  13  16
HETATM   16  C   UNL     1     -42.325  58.102 -57.837  1.00  0.00     0.128 C 
BRANCH  16  17
HETATM   17  C   UNL     1     -42.117  57.582 -59.266  1.00  0.00     0.094 C 
HETATM   18  N   UNL     1     -43.149  56.619 -59.622  1.00  0.00    -0.362 N 
HETATM   19  C   UNL     1     -44.339  56.945 -60.181  1.00  0.00     0.168 C 
HETATM   20  H   UNL     1     -43.059  55.672 -59.266  1.00  0.00     0.162 HD
HETATM   21  S   UNL     1     -45.565  55.836 -60.310  1.00  0.00    -0.041 SA
HETATM   22  N   UNL     1     -44.481  58.207 -60.656  1.00  0.00    -0.363 N 
HETATM   23  C   UNL     1     -43.521  59.279 -60.452  1.00  0.00     0.081 C 
HETATM   24  H   UNL     1     -45.407  58.434 -61.005  1.00  0.00     0.162 HD
HETATM   25  C   UNL     1     -43.590  60.282 -61.599  1.00  0.00     0.032 C 
HETATM   26  C   UNL     1     -42.109  58.714 -60.297  1.00  0.00     0.050 C 
ENDBRANCH  16  17
ENDBRANCH  13  16
ENDBRANCH  11  12
ENDBRANCH   8  11
BRANCH   4  27
HETATM   27  C   UNL     1     -41.193  55.047 -52.274  1.00  0.00     0.112 A 
HETATM   28  S   UNL     1     -40.644  54.130 -50.924  1.00  0.00    -0.067 SA
HETATM   29  C   UNL     1     -40.289  52.800 -51.955  1.00  0.00     0.035 A 
HETATM   30  C   UNL     1     -40.589  53.154 -53.268  1.00  0.00     0.075 A 
HETATM   31  C   UNL     1     -39.775  51.535 -51.625  1.00  0.00     0.021 A 
HETATM   32  N   UNL     1     -41.084  54.436 -53.439  1.00  0.00    -0.239 NA
HETATM   33  C   UNL     1     -40.370  52.211 -54.293  1.00  0.00     0.033 A 
HETATM   34  C   UNL     1     -39.860  50.947 -53.977  1.00  0.00     0.002 A 
HETATM   35  C   UNL     1     -39.567  50.615 -52.659  1.00  0.00     0.002 A 
ENDBRANCH   4  27
TORSDOF 5
ENDMDL
MODEL 2
REMARK VINA RESULT:      -8.9      2.889      7.156
REMARK  5 active torsions:
REMARK  status: ('A' for Active; 'I' for Inactive)
REMARK    1  A    between atoms: C_4  and  C_5 
REMARK    2  A    between atoms: C_17  and  C_18 
REMARK    3  A    between atoms: C_18  and  N_19 
REMARK       I    between atoms: N_19  and  C_20 
REMARK    4  A    between atoms: C_20  and  C_21 
REMARK    5  A    between atoms: C_21  and  C_22 
ROOT
HETATM    1  C   UNL     1     -41.124  62.552 -59.466  1.00  0.00     0.048 C 
HETATM    2  C   UNL     1     -41.645  61.336 -58.758  1.00  0.00    -0.060 A 
HETATM    3  C   UNL     1     -41.698  61.292 -57.349  1.00  0.00     0.024 A 
HETATM    4  C   UNL     1     -42.169  60.160 -56.653  1.00  0.00     0.034 A 
HETATM    5  C   UNL     1     -42.563  59.076 -57.428  1.00  0.00     0.088 A 
HETATM    6  C   UNL     1     -42.504  59.103 -58.816  1.00  0.00    -0.021 A 
HETATM    7  C   UNL     1     -42.890  57.784 -59.368  1.00  0.00     0.075 C 
HETATM    8  C   UNL     1     -43.479  57.138 -58.107  1.00  0.00     0.151 C 
HETATM    9  O   UNL     1     -42.983  57.859 -56.945  1.00  0.00    -0.342 OA
HETATM   10  C   UNL     1     -42.052  60.219 -59.498  1.00  0.00     0.017 A 
ENDROOT
BRANCH   8  11
HETATM   11  C   UNL     1     -43.091  55.662 -57.946  1.00  0.00     0.155 C 
BRANCH  11  12
HETATM   12  N   UNL     1     -42.081  55.391 -56.938  1.00  0.00    -0.359 N 
HETATM   13  C   UNL     1     -42.348  54.642 -55.814  1.00  0.00     0.219 C 
HETATM   14  O   UNL     1     -43.433  54.113 -55.605  1.00  0.00    -0.274 OA
HETATM   15  H   UNL     1     -41.194  55.873 -57.013  1.00  0.00     0.162 HD
BRANCH  13  16
HETATM   16  C   UNL     1     -41.169  54.558 -54.864  1.00  0.00     0.128 C 
BRANCH  16  17
HETATM   17  C   UNL     1     -41.164  55.706 -53.845  1.00  0.00     0.094 C 
HETATM   18  N   UNL     1     -42.254  56.636 -54.109  1.00  0.00    -0.362 N 
HETATM   19  C   UNL     1     -43.502  56.517 -53.595  1.00  0.00     0.168 C 
HETATM   20  H   UNL     1     -42.135  57.306 -54.863  1.00  0.00     0.162 HD
HETATM   21  S   UNL     1     -44.755  57.452 -54.148  1.00  0.00    -0.041 SA
HETATM   22  N   UNL     1     -43.682  55.622 -52.593  1.00  0.00    -0.363 N 
HETATM   23  C   UNL     1     -42.682  54.663 -52.153  1.00  0.00     0.081 C 
HETATM   24  H   UNL     1     -44.641  55.513 -52.282  1.00  0.00     0.162 HD
HETATM   25  C   UNL     1     -42.886  54.319 -50.681  1.00  0.00     0.032 C 
HETATM   26  C   UNL     1     -41.274  55.201 -52.405  1.00  0.00     0.050 C 
ENDBRANCH  16  17
ENDBRANCH  13  16
ENDBRANCH  11  12
ENDBRANCH   8  11
BRANCH   4  27
HETATM   27  C   UNL     1     -42.180  60.184 -55.183  1.00  0.00     0.112 A 
HETATM   28  S   UNL     1     -43.275  61.182 -54.307  1.00  0.00    -0.067 SA
HETATM   29  C   UNL     1     -42.592  60.649 -52.821  1.00  0.00     0.035 A 
HETATM   30  C   UNL     1     -41.553  59.762 -53.095  1.00  0.00     0.075 A 
HETATM   31  C   UNL     1     -42.947  60.995 -51.507  1.00  0.00     0.021 A 
HETATM   32  N   UNL     1     -41.318  59.520 -54.437  1.00  0.00    -0.239 NA
HETATM   33  C   UNL     1     -40.841  59.198 -52.017  1.00  0.00     0.033 A 
HETATM   34  C   UNL     1     -41.185  59.534 -50.704  1.00  0.00     0.002 A 
HETATM   35  C   UNL     1     -42.226  60.422 -50.454  1.00  0.00     0.002 A 
ENDBRANCH   4  27
TORSDOF 5
ENDMDL
MODEL 3
REMARK VINA RESULT:      -8.9      3.132      7.174
REMARK  5 active torsions:
REMARK  status: ('A' for Active; 'I' for Inactive)
REMARK    1  A    between atoms: C_4  and  C_5 
REMARK    2  A    between atoms: C_17  and  C_18 
REMARK    3  A    between atoms: C_18  and  N_19 
REMARK       I    between atoms: N_19  and  C_20 
REMARK    4  A    between atoms: C_20  and  C_21 
REMARK    5  A    between atoms: C_21  and  C_22 
ROOT
HETATM    1  C   UNL     1     -39.999  50.814 -54.410  1.00  0.00     0.048 C 
HETATM    2  C   UNL     1     -40.481  52.064 -53.734  1.00  0.00    -0.060 A 
HETATM    3  C   UNL     1     -41.255  53.009 -54.440  1.00  0.00     0.024 A 
HETATM    4  C   UNL     1     -41.711  54.200 -53.839  1.00  0.00     0.034 A 
HETATM    5  C   UNL     1     -41.344  54.407 -52.515  1.00  0.00     0.088 A 
HETATM    6  C   UNL     1     -40.572  53.489 -51.813  1.00  0.00    -0.021 A 
HETATM    7  C   UNL     1     -40.256  54.014 -50.465  1.00  0.00     0.075 C 
HETATM    8  C   UNL     1     -41.231  55.198 -50.413  1.00  0.00     0.151 C 
HETATM    9  O   UNL     1     -41.627  55.530 -51.773  1.00  0.00    -0.342 OA
HETATM   10  C   UNL     1     -40.134  52.315 -52.401  1.00  0.00     0.017 A 
ENDROOT
BRANCH   8  11
HETATM   11  C   UNL     1     -40.621  56.456 -49.780  1.00  0.00     0.155 C 
BRANCH  11  12
HETATM   12  N   UNL     1     -41.378  57.679 -49.976  1.00  0.00    -0.359 N 
HETATM   13  C   UNL     1     -40.814  58.812 -50.518  1.00  0.00     0.219 C 
HETATM   14  O   UNL     1     -39.656  58.859 -50.916  1.00  0.00    -0.274 OA
HETATM   15  H   UNL     1     -42.312  57.728 -49.586  1.00  0.00     0.162 HD
BRANCH  13  16
HETATM   16  C   UNL     1     -41.769  59.991 -50.552  1.00  0.00     0.128 C 
BRANCH  16  17
HETATM   17  C   UNL     1     -43.039  59.682 -51.356  1.00  0.00     0.094 C 
HETATM   18  N   UNL     1     -43.889  60.860 -51.453  1.00  0.00    -0.362 N 
HETATM   19  C   UNL     1     -43.797  61.792 -52.431  1.00  0.00     0.168 C 
HETATM   20  H   UNL     1     -44.459  61.103 -50.647  1.00  0.00     0.162 HD
HETATM   21  S   UNL     1     -44.609  63.235 -52.329  1.00  0.00    -0.041 SA
HETATM   22  N   UNL     1     -43.034  61.491 -53.511  1.00  0.00    -0.363 N 
HETATM   23  C   UNL     1     -42.175  60.323 -53.614  1.00  0.00     0.081 C 
HETATM   24  H   UNL     1     -42.934  62.238 -54.189  1.00  0.00     0.162 HD
HETATM   25  C   UNL     1     -42.019  59.903 -55.072  1.00  0.00     0.032 C 
HETATM   26  C   UNL     1     -42.722  59.176 -52.765  1.00  0.00     0.050 C 
ENDBRANCH  16  17
ENDBRANCH  13  16
ENDBRANCH  11  12
ENDBRANCH   8  11
BRANCH   4  27
HETATM   27  C   UNL     1     -42.501  55.144 -54.643  1.00  0.00     0.112 A 
HETATM   28  S   UNL     1     -42.115  55.469 -56.289  1.00  0.00    -0.067 SA
HETATM   29  C   UNL     1     -43.401  56.606 -56.381  1.00  0.00     0.035 A 
HETATM   30  C   UNL     1     -44.026  56.681 -55.137  1.00  0.00     0.075 A 
HETATM   31  C   UNL     1     -43.825  57.381 -57.473  1.00  0.00     0.021 A 
HETATM   32  N   UNL     1     -43.496  55.861 -54.156  1.00  0.00    -0.239 NA
HETATM   33  C   UNL     1     -45.115  57.562 -54.977  1.00  0.00     0.033 A 
HETATM   34  C   UNL     1     -45.546  58.338 -56.058  1.00  0.00     0.002 A 
HETATM   35  C   UNL     1     -44.908  58.247 -57.290  1.00  0.00     0.002 A 
ENDBRANCH   4  27
TORSDOF 5
ENDMDL
MODEL 4
REMARK VINA RESULT:      -8.8      2.712      7.066
REMARK  5 active torsions:
REMARK  status: ('A' for Active; 'I' for Inactive)
REMARK    1  A    between atoms: C_4  and  C_5 
REMARK    2  A    between atoms: C_17  and  C_18 
REMARK    3  A    between atoms: C_18  and  N_19 
REMARK       I    between atoms: N_19  and  C_20 
REMARK    4  A    between atoms: C_20  and  C_21 
REMARK    5  A    between atoms: C_21  and  C_22 
ROOT
HETATM    1  C   UNL     1     -39.893  51.044 -54.249  1.00  0.00     0.048 C 
HETATM    2  C   UNL     1     -40.381  52.379 -53.768  1.00  0.00    -0.060 A 
HETATM    3  C   UNL     1     -40.951  53.303 -54.670  1.00  0.00     0.024 A 
HETATM    4  C   UNL     1     -41.405  54.571 -54.253  1.00  0.00     0.034 A 
HETATM    5  C   UNL     1     -41.248  54.875 -52.906  1.00  0.00     0.088 A 
HETATM    6  C   UNL     1     -40.676  53.977 -52.012  1.00  0.00    -0.021 A 
HETATM    7  C   UNL     1     -40.547  54.604 -50.676  1.00  0.00     0.075 C 
HETATM    8  C   UNL     1     -41.421  55.847 -50.886  1.00  0.00     0.151 C 
HETATM    9  O   UNL     1     -41.560  56.076 -52.316  1.00  0.00    -0.342 OA
HETATM   10  C   UNL     1     -40.240  52.729 -52.420  1.00  0.00     0.017 A 
ENDROOT
BRANCH   8  11
HETATM   11  C   UNL     1     -40.829  57.116 -50.260  1.00  0.00     0.155 C 
BRANCH  11  12
HETATM   12  N   UNL     1     -41.669  58.297 -50.335  1.00  0.00    -0.359 N 
HETATM   13  C   UNL     1     -41.333  59.390 -51.102  1.00  0.00     0.219 C 
HETATM   14  O   UNL     1     -40.334  59.428 -51.810  1.00  0.00    -0.274 OA
HETATM   15  H   UNL     1     -42.461  58.358 -49.706  1.00  0.00     0.162 HD
BRANCH  13  16
HETATM   16  C   UNL     1     -42.317  60.536 -50.964  1.00  0.00     0.128 C 
BRANCH  16  17
HETATM   17  C   UNL     1     -42.965  60.907 -52.305  1.00  0.00     0.094 C 
HETATM   18  N   UNL     1     -43.324  59.711 -53.054  1.00  0.00    -0.362 N 
HETATM   19  C   UNL     1     -44.510  59.066 -52.944  1.00  0.00     0.168 C 
HETATM   20  H   UNL     1     -42.585  59.220 -53.548  1.00  0.00     0.162 HD
HETATM   21  S   UNL     1     -44.746  57.570 -53.619  1.00  0.00    -0.041 SA
HETATM   22  N   UNL     1     -45.507  59.702 -52.281  1.00  0.00    -0.363 N 
HETATM   23  C   UNL     1     -45.345  60.939 -51.535  1.00  0.00     0.081 C 
HETATM   24  H   UNL     1     -46.357  59.161 -52.160  1.00  0.00     0.162 HD
HETATM   25  C   UNL     1     -46.654  61.722 -51.509  1.00  0.00     0.032 C 
HETATM   26  C   UNL     1     -44.211  61.777 -52.124  1.00  0.00     0.050 C 
ENDBRANCH  16  17
ENDBRANCH  13  16
ENDBRANCH  11  12
ENDBRANCH   8  11
BRANCH   4  27
HETATM   27  C   UNL     1     -41.974  55.485 -55.254  1.00  0.00     0.112 A 
HETATM   28  S   UNL     1     -43.060  54.929 -56.469  1.00  0.00    -0.067 SA
HETATM   29  C   UNL     1     -43.143  56.511 -57.137  1.00  0.00     0.035 A 
HETATM   30  C   UNL     1     -42.313  57.356 -56.402  1.00  0.00     0.075 A 
HETATM   31  C   UNL     1     -43.885  56.972 -58.238  1.00  0.00     0.021 A 
HETATM   32  N   UNL     1     -41.643  56.759 -55.349  1.00  0.00    -0.239 NA
HETATM   33  C   UNL     1     -42.220  58.711 -56.778  1.00  0.00     0.033 A 
HETATM   34  C   UNL     1     -42.955  59.182 -57.872  1.00  0.00     0.002 A 
HETATM   35  C   UNL     1     -43.777  58.321 -58.591  1.00  0.00     0.002 A 
ENDBRANCH   4  27
TORSDOF 5
ENDMDL
MODEL 5
REMARK VINA RESULT:      -8.7      2.125      5.238
REMARK  5 active torsions:
REMARK  status: ('A' for Active; 'I' for Inactive)
REMARK    1  A    between atoms: C_4  and  C_5 
REMARK    2  A    between atoms: C_17  and  C_18 
REMARK    3  A    between atoms: C_18  and  N_19 
REMARK       I    between atoms: N_19  and  C_20 
REMARK    4  A    between atoms: C_20  and  C_21 
REMARK    5  A    between atoms: C_21  and  C_22 
ROOT
HETATM    1  C   UNL     1     -40.295  53.677 -47.923  1.00  0.00     0.048 C 
HETATM    2  C   UNL     1     -40.535  54.182 -49.316  1.00  0.00    -0.060 A 
HETATM    3  C   UNL     1     -41.074  55.468 -49.531  1.00  0.00     0.024 A 
HETATM    4  C   UNL     1     -41.326  55.967 -50.825  1.00  0.00     0.034 A 
HETATM    5  C   UNL     1     -41.031  55.118 -51.885  1.00  0.00     0.088 A 
HETATM    6  C   UNL     1     -40.511  53.844 -51.685  1.00  0.00    -0.021 A 
HETATM    7  C   UNL     1     -40.390  53.135 -52.980  1.00  0.00     0.075 C 
HETATM    8  C   UNL     1     -40.609  54.311 -53.941  1.00  0.00     0.151 C 
HETATM    9  O   UNL     1     -41.266  55.385 -53.213  1.00  0.00    -0.342 OA
HETATM   10  C   UNL     1     -40.255  53.360 -50.414  1.00  0.00     0.017 A 
ENDROOT
BRANCH   8  11
HETATM   11  C   UNL     1     -41.489  53.951 -55.145  1.00  0.00     0.155 C 
BRANCH  11  12
HETATM   12  N   UNL     1     -41.734  55.033 -56.082  1.00  0.00    -0.359 N 
HETATM   13  C   UNL     1     -42.893  55.776 -56.059  1.00  0.00     0.219 C 
HETATM   14  O   UNL     1     -43.774  55.614 -55.224  1.00  0.00    -0.274 OA
HETATM   15  H   UNL     1     -41.082  55.155 -56.847  1.00  0.00     0.162 HD
BRANCH  13  16
HETATM   16  C   UNL     1     -42.964  56.797 -57.179  1.00  0.00     0.128 C 
BRANCH  16  17
HETATM   17  C   UNL     1     -42.931  56.137 -58.565  1.00  0.00     0.094 C 
HETATM   18  N   UNL     1     -44.281  55.888 -59.051  1.00  0.00    -0.362 N 
HETATM   19  C   UNL     1     -45.012  56.776 -59.766  1.00  0.00     0.168 C 
HETATM   20  H   UNL     1     -44.779  55.083 -58.681  1.00  0.00     0.162 HD
HETATM   21  S   UNL     1     -46.628  56.532 -60.052  1.00  0.00    -0.041 SA
HETATM   22  N   UNL     1     -44.367  57.861 -60.262  1.00  0.00    -0.363 N 
HETATM   23  C   UNL     1     -42.999  58.228 -59.937  1.00  0.00     0.081 C 
HETATM   24  H   UNL     1     -44.961  58.536 -60.732  1.00  0.00     0.162 HD
HETATM   25  C   UNL     1     -42.368  59.004 -61.087  1.00  0.00     0.032 C 
HETATM   26  C   UNL     1     -42.177  56.987 -59.591  1.00  0.00     0.050 C 
ENDBRANCH  16  17
ENDBRANCH  13  16
ENDBRANCH  11  12
ENDBRANCH   8  11
BRANCH   4  27
HETATM   27  C   UNL     1     -41.903  57.311 -50.968  1.00  0.00     0.112 A 
HETATM   28  S   UNL     1     -41.002  58.725 -50.579  1.00  0.00    -0.067 SA
HETATM   29  C   UNL     1     -42.358  59.711 -50.962  1.00  0.00     0.035 A 
HETATM   30  C   UNL     1     -43.420  58.891 -51.338  1.00  0.00     0.075 A 
HETATM   31  C   UNL     1     -42.475  61.111 -50.928  1.00  0.00     0.021 A 
HETATM   32  N   UNL     1     -43.155  57.533 -51.320  1.00  0.00    -0.239 NA
HETATM   33  C   UNL     1     -44.646  59.489 -51.692  1.00  0.00     0.033 A 
HETATM   34  C   UNL     1     -44.775  60.882 -51.663  1.00  0.00     0.002 A 
HETATM   35  C   UNL     1     -43.702  61.681 -51.285  1.00  0.00     0.002 A 
ENDBRANCH   4  27
TORSDOF 5
ENDMDL
MODEL 6
REMARK VINA RESULT:      -8.6      1.914      2.455
REMARK  5 active torsions:
REMARK  status: ('A' for Active; 'I' for Inactive)
REMARK    1  A    between atoms: C_4  and  C_5 
REMARK    2  A    between atoms: C_17  and  C_18 
REMARK    3  A    between atoms: C_18  and  N_19 
REMARK       I    between atoms: N_19  and  C_20 
REMARK    4  A    between atoms: C_20  and  C_21 
REMARK    5  A    between atoms: C_21  and  C_22 
ROOT
HETATM    1  C   UNL     1     -40.897  58.982 -51.385  1.00  0.00     0.048 C 
HETATM    2  C   UNL     1     -41.300  57.965 -52.412  1.00  0.00    -0.060 A 
HETATM    3  C   UNL     1     -40.952  56.607 -52.254  1.00  0.00     0.024 A 
HETATM    4  C   UNL     1     -41.303  55.629 -53.207  1.00  0.00     0.034 A 
HETATM    5  C   UNL     1     -41.998  56.074 -54.325  1.00  0.00     0.088 A 
HETATM    6  C   UNL     1     -42.336  57.411 -54.497  1.00  0.00    -0.021 A 
HETATM    7  C   UNL     1     -42.982  57.606 -55.816  1.00  0.00     0.075 C 
HETATM    8  C   UNL     1     -43.240  56.143 -56.197  1.00  0.00     0.151 C 
HETATM    9  O   UNL     1     -42.370  55.296 -55.396  1.00  0.00    -0.342 OA
HETATM   10  C   UNL     1     -42.000  58.368 -53.556  1.00  0.00     0.017 A 
ENDROOT
BRANCH   8  11
HETATM   11  C   UNL     1     -42.956  55.845 -57.676  1.00  0.00     0.155 C 
BRANCH  11  12
HETATM   12  N   UNL     1     -42.309  56.915 -58.413  1.00  0.00    -0.359 N 
HETATM   13  C   UNL     1     -42.502  57.098 -59.764  1.00  0.00     0.219 C 
HETATM   14  O   UNL     1     -43.265  56.408 -60.429  1.00  0.00    -0.274 OA
HETATM   15  H   UNL     1     -41.602  57.461 -57.935  1.00  0.00     0.162 HD
BRANCH  13  16
HETATM   16  C   UNL     1     -41.663  58.225 -60.335  1.00  0.00     0.128 C 
BRANCH  16  17
HETATM   17  C   UNL     1     -42.515  59.446 -60.711  1.00  0.00     0.094 C 
HETATM   18  N   UNL     1     -43.768  59.450 -59.970  1.00  0.00    -0.362 N 
HETATM   19  C   UNL     1     -43.936  60.021 -58.753  1.00  0.00     0.168 C 
HETATM   20  H   UNL     1     -44.511  58.835 -60.289  1.00  0.00     0.162 HD
HETATM   21  S   UNL     1     -45.305  59.755 -57.855  1.00  0.00    -0.041 SA
HETATM   22  N   UNL     1     -42.951  60.839 -58.306  1.00  0.00    -0.363 N 
HETATM   23  C   UNL     1     -41.661  61.008 -58.954  1.00  0.00     0.081 C 
HETATM   24  H   UNL     1     -43.080  61.192 -57.364  1.00  0.00     0.162 HD
HETATM   25  C   UNL     1     -41.097  62.395 -58.663  1.00  0.00     0.032 C 
HETATM   26  C   UNL     1     -41.778  60.764 -60.458  1.00  0.00     0.050 C 
ENDBRANCH  16  17
ENDBRANCH  13  16
ENDBRANCH  11  12
ENDBRANCH   8  11
BRANCH   4  27
HETATM   27  C   UNL     1     -40.891  54.236 -52.979  1.00  0.00     0.112 A 
HETATM   28  S   UNL     1     -40.584  53.634 -51.396  1.00  0.00    -0.067 SA
HETATM   29  C   UNL     1     -40.155  52.102 -52.048  1.00  0.00     0.035 A 
HETATM   30  C   UNL     1     -40.250  52.160 -53.437  1.00  0.00     0.075 A 
HETATM   31  C   UNL     1     -39.757  50.932 -51.378  1.00  0.00     0.021 A 
HETATM   32  N   UNL     1     -40.650  53.379 -53.953  1.00  0.00    -0.239 NA
HETATM   33  C   UNL     1     -39.935  51.008 -54.187  1.00  0.00     0.033 A 
HETATM   34  C   UNL     1     -39.539  49.838 -53.531  1.00  0.00     0.002 A 
HETATM   35  C   UNL     1     -39.452  49.802 -52.144  1.00  0.00     0.002 A 
ENDBRANCH   4  27
TORSDOF 5
ENDMDL
MODEL 7
REMARK VINA RESULT:      -8.5      1.544      2.148
REMARK  5 active torsions:
REMARK  status: ('A' for Active; 'I' for Inactive)
REMARK    1  A    between atoms: C_4  and  C_5 
REMARK    2  A    between atoms: C_17  and  C_18 
REMARK    3  A    between atoms: C_18  and  N_19 
REMARK       I    between atoms: N_19  and  C_20 
REMARK    4  A    between atoms: C_20  and  C_21 
REMARK    5  A    between atoms: C_21  and  C_22 
ROOT
HETATM    1  C   UNL     1     -41.043  58.558 -50.881  1.00  0.00     0.048 C 
HETATM    2  C   UNL     1     -41.366  57.630 -52.015  1.00  0.00    -0.060 A 
HETATM    3  C   UNL     1     -40.994  56.270 -51.958  1.00  0.00     0.024 A 
HETATM    4  C   UNL     1     -41.269  55.375 -53.012  1.00  0.00     0.034 A 
HETATM    5  C   UNL     1     -41.913  55.905 -54.124  1.00  0.00     0.088 A 
HETATM    6  C   UNL     1     -42.273  57.246 -54.196  1.00  0.00    -0.021 A 
HETATM    7  C   UNL     1     -42.849  57.547 -55.527  1.00  0.00     0.075 C 
HETATM    8  C   UNL     1     -43.052  56.119 -56.051  1.00  0.00     0.151 C 
HETATM    9  O   UNL     1     -42.207  55.220 -55.279  1.00  0.00    -0.342 OA
HETATM   10  C   UNL     1     -42.011  58.121 -53.156  1.00  0.00     0.017 A 
ENDROOT
BRANCH   8  11
HETATM   11  C   UNL     1     -42.680  55.960 -57.531  1.00  0.00     0.155 C 
BRANCH  11  12
HETATM   12  N   UNL     1     -42.468  57.200 -58.256  1.00  0.00    -0.359 N 
HETATM   13  C   UNL     1     -42.377  57.243 -59.629  1.00  0.00     0.219 C 
HETATM   14  O   UNL     1     -42.515  56.254 -60.339  1.00  0.00    -0.274 OA
HETATM   15  H   UNL     1     -42.260  58.034 -57.719  1.00  0.00     0.162 HD
BRANCH  13  16
HETATM   16  C   UNL     1     -42.074  58.631 -60.160  1.00  0.00     0.128 C 
BRANCH  16  17
HETATM   17  C   UNL     1     -43.294  59.269 -60.838  1.00  0.00     0.094 C 
HETATM   18  N   UNL     1     -44.467  58.417 -60.702  1.00  0.00    -0.362 N 
HETATM   19  C   UNL     1     -45.332  58.466 -59.662  1.00  0.00     0.168 C 
HETATM   20  H   UNL     1     -44.544  57.614 -61.320  1.00  0.00     0.162 HD
HETATM   21  S   UNL     1     -46.483  57.292 -59.439  1.00  0.00    -0.041 SA
HETATM   22  N   UNL     1     -45.239  59.526 -58.821  1.00  0.00    -0.363 N 
HETATM   23  C   UNL     1     -44.173  60.513 -58.854  1.00  0.00     0.081 C 
HETATM   24  H   UNL     1     -45.857  59.493 -58.017  1.00  0.00     0.162 HD
HETATM   25  C   UNL     1     -44.672  61.853 -58.323  1.00  0.00     0.032 C 
HETATM   26  C   UNL     1     -43.613  60.654 -60.269  1.00  0.00     0.050 C 
ENDBRANCH  16  17
ENDBRANCH  13  16
ENDBRANCH  11  12
ENDBRANCH   8  11
BRANCH   4  27
HETATM   27  C   UNL     1     -40.837  53.975 -52.886  1.00  0.00     0.112 A 
HETATM   28  S   UNL     1     -40.342  53.317 -51.375  1.00  0.00    -0.067 SA
HETATM   29  C   UNL     1     -40.001  51.809 -52.128  1.00  0.00     0.035 A 
HETATM   30  C   UNL     1     -40.264  51.917 -53.492  1.00  0.00     0.075 A 
HETATM   31  C   UNL     1     -39.528  50.617 -51.554  1.00  0.00     0.021 A 
HETATM   32  N   UNL     1     -40.720  53.154 -53.913  1.00  0.00    -0.239 NA
HETATM   33  C   UNL     1     -40.047  50.793 -54.316  1.00  0.00     0.033 A 
HETATM   34  C   UNL     1     -39.579  49.600 -53.755  1.00  0.00     0.002 A 
HETATM   35  C   UNL     1     -39.323  49.515 -52.391  1.00  0.00     0.002 A 
ENDBRANCH   4  27
TORSDOF 5
ENDMDL
MODEL 8
REMARK VINA RESULT:      -8.5      2.890      6.908
REMARK  5 active torsions:
REMARK  status: ('A' for Active; 'I' for Inactive)
REMARK    1  A    between atoms: C_4  and  C_5 
REMARK    2  A    between atoms: C_17  and  C_18 
REMARK    3  A    between atoms: C_18  and  N_19 
REMARK       I    between atoms: N_19  and  C_20 
REMARK    4  A    between atoms: C_20  and  C_21 
REMARK    5  A    between atoms: C_21  and  C_22 
ROOT
HETATM    1  C   UNL     1     -44.733  54.844 -60.676  1.00  0.00     0.048 C 
HETATM    2  C   UNL     1     -43.999  55.725 -59.709  1.00  0.00    -0.060 A 
HETATM    3  C   UNL     1     -43.692  55.267 -58.410  1.00  0.00     0.024 A 
HETATM    4  C   UNL     1     -43.016  56.075 -57.472  1.00  0.00     0.034 A 
HETATM    5  C   UNL     1     -42.681  57.358 -57.887  1.00  0.00     0.088 A 
HETATM    6  C   UNL     1     -42.989  57.824 -59.160  1.00  0.00    -0.021 A 
HETATM    7  C   UNL     1     -42.603  59.248 -59.287  1.00  0.00     0.075 C 
HETATM    8  C   UNL     1     -41.749  59.400 -58.021  1.00  0.00     0.151 C 
HETATM    9  O   UNL     1     -42.085  58.320 -57.106  1.00  0.00    -0.342 OA
HETATM   10  C   UNL     1     -43.643  57.027 -60.082  1.00  0.00     0.017 A 
ENDROOT
BRANCH   8  11
HETATM   11  C   UNL     1     -41.983  60.728 -57.289  1.00  0.00     0.155 C 
BRANCH  11  12
HETATM   12  N   UNL     1     -42.202  60.619 -55.858  1.00  0.00    -0.359 N 
HETATM   13  C   UNL     1     -43.058  61.458 -55.180  1.00  0.00     0.219 C 
HETATM   14  O   UNL     1     -43.728  62.319 -55.735  1.00  0.00    -0.274 OA
HETATM   15  H   UNL     1     -41.611  59.985 -55.334  1.00  0.00     0.162 HD
BRANCH  13  16
HETATM   16  C   UNL     1     -43.066  61.212 -53.683  1.00  0.00     0.128 C 
BRANCH  16  17
HETATM   17  C   UNL     1     -43.020  59.716 -53.343  1.00  0.00     0.094 C 
HETATM   18  N   UNL     1     -41.906  59.422 -52.452  1.00  0.00    -0.362 N 
HETATM   19  C   UNL     1     -41.974  59.472 -51.100  1.00  0.00     0.168 C 
HETATM   20  H   UNL     1     -40.977  59.357 -52.858  1.00  0.00     0.162 HD
HETATM   21  S   UNL     1     -40.608  59.390 -50.164  1.00  0.00    -0.041 SA
HETATM   22  N   UNL     1     -43.205  59.567 -50.540  1.00  0.00    -0.363 N 
HETATM   23  C   UNL     1     -44.434  59.793 -51.282  1.00  0.00     0.081 C 
HETATM   24  H   UNL     1     -43.211  59.671 -49.531  1.00  0.00     0.162 HD
HETATM   25  C   UNL     1     -45.622  59.187 -50.541  1.00  0.00     0.032 C 
HETATM   26  C   UNL     1     -44.320  59.230 -52.697  1.00  0.00     0.050 C 
ENDBRANCH  16  17
ENDBRANCH  13  16
ENDBRANCH  11  12
ENDBRANCH   8  11
BRANCH   4  27
HETATM   27  C   UNL     1     -42.745  55.532 -56.133  1.00  0.00     0.112 A 
HETATM   28  S   UNL     1     -43.694  55.981 -54.769  1.00  0.00    -0.067 SA
HETATM   29  C   UNL     1     -42.713  55.004 -53.749  1.00  0.00     0.035 A 
HETATM   30  C   UNL     1     -41.708  54.419 -54.516  1.00  0.00     0.075 A 
HETATM   31  C   UNL     1     -42.823  54.776 -52.367  1.00  0.00     0.021 A 
HETATM   32  N   UNL     1     -41.725  54.740 -55.861  1.00  0.00    -0.239 NA
HETATM   33  C   UNL     1     -40.775  53.574 -53.880  1.00  0.00     0.033 A 
HETATM   34  C   UNL     1     -40.875  53.338 -52.505  1.00  0.00     0.002 A 
HETATM   35  C   UNL     1     -41.887  53.933 -51.759  1.00  0.00     0.002 A 
ENDBRANCH   4  27
TORSDOF 5
ENDMDL
MODEL 9
REMARK VINA RESULT:      -8.4      2.792      6.317
REMARK  5 active torsions:
REMARK  status: ('A' for Active; 'I' for Inactive)
REMARK    1  A    between atoms: C_4  and  C_5 
REMARK    2  A    between atoms: C_17  and  C_18 
REMARK    3  A    between atoms: C_18  and  N_19 
REMARK       I    between atoms: N_19  and  C_20 
REMARK    4  A    between atoms: C_20  and  C_21 
REMARK    5  A    between atoms: C_21  and  C_22 
ROOT
HETATM    1  C   UNL     1     -44.572  54.322 -59.986  1.00  0.00     0.048 C 
HETATM    2  C   UNL     1     -43.893  55.302 -59.075  1.00  0.00    -0.060 A 
HETATM    3  C   UNL     1     -43.507  54.924 -57.772  1.00  0.00     0.024 A 
HETATM    4  C   UNL     1     -42.880  55.825 -56.887  1.00  0.00     0.034 A 
HETATM    5  C   UNL     1     -42.675  57.116 -57.358  1.00  0.00     0.088 A 
HETATM    6  C   UNL     1     -43.062  57.503 -58.636  1.00  0.00    -0.021 A 
HETATM    7  C   UNL     1     -42.811  58.950 -58.827  1.00  0.00     0.075 C 
HETATM    8  C   UNL     1     -41.938  59.227 -57.596  1.00  0.00     0.151 C 
HETATM    9  O   UNL     1     -42.147  58.157 -56.632  1.00  0.00    -0.342 OA
HETATM   10  C   UNL     1     -43.668  56.615 -59.507  1.00  0.00     0.017 A 
ENDROOT
BRANCH   8  11
HETATM   11  C   UNL     1     -42.270  60.556 -56.905  1.00  0.00     0.155 C 
BRANCH  11  12
HETATM   12  N   UNL     1     -42.142  60.554 -55.459  1.00  0.00    -0.359 N 
HETATM   13  C   UNL     1     -42.913  61.360 -54.652  1.00  0.00     0.219 C 
HETATM   14  O   UNL     1     -43.790  62.097 -55.086  1.00  0.00    -0.274 OA
HETATM   15  H   UNL     1     -41.376  60.032 -55.051  1.00  0.00     0.162 HD
BRANCH  13  16
HETATM   16  C   UNL     1     -42.550  61.249 -53.184  1.00  0.00     0.128 C 
BRANCH  16  17
HETATM   17  C   UNL     1     -43.662  60.583 -52.362  1.00  0.00     0.094 C 
HETATM   18  N   UNL     1     -44.574  59.847 -53.226  1.00  0.00    -0.362 N 
HETATM   19  C   UNL     1     -44.409  58.553 -53.587  1.00  0.00     0.168 C 
HETATM   20  H   UNL     1     -45.272  60.377 -53.740  1.00  0.00     0.162 HD
HETATM   21  S   UNL     1     -45.332  57.864 -54.781  1.00  0.00    -0.041 SA
HETATM   22  N   UNL     1     -43.475  57.832 -52.918  1.00  0.00    -0.363 N 
HETATM   23  C   UNL     1     -42.526  58.389 -51.969  1.00  0.00     0.081 C 
HETATM   24  H   UNL     1     -43.333  56.888 -53.261  1.00  0.00     0.162 HD
HETATM   25  C   UNL     1     -42.127  57.341 -50.936  1.00  0.00     0.032 C 
HETATM   26  C   UNL     1     -43.105  59.634 -51.298  1.00  0.00     0.050 C 
ENDBRANCH  16  17
ENDBRANCH  13  16
ENDBRANCH  11  12
ENDBRANCH   8  11
BRANCH   4  27
HETATM   27  C   UNL     1     -42.521  55.362 -55.539  1.00  0.00     0.112 A 
HETATM   28  S   UNL     1     -40.882  55.108 -55.080  1.00  0.00    -0.067 SA
HETATM   29  C   UNL     1     -41.385  54.576 -53.524  1.00  0.00     0.035 A 
HETATM   30  C   UNL     1     -42.777  54.603 -53.467  1.00  0.00     0.075 A 
HETATM   31  C   UNL     1     -40.605  54.160 -52.433  1.00  0.00     0.021 A 
HETATM   32  N   UNL     1     -43.410  55.033 -54.621  1.00  0.00    -0.239 NA
HETATM   33  C   UNL     1     -43.415  54.199 -52.277  1.00  0.00     0.033 A 
HETATM   34  C   UNL     1     -42.649  53.783 -51.183  1.00  0.00     0.002 A 
HETATM   35  C   UNL     1     -41.261  53.765 -51.262  1.00  0.00     0.002 A 
ENDBRANCH   4  27
TORSDOF 5
ENDMDL
MODEL 10
REMARK VINA RESULT:      -8.1      2.386      3.029
REMARK  5 active torsions:
REMARK  status: ('A' for Active; 'I' for Inactive)
REMARK    1  A    between atoms: C_4  and  C_5 
REMARK    2  A    between atoms: C_17  and  C_18 
REMARK    3  A    between atoms: C_18  and  N_19 
REMARK       I    between atoms: N_19  and  C_20 
REMARK    4  A    between atoms: C_20  and  C_21 
REMARK    5  A    between atoms: C_21  and  C_22 
ROOT
HETATM    1  C   UNL     1     -41.226  58.987 -51.158  1.00  0.00     0.048 C 
HETATM    2  C   UNL     1     -41.519  57.961 -52.213  1.00  0.00    -0.060 A 
HETATM    3  C   UNL     1     -41.105  56.622 -52.046  1.00  0.00     0.024 A 
HETATM    4  C   UNL     1     -41.351  55.636 -53.024  1.00  0.00     0.034 A 
HETATM    5  C   UNL     1     -42.009  56.054 -54.174  1.00  0.00     0.088 A 
HETATM    6  C   UNL     1     -42.410  57.373 -54.354  1.00  0.00    -0.021 A 
HETATM    7  C   UNL     1     -42.993  57.547 -55.704  1.00  0.00     0.075 C 
HETATM    8  C   UNL     1     -43.151  56.076 -56.111  1.00  0.00     0.151 C 
HETATM    9  O   UNL     1     -42.280  55.270 -55.270  1.00  0.00    -0.342 OA
HETATM   10  C   UNL     1     -42.177  58.337 -53.389  1.00  0.00     0.017 A 
ENDROOT
BRANCH   8  11
HETATM   11  C   UNL     1     -42.773  55.809 -57.574  1.00  0.00     0.155 C 
BRANCH  11  12
HETATM   12  N   UNL     1     -42.399  56.982 -58.343  1.00  0.00    -0.359 N 
HETATM   13  C   UNL     1     -42.327  56.966 -59.718  1.00  0.00     0.219 C 
HETATM   14  O   UNL     1     -42.617  55.985 -60.391  1.00  0.00    -0.274 OA
HETATM   15  H   UNL     1     -42.064  57.794 -57.839  1.00  0.00     0.162 HD
BRANCH  13  16
HETATM   16  C   UNL     1     -41.838  58.279 -60.301  1.00  0.00     0.128 C 
BRANCH  16  17
HETATM   17  C   UNL     1     -42.766  59.449 -59.947  1.00  0.00     0.094 C 
HETATM   18  N   UNL     1     -42.047  60.469 -59.196  1.00  0.00    -0.362 N 
HETATM   19  C   UNL     1     -41.372  61.500 -59.758  1.00  0.00     0.168 C 
HETATM   20  H   UNL     1     -41.882  60.303 -58.207  1.00  0.00     0.162 HD
HETATM   21  S   UNL     1     -40.360  62.461 -58.861  1.00  0.00    -0.041 SA
HETATM   22  N   UNL     1     -41.574  61.733 -61.078  1.00  0.00    -0.363 N 
HETATM   23  C   UNL     1     -42.321  60.857 -61.966  1.00  0.00     0.081 C 
HETATM   24  H   UNL     1     -41.001  62.468 -61.478  1.00  0.00     0.162 HD
HETATM   25  C   UNL     1     -42.937  61.657 -63.109  1.00  0.00     0.032 C 
HETATM   26  C   UNL     1     -43.390  60.089 -61.190  1.00  0.00     0.050 C 
ENDBRANCH  16  17
ENDBRANCH  13  16
ENDBRANCH  11  12
ENDBRANCH   8  11
BRANCH   4  27
HETATM   27  C   UNL     1     -40.877  54.265 -52.785  1.00  0.00     0.112 A 
HETATM   28  S   UNL     1     -40.425  53.229 -54.083  1.00  0.00    -0.067 SA
HETATM   29  C   UNL     1     -40.097  51.958 -52.971  1.00  0.00     0.035 A 
HETATM   30  C   UNL     1     -40.380  52.403 -51.681  1.00  0.00     0.075 A 
HETATM   31  C   UNL     1     -39.628  50.658 -53.223  1.00  0.00     0.021 A 
HETATM   32  N   UNL     1     -40.838  53.706 -51.590  1.00  0.00    -0.239 NA
HETATM   33  C   UNL     1     -40.188  51.518 -50.601  1.00  0.00     0.033 A 
HETATM   34  C   UNL     1     -39.720  50.221 -50.839  1.00  0.00     0.002 A 
HETATM   35  C   UNL     1     -39.444  49.799 -52.135  1.00  0.00     0.002 A 
ENDBRANCH   4  27
TORSDOF 5
ENDMDL
