MODEL 1
REMARK VINA RESULT:      -8.0      0.000      0.000
REMARK  7 active torsions:
REMARK  status: ('A' for Active; 'I' for Inactive)
REMARK    1  A    between atoms: C_2  and  C_3 
REMARK    2  A    between atoms: C_2  and  C_20 
REMARK    3  A    between atoms: C_3  and  C_4 
REMARK       I    between atoms: C_4  and  N_5 
REMARK    4  A    between atoms: N_5  and  C_6 
REMARK    5  A    between atoms: C_13  and  C_14 
REMARK       I    between atoms: C_14  and  N_15 
REMARK    6  A    between atoms: C_20  and  C_21 
REMARK    7  A    between atoms: C_22  and  O_23 
ROOT
HETATM    1  C   UNL     1     -42.696  55.961 -55.954  1.00  0.00     0.222 C 
HETATM    2  N   UNL     1     -42.782  57.206 -55.401  1.00  0.00    -0.327 N 
HETATM    3  O   UNL     1     -42.731  55.888 -57.187  1.00  0.00    -0.273 OA
HETATM    4  H   UNL     1     -43.034  57.889 -56.106  1.00  0.00     0.169 HD
ENDROOT
BRANCH   2   5
HETATM    5  C   UNL     1     -42.619  57.692 -54.093  1.00  0.00     0.035 A 
HETATM    6  C   UNL     1     -41.409  58.168 -53.579  1.00  0.00     0.046 A 
HETATM    7  C   UNL     1     -41.338  58.593 -52.234  1.00  0.00     0.030 A 
HETATM    8  C   UNL     1     -42.493  58.590 -51.466  1.00  0.00     0.063 A 
HETATM    9  C   UNL     1     -40.313  59.067 -51.362  1.00  0.00     0.156 A 
HETATM   10  N   UNL     1     -42.112  59.047 -50.235  1.00  0.00    -0.277 N 
HETATM   11  C   UNL     1     -43.734  58.188 -51.965  1.00  0.00     0.034 A 
HETATM   12  H   UNL     1     -42.700  59.178 -49.420  1.00  0.00     0.189 HD
HETATM   13  N   UNL     1     -40.804  59.339 -50.131  1.00  0.00    -0.168 NA
HETATM   14  C   UNL     1     -43.770  57.746 -53.295  1.00  0.00     0.032 A 
BRANCH   9  15
HETATM   15  C   UNL     1     -38.887  59.235 -51.676  1.00  0.00     0.270 C 
HETATM   16  N   UNL     1     -38.098  59.472 -50.585  1.00  0.00    -0.365 N 
HETATM   17  H   UNL     1     -38.530  59.492 -49.668  1.00  0.00     0.159 HD
HETATM   18  H   UNL     1     -37.101  59.567 -50.697  1.00  0.00     0.159 HD
HETATM   19  O   UNL     1     -38.412  59.162 -52.805  1.00  0.00    -0.266 OA
ENDBRANCH   9  15
ENDBRANCH   2   5
BRANCH   1  20
HETATM   20  C   UNL     1     -42.708  54.705 -55.103  1.00  0.00     0.107 C 
BRANCH  20  21
HETATM   21  C   UNL     1     -41.425  54.445 -54.289  1.00  0.00    -0.006 C 
HETATM   22  C   UNL     1     -40.216  54.073 -55.153  1.00  0.00     0.011 C 
BRANCH  21  23
HETATM   23  C   UNL     1     -41.629  53.394 -53.171  1.00  0.00     0.046 C 
BRANCH  23  24
HETATM   24  C   UNL     1     -41.245  53.883 -51.782  1.00  0.00    -0.024 A 
HETATM   25  C   UNL     1     -40.159  53.331 -51.074  1.00  0.00     0.074 A 
HETATM   26  C   UNL     1     -39.871  53.789 -49.782  1.00  0.00     0.037 A 
HETATM   27  C   UNL     1     -40.640  54.798 -49.196  1.00  0.00     0.003 A 
HETATM   28  C   UNL     1     -41.691  55.369 -49.900  1.00  0.00     0.001 A 
HETATM   29  C   UNL     1     -41.986  54.922 -51.188  1.00  0.00     0.010 A 
BRANCH  25  30
HETATM   30  O   UNL     1     -39.452  52.351 -51.718  1.00  0.00    -0.355 OA
HETATM   31  C   UNL     1     -39.609  51.015 -51.264  1.00  0.00     0.210 C 
ENDBRANCH  25  30
ENDBRANCH  23  24
ENDBRANCH  21  23
ENDBRANCH  20  21
ENDBRANCH   1  20
TORSDOF 7
ENDMDL
MODEL 2
REMARK VINA RESULT:      -7.6      2.303      3.893
REMARK  7 active torsions:
REMARK  status: ('A' for Active; 'I' for Inactive)
REMARK    1  A    between atoms: C_2  and  C_3 
REMARK    2  A    between atoms: C_2  and  C_20 
REMARK    3  A    between atoms: C_3  and  C_4 
REMARK       I    between atoms: C_4  and  N_5 
REMARK    4  A    between atoms: N_5  and  C_6 
REMARK    5  A    between atoms: C_13  and  C_14 
REMARK       I    between atoms: C_14  and  N_15 
REMARK    6  A    between atoms: C_20  and  C_21 
REMARK    7  A    between atoms: C_22  and  O_23 
ROOT
HETATM    1  C   UNL     1     -42.632  55.493 -55.107  1.00  0.00     0.222 C 
HETATM    2  N   UNL     1     -42.332  56.808 -54.898  1.00  0.00    -0.327 N 
HETATM    3  O   UNL     1     -42.363  55.022 -56.217  1.00  0.00    -0.273 OA
HETATM    4  H   UNL     1     -42.075  57.254 -55.771  1.00  0.00     0.169 HD
ENDROOT
BRANCH   2   5
HETATM    5  C   UNL     1     -42.336  57.628 -53.757  1.00  0.00     0.035 A 
HETATM    6  C   UNL     1     -43.495  58.053 -53.101  1.00  0.00     0.046 A 
HETATM    7  C   UNL     1     -43.394  58.915 -51.987  1.00  0.00     0.030 A 
HETATM    8  C   UNL     1     -42.136  59.271 -51.525  1.00  0.00     0.063 A 
HETATM    9  C   UNL     1     -44.311  59.586 -51.125  1.00  0.00     0.156 A 
HETATM   10  N   UNL     1     -42.361  60.094 -50.457  1.00  0.00    -0.277 N 
HETATM   11  C   UNL     1     -40.955  58.811 -52.110  1.00  0.00     0.034 A 
HETATM   12  H   UNL     1     -41.667  60.544 -49.871  1.00  0.00     0.189 HD
HETATM   13  N   UNL     1     -43.660  60.313 -50.188  1.00  0.00    -0.168 NA
HETATM   14  C   UNL     1     -41.085  57.978 -53.231  1.00  0.00     0.032 A 
BRANCH   9  15
HETATM   15  C   UNL     1     -45.779  59.565 -51.199  1.00  0.00     0.270 C 
HETATM   16  N   UNL     1     -46.305  60.423 -52.125  1.00  0.00    -0.365 N 
HETATM   17  H   UNL     1     -45.670  60.976 -52.690  1.00  0.00     0.159 HD
HETATM   18  H   UNL     1     -47.301  60.454 -52.272  1.00  0.00     0.159 HD
HETATM   19  O   UNL     1     -46.497  58.844 -50.516  1.00  0.00    -0.266 OA
ENDBRANCH   9  15
ENDBRANCH   2   5
BRANCH   1  20
HETATM   20  C   UNL     1     -43.398  54.676 -54.084  1.00  0.00     0.107 C 
BRANCH  20  21
HETATM   21  C   UNL     1     -42.550  54.091 -52.935  1.00  0.00    -0.006 C 
HETATM   22  C   UNL     1     -42.706  54.849 -51.612  1.00  0.00     0.011 C 
BRANCH  21  23
HETATM   23  C   UNL     1     -41.053  53.960 -53.304  1.00  0.00     0.046 C 
BRANCH  23  24
HETATM   24  C   UNL     1     -40.529  52.532 -53.270  1.00  0.00    -0.024 A 
HETATM   25  C   UNL     1     -39.830  52.023 -52.157  1.00  0.00     0.074 A 
HETATM   26  C   UNL     1     -39.333  50.715 -52.191  1.00  0.00     0.037 A 
HETATM   27  C   UNL     1     -39.537  49.904 -53.311  1.00  0.00     0.003 A 
HETATM   28  C   UNL     1     -40.253  50.387 -54.398  1.00  0.00     0.001 A 
HETATM   29  C   UNL     1     -40.754  51.688 -54.374  1.00  0.00     0.010 A 
BRANCH  25  30
HETATM   30  O   UNL     1     -39.675  52.877 -51.097  1.00  0.00    -0.355 OA
HETATM   31  C   UNL     1     -40.427  52.615 -49.922  1.00  0.00     0.210 C 
ENDBRANCH  25  30
ENDBRANCH  23  24
ENDBRANCH  21  23
ENDBRANCH  20  21
ENDBRANCH   1  20
TORSDOF 7
ENDMDL
MODEL 3
REMARK VINA RESULT:      -7.5      2.336      4.709
REMARK  7 active torsions:
REMARK  status: ('A' for Active; 'I' for Inactive)
REMARK    1  A    between atoms: C_2  and  C_3 
REMARK    2  A    between atoms: C_2  and  C_20 
REMARK    3  A    between atoms: C_3  and  C_4 
REMARK       I    between atoms: C_4  and  N_5 
REMARK    4  A    between atoms: N_5  and  C_6 
REMARK    5  A    between atoms: C_13  and  C_14 
REMARK       I    between atoms: C_14  and  N_15 
REMARK    6  A    between atoms: C_20  and  C_21 
REMARK    7  A    between atoms: C_22  and  O_23 
ROOT
HETATM    1  C   UNL     1     -43.640  54.530 -51.047  1.00  0.00     0.222 C 
HETATM    2  N   UNL     1     -43.920  55.859 -51.179  1.00  0.00    -0.327 N 
HETATM    3  O   UNL     1     -44.450  53.843 -50.414  1.00  0.00    -0.273 OA
HETATM    4  H   UNL     1     -44.694  56.118 -50.578  1.00  0.00     0.169 HD
ENDROOT
BRANCH   2   5
HETATM    5  C   UNL     1     -43.348  56.894 -51.938  1.00  0.00     0.035 A 
HETATM    6  C   UNL     1     -43.369  56.944 -53.335  1.00  0.00     0.046 A 
HETATM    7  C   UNL     1     -42.725  58.005 -54.008  1.00  0.00     0.030 A 
HETATM    8  C   UNL     1     -42.135  59.015 -53.261  1.00  0.00     0.063 A 
HETATM    9  C   UNL     1     -42.485  58.362 -55.368  1.00  0.00     0.156 A 
HETATM   10  N   UNL     1     -41.604  59.881 -54.175  1.00  0.00    -0.277 N 
HETATM   11  C   UNL     1     -42.153  59.034 -51.865  1.00  0.00     0.034 A 
HETATM   12  H   UNL     1     -41.098  60.739 -53.988  1.00  0.00     0.189 HD
HETATM   13  N   UNL     1     -41.789  59.518 -55.457  1.00  0.00    -0.168 NA
HETATM   14  C   UNL     1     -42.777  57.955 -51.223  1.00  0.00     0.032 A 
BRANCH   9  15
HETATM   15  C   UNL     1     -42.882  57.608 -56.566  1.00  0.00     0.270 C 
HETATM   16  N   UNL     1     -42.134  56.486 -56.795  1.00  0.00    -0.365 N 
HETATM   17  H   UNL     1     -41.401  56.248 -56.136  1.00  0.00     0.159 HD
HETATM   18  H   UNL     1     -42.354  55.887 -57.574  1.00  0.00     0.159 HD
HETATM   19  O   UNL     1     -43.805  57.923 -57.309  1.00  0.00    -0.266 OA
ENDBRANCH   9  15
ENDBRANCH   2   5
BRANCH   1  20
HETATM   20  C   UNL     1     -42.326  53.939 -51.519  1.00  0.00     0.107 C 
BRANCH  20  21
HETATM   21  C   UNL     1     -41.280  53.684 -50.414  1.00  0.00    -0.006 C 
HETATM   22  C   UNL     1     -41.197  54.810 -49.378  1.00  0.00     0.011 C 
BRANCH  21  23
HETATM   23  C   UNL     1     -39.874  53.373 -50.982  1.00  0.00     0.046 C 
BRANCH  23  24
HETATM   24  C   UNL     1     -39.833  52.172 -51.914  1.00  0.00    -0.024 A 
HETATM   25  C   UNL     1     -39.963  52.310 -53.311  1.00  0.00     0.074 A 
HETATM   26  C   UNL     1     -39.959  51.169 -54.122  1.00  0.00     0.037 A 
HETATM   27  C   UNL     1     -39.811  49.898 -53.563  1.00  0.00     0.003 A 
HETATM   28  C   UNL     1     -39.650  49.756 -52.191  1.00  0.00     0.001 A 
HETATM   29  C   UNL     1     -39.651  50.885 -51.373  1.00  0.00     0.010 A 
BRANCH  25  30
HETATM   30  O   UNL     1     -40.098  53.589 -53.783  1.00  0.00    -0.355 OA
HETATM   31  C   UNL     1     -40.272  53.763 -55.181  1.00  0.00     0.210 C 
ENDBRANCH  25  30
ENDBRANCH  23  24
ENDBRANCH  21  23
ENDBRANCH  20  21
ENDBRANCH   1  20
TORSDOF 7
ENDMDL
MODEL 4
REMARK VINA RESULT:      -7.4      3.725      6.748
REMARK  7 active torsions:
REMARK  status: ('A' for Active; 'I' for Inactive)
REMARK    1  A    between atoms: C_2  and  C_3 
REMARK    2  A    between atoms: C_2  and  C_20 
REMARK    3  A    between atoms: C_3  and  C_4 
REMARK       I    between atoms: C_4  and  N_5 
REMARK    4  A    between atoms: N_5  and  C_6 
REMARK    5  A    between atoms: C_13  and  C_14 
REMARK       I    between atoms: C_14  and  N_15 
REMARK    6  A    between atoms: C_20  and  C_21 
REMARK    7  A    between atoms: C_22  and  O_23 
ROOT
HETATM    1  C   UNL     1     -41.990  55.904 -55.682  1.00  0.00     0.222 C 
HETATM    2  N   UNL     1     -42.209  56.682 -56.781  1.00  0.00    -0.327 N 
HETATM    3  O   UNL     1     -41.170  56.314 -54.853  1.00  0.00    -0.273 OA
HETATM    4  H   UNL     1     -41.520  57.424 -56.831  1.00  0.00     0.169 HD
ENDROOT
BRANCH   2   5
HETATM    5  C   UNL     1     -43.150  56.636 -57.823  1.00  0.00     0.035 A 
HETATM    6  C   UNL     1     -44.298  57.432 -57.878  1.00  0.00     0.046 A 
HETATM    7  C   UNL     1     -45.208  57.277 -58.947  1.00  0.00     0.030 A 
HETATM    8  C   UNL     1     -44.908  56.377 -59.959  1.00  0.00     0.063 A 
HETATM    9  C   UNL     1     -46.468  57.837 -59.309  1.00  0.00     0.156 A 
HETATM   10  N   UNL     1     -45.956  56.450 -60.833  1.00  0.00    -0.277 N 
HETATM   11  C   UNL     1     -43.738  55.615 -59.975  1.00  0.00     0.034 A 
HETATM   12  H   UNL     1     -46.076  55.931 -61.695  1.00  0.00     0.189 HD
HETATM   13  N   UNL     1     -46.920  57.316 -60.473  1.00  0.00    -0.168 NA
HETATM   14  C   UNL     1     -42.866  55.770 -58.888  1.00  0.00     0.032 A 
BRANCH   9  15
HETATM   15  C   UNL     1     -47.249  58.830 -58.556  1.00  0.00     0.270 C 
HETATM   16  N   UNL     1     -47.571  58.440 -57.286  1.00  0.00    -0.365 N 
HETATM   17  H   UNL     1     -47.245  57.539 -56.956  1.00  0.00     0.159 HD
HETATM   18  H   UNL     1     -48.076  59.069 -56.681  1.00  0.00     0.159 HD
HETATM   19  O   UNL     1     -47.585  59.924 -58.994  1.00  0.00    -0.266 OA
ENDBRANCH   9  15
ENDBRANCH   2   5
BRANCH   1  20
HETATM   20  C   UNL     1     -42.605  54.524 -55.544  1.00  0.00     0.107 C 
BRANCH  20  21
HETATM   21  C   UNL     1     -42.199  53.742 -54.279  1.00  0.00    -0.006 C 
HETATM   22  C   UNL     1     -42.733  54.357 -52.980  1.00  0.00     0.011 C 
BRANCH  21  23
HETATM   23  C   UNL     1     -40.670  53.522 -54.177  1.00  0.00     0.046 C 
BRANCH  23  24
HETATM   24  C   UNL     1     -40.275  52.171 -53.597  1.00  0.00    -0.024 A 
HETATM   25  C   UNL     1     -39.866  52.030 -52.256  1.00  0.00     0.074 A 
HETATM   26  C   UNL     1     -39.474  50.772 -51.782  1.00  0.00     0.037 A 
HETATM   27  C   UNL     1     -39.500  49.655 -52.620  1.00  0.00     0.003 A 
HETATM   28  C   UNL     1     -39.933  49.780 -53.933  1.00  0.00     0.001 A 
HETATM   29  C   UNL     1     -40.327  51.028 -54.416  1.00  0.00     0.010 A 
BRANCH  25  30
HETATM   30  O   UNL     1     -39.872  53.170 -51.498  1.00  0.00    -0.355 OA
HETATM   31  C   UNL     1     -40.373  53.080 -50.172  1.00  0.00     0.210 C 
ENDBRANCH  25  30
ENDBRANCH  23  24
ENDBRANCH  21  23
ENDBRANCH  20  21
ENDBRANCH   1  20
TORSDOF 7
ENDMDL
MODEL 5
REMARK VINA RESULT:      -7.4      2.953      4.931
REMARK  7 active torsions:
REMARK  status: ('A' for Active; 'I' for Inactive)
REMARK    1  A    between atoms: C_2  and  C_3 
REMARK    2  A    between atoms: C_2  and  C_20 
REMARK    3  A    between atoms: C_3  and  C_4 
REMARK       I    between atoms: C_4  and  N_5 
REMARK    4  A    between atoms: N_5  and  C_6 
REMARK    5  A    between atoms: C_13  and  C_14 
REMARK       I    between atoms: C_14  and  N_15 
REMARK    6  A    between atoms: C_20  and  C_21 
REMARK    7  A    between atoms: C_22  and  O_23 
ROOT
HETATM    1  C   UNL     1     -44.292  57.031 -51.525  1.00  0.00     0.222 C 
HETATM    2  N   UNL     1     -44.653  57.330 -52.807  1.00  0.00    -0.327 N 
HETATM    3  O   UNL     1     -45.140  57.211 -50.644  1.00  0.00    -0.273 OA
HETATM    4  H   UNL     1     -45.537  57.826 -52.819  1.00  0.00     0.169 HD
ENDROOT
BRANCH   2   5
HETATM    5  C   UNL     1     -44.044  57.113 -54.055  1.00  0.00     0.035 A 
HETATM    6  C   UNL     1     -43.532  58.131 -54.865  1.00  0.00     0.046 A 
HETATM    7  C   UNL     1     -42.979  57.813 -56.125  1.00  0.00     0.030 A 
HETATM    8  C   UNL     1     -42.897  56.481 -56.505  1.00  0.00     0.063 A 
HETATM    9  C   UNL     1     -42.433  58.546 -57.219  1.00  0.00     0.156 A 
HETATM   10  N   UNL     1     -42.327  56.493 -57.748  1.00  0.00    -0.277 N 
HETATM   11  C   UNL     1     -43.333  55.432 -55.694  1.00  0.00     0.034 A 
HETATM   12  H   UNL     1     -42.112  55.694 -58.333  1.00  0.00     0.189 HD
HETATM   13  N   UNL     1     -42.038  57.720 -58.215  1.00  0.00    -0.168 NA
HETATM   14  C   UNL     1     -43.902  55.779 -54.460  1.00  0.00     0.032 A 
BRANCH   9  15
HETATM   15  C   UNL     1     -42.310  60.007 -57.336  1.00  0.00     0.270 C 
HETATM   16  N   UNL     1     -43.468  60.639 -57.694  1.00  0.00    -0.365 N 
HETATM   17  H   UNL     1     -44.304  60.081 -57.828  1.00  0.00     0.159 HD
HETATM   18  H   UNL     1     -43.490  61.644 -57.766  1.00  0.00     0.159 HD
HETATM   19  O   UNL     1     -41.278  60.634 -57.125  1.00  0.00    -0.266 OA
ENDBRANCH   9  15
ENDBRANCH   2   5
BRANCH   1  20
HETATM   20  C   UNL     1     -42.872  56.638 -51.165  1.00  0.00     0.107 C 
BRANCH  20  21
HETATM   21  C   UNL     1     -42.552  55.134 -51.283  1.00  0.00    -0.006 C 
HETATM   22  C   UNL     1     -43.233  54.277 -50.210  1.00  0.00     0.011 C 
BRANCH  21  23
HETATM   23  C   UNL     1     -41.031  54.847 -51.312  1.00  0.00     0.046 C 
BRANCH  23  24
HETATM   24  C   UNL     1     -40.615  53.813 -52.348  1.00  0.00    -0.024 A 
HETATM   25  C   UNL     1     -40.199  52.518 -51.979  1.00  0.00     0.074 A 
HETATM   26  C   UNL     1     -39.788  51.616 -52.967  1.00  0.00     0.037 A 
HETATM   27  C   UNL     1     -39.802  51.981 -54.316  1.00  0.00     0.003 A 
HETATM   28  C   UNL     1     -40.241  53.244 -54.689  1.00  0.00     0.001 A 
HETATM   29  C   UNL     1     -40.654  54.150 -53.714  1.00  0.00     0.010 A 
BRANCH  25  30
HETATM   30  O   UNL     1     -40.219  52.234 -50.639  1.00  0.00    -0.355 OA
HETATM   31  C   UNL     1     -40.228  50.868 -50.252  1.00  0.00     0.210 C 
ENDBRANCH  25  30
ENDBRANCH  23  24
ENDBRANCH  21  23
ENDBRANCH  20  21
ENDBRANCH   1  20
TORSDOF 7
ENDMDL
MODEL 6
REMARK VINA RESULT:      -7.3      1.642      2.843
REMARK  7 active torsions:
REMARK  status: ('A' for Active; 'I' for Inactive)
REMARK    1  A    between atoms: C_2  and  C_3 
REMARK    2  A    between atoms: C_2  and  C_20 
REMARK    3  A    between atoms: C_3  and  C_4 
REMARK       I    between atoms: C_4  and  N_5 
REMARK    4  A    between atoms: N_5  and  C_6 
REMARK    5  A    between atoms: C_13  and  C_14 
REMARK       I    between atoms: C_14  and  N_15 
REMARK    6  A    between atoms: C_20  and  C_21 
REMARK    7  A    between atoms: C_22  and  O_23 
ROOT
HETATM    1  C   UNL     1     -43.103  55.463 -55.384  1.00  0.00     0.222 C 
HETATM    2  N   UNL     1     -43.058  56.824 -55.478  1.00  0.00    -0.327 N 
HETATM    3  O   UNL     1     -42.626  54.816 -56.323  1.00  0.00    -0.273 OA
HETATM    4  H   UNL     1     -42.777  57.104 -56.411  1.00  0.00     0.169 HD
ENDROOT
BRANCH   2   5
HETATM    5  C   UNL     1     -43.339  57.863 -54.574  1.00  0.00     0.035 A 
HETATM    6  C   UNL     1     -42.473  58.272 -53.556  1.00  0.00     0.046 A 
HETATM    7  C   UNL     1     -42.868  59.297 -52.670  1.00  0.00     0.030 A 
HETATM    8  C   UNL     1     -44.090  59.923 -52.869  1.00  0.00     0.063 A 
HETATM    9  C   UNL     1     -42.312  59.925 -51.516  1.00  0.00     0.156 A 
HETATM   10  N   UNL     1     -44.188  60.853 -51.871  1.00  0.00    -0.277 N 
HETATM   11  C   UNL     1     -44.951  59.590 -53.916  1.00  0.00     0.034 A 
HETATM   12  H   UNL     1     -44.951  61.499 -51.706  1.00  0.00     0.189 HD
HETATM   13  N   UNL     1     -43.138  60.880 -51.032  1.00  0.00    -0.168 NA
HETATM   14  C   UNL     1     -44.545  58.551 -54.765  1.00  0.00     0.032 A 
BRANCH   9  15
HETATM   15  C   UNL     1     -41.032  59.610 -50.864  1.00  0.00     0.270 C 
HETATM   16  N   UNL     1     -41.138  59.334 -49.529  1.00  0.00    -0.365 N 
HETATM   17  H   UNL     1     -42.058  59.343 -49.102  1.00  0.00     0.159 HD
HETATM   18  H   UNL     1     -40.318  59.074 -49.004  1.00  0.00     0.159 HD
HETATM   19  O   UNL     1     -39.950  59.577 -51.440  1.00  0.00    -0.266 OA
ENDBRANCH   9  15
ENDBRANCH   2   5
BRANCH   1  20
HETATM   20  C   UNL     1     -43.837  54.764 -54.256  1.00  0.00     0.107 C 
BRANCH  20  21
HETATM   21  C   UNL     1     -42.976  54.407 -53.027  1.00  0.00    -0.006 C 
HETATM   22  C   UNL     1     -43.277  55.270 -51.797  1.00  0.00     0.011 C 
BRANCH  21  23
HETATM   23  C   UNL     1     -41.460  54.423 -53.336  1.00  0.00     0.046 C 
BRANCH  23  24
HETATM   24  C   UNL     1     -40.796  53.056 -53.255  1.00  0.00    -0.024 A 
HETATM   25  C   UNL     1     -40.079  52.644 -52.114  1.00  0.00     0.074 A 
HETATM   26  C   UNL     1     -39.452  51.392 -52.105  1.00  0.00     0.037 A 
HETATM   27  C   UNL     1     -39.546  50.541 -53.209  1.00  0.00     0.003 A 
HETATM   28  C   UNL     1     -40.278  50.926 -54.324  1.00  0.00     0.001 A 
HETATM   29  C   UNL     1     -40.907  52.170 -54.344  1.00  0.00     0.010 A 
BRANCH  25  30
HETATM   30  O   UNL     1     -40.037  53.532 -51.072  1.00  0.00    -0.355 OA
HETATM   31  C   UNL     1     -40.395  53.056 -49.783  1.00  0.00     0.210 C 
ENDBRANCH  25  30
ENDBRANCH  23  24
ENDBRANCH  21  23
ENDBRANCH  20  21
ENDBRANCH   1  20
TORSDOF 7
ENDMDL
MODEL 7
REMARK VINA RESULT:      -7.3      3.167      6.120
REMARK  7 active torsions:
REMARK  status: ('A' for Active; 'I' for Inactive)
REMARK    1  A    between atoms: C_2  and  C_3 
REMARK    2  A    between atoms: C_2  and  C_20 
REMARK    3  A    between atoms: C_3  and  C_4 
REMARK       I    between atoms: C_4  and  N_5 
REMARK    4  A    between atoms: N_5  and  C_6 
REMARK    5  A    between atoms: C_13  and  C_14 
REMARK       I    between atoms: C_14  and  N_15 
REMARK    6  A    between atoms: C_20  and  C_21 
REMARK    7  A    between atoms: C_22  and  O_23 
ROOT
HETATM    1  C   UNL     1     -41.408  55.398 -55.072  1.00  0.00     0.222 C 
HETATM    2  N   UNL     1     -41.526  56.192 -56.177  1.00  0.00    -0.327 N 
HETATM    3  O   UNL     1     -40.290  55.316 -54.553  1.00  0.00    -0.273 OA
HETATM    4  H   UNL     1     -40.610  56.474 -56.508  1.00  0.00     0.169 HD
ENDROOT
BRANCH   2   5
HETATM    5  C   UNL     1     -42.626  56.651 -56.920  1.00  0.00     0.035 A 
HETATM    6  C   UNL     1     -43.249  55.915 -57.933  1.00  0.00     0.046 A 
HETATM    7  C   UNL     1     -44.321  56.484 -58.654  1.00  0.00     0.030 A 
HETATM    8  C   UNL     1     -44.778  57.744 -58.296  1.00  0.00     0.063 A 
HETATM    9  C   UNL     1     -45.141  56.089 -59.753  1.00  0.00     0.156 A 
HETATM   10  N   UNL     1     -45.803  58.017 -59.159  1.00  0.00    -0.277 N 
HETATM   11  C   UNL     1     -44.227  58.480 -57.245  1.00  0.00     0.034 A 
HETATM   12  H   UNL     1     -46.374  58.854 -59.190  1.00  0.00     0.189 HD
HETATM   13  N   UNL     1     -46.048  57.046 -60.056  1.00  0.00    -0.168 NA
HETATM   14  C   UNL     1     -43.147  57.902 -56.564  1.00  0.00     0.032 A 
BRANCH   9  15
HETATM   15  C   UNL     1     -45.053  54.840 -60.523  1.00  0.00     0.270 C 
HETATM   16  N   UNL     1     -45.139  53.707 -59.762  1.00  0.00    -0.365 N 
HETATM   17  H   UNL     1     -45.274  53.802 -58.762  1.00  0.00     0.159 HD
HETATM   18  H   UNL     1     -45.122  52.802 -60.206  1.00  0.00     0.159 HD
HETATM   19  O   UNL     1     -44.927  54.784 -61.741  1.00  0.00    -0.266 OA
ENDBRANCH   9  15
ENDBRANCH   2   5
BRANCH   1  20
HETATM   20  C   UNL     1     -42.553  54.531 -54.585  1.00  0.00     0.107 C 
BRANCH  20  21
HETATM   21  C   UNL     1     -43.270  55.034 -53.316  1.00  0.00    -0.006 C 
HETATM   22  C   UNL     1     -42.759  56.391 -52.821  1.00  0.00     0.011 C 
BRANCH  21  23
HETATM   23  C   UNL     1     -43.244  54.000 -52.165  1.00  0.00     0.046 C 
BRANCH  23  24
HETATM   24  C   UNL     1     -42.049  54.139 -51.233  1.00  0.00    -0.024 A 
HETATM   25  C   UNL     1     -40.826  53.488 -51.489  1.00  0.00     0.074 A 
HETATM   26  C   UNL     1     -39.770  53.616 -50.579  1.00  0.00     0.037 A 
HETATM   27  C   UNL     1     -39.912  54.397 -49.429  1.00  0.00     0.003 A 
HETATM   28  C   UNL     1     -41.103  55.068 -49.186  1.00  0.00     0.001 A 
HETATM   29  C   UNL     1     -42.161  54.948 -50.086  1.00  0.00     0.010 A 
BRANCH  25  30
HETATM   30  O   UNL     1     -40.765  52.746 -52.639  1.00  0.00    -0.355 OA
HETATM   31  C   UNL     1     -39.749  51.759 -52.736  1.00  0.00     0.210 C 
ENDBRANCH  25  30
ENDBRANCH  23  24
ENDBRANCH  21  23
ENDBRANCH  20  21
ENDBRANCH   1  20
TORSDOF 7
ENDMDL
MODEL 8
REMARK VINA RESULT:      -7.2      2.000      2.948
REMARK  7 active torsions:
REMARK  status: ('A' for Active; 'I' for Inactive)
REMARK    1  A    between atoms: C_2  and  C_3 
REMARK    2  A    between atoms: C_2  and  C_20 
REMARK    3  A    between atoms: C_3  and  C_4 
REMARK       I    between atoms: C_4  and  N_5 
REMARK    4  A    between atoms: N_5  and  C_6 
REMARK    5  A    between atoms: C_13  and  C_14 
REMARK       I    between atoms: C_14  and  N_15 
REMARK    6  A    between atoms: C_20  and  C_21 
REMARK    7  A    between atoms: C_22  and  O_23 
ROOT
HETATM    1  C   UNL     1     -42.767  55.607 -55.886  1.00  0.00     0.222 C 
HETATM    2  N   UNL     1     -42.866  56.928 -55.558  1.00  0.00    -0.327 N 
HETATM    3  O   UNL     1     -42.851  55.314 -57.084  1.00  0.00    -0.273 OA
HETATM    4  H   UNL     1     -43.168  57.469 -56.361  1.00  0.00     0.169 HD
ENDROOT
BRANCH   2   5
HETATM    5  C   UNL     1     -42.663  57.643 -54.366  1.00  0.00     0.035 A 
HETATM    6  C   UNL     1     -43.691  58.051 -53.511  1.00  0.00     0.046 A 
HETATM    7  C   UNL     1     -43.386  58.805 -52.357  1.00  0.00     0.030 A 
HETATM    8  C   UNL     1     -42.057  59.072 -52.061  1.00  0.00     0.063 A 
HETATM    9  C   UNL     1     -44.132  59.431 -51.315  1.00  0.00     0.156 A 
HETATM   10  N   UNL     1     -42.082  59.805 -50.908  1.00  0.00    -0.277 N 
HETATM   11  C   UNL     1     -40.999  58.622 -52.853  1.00  0.00     0.034 A 
HETATM   12  H   UNL     1     -41.289  60.175 -50.397  1.00  0.00     0.189 HD
HETATM   13  N   UNL     1     -43.315  60.047 -50.430  1.00  0.00    -0.168 NA
HETATM   14  C   UNL     1     -41.332  57.898 -54.006  1.00  0.00     0.032 A 
BRANCH   9  15
HETATM   15  C   UNL     1     -45.594  59.470 -51.170  1.00  0.00     0.270 C 
HETATM   16  N   UNL     1     -46.233  60.192 -52.140  1.00  0.00    -0.365 N 
HETATM   17  H   UNL     1     -45.678  60.614 -52.876  1.00  0.00     0.159 HD
HETATM   18  H   UNL     1     -47.239  60.248 -52.144  1.00  0.00     0.159 HD
HETATM   19  O   UNL     1     -46.218  58.907 -50.277  1.00  0.00    -0.266 OA
ENDBRANCH   9  15
ENDBRANCH   2   5
BRANCH   1  20
HETATM   20  C   UNL     1     -42.707  54.522 -54.827  1.00  0.00     0.107 C 
BRANCH  20  21
HETATM   21  C   UNL     1     -41.340  54.348 -54.135  1.00  0.00    -0.006 C 
HETATM   22  C   UNL     1     -40.192  54.069 -55.111  1.00  0.00     0.011 C 
BRANCH  21  23
HETATM   23  C   UNL     1     -41.367  53.275 -53.019  1.00  0.00     0.046 C 
BRANCH  23  24
HETATM   24  C   UNL     1     -41.157  53.832 -51.619  1.00  0.00    -0.024 A 
HETATM   25  C   UNL     1     -40.481  53.100 -50.622  1.00  0.00     0.074 A 
HETATM   26  C   UNL     1     -40.349  53.640 -49.337  1.00  0.00     0.037 A 
HETATM   27  C   UNL     1     -40.864  54.904 -49.039  1.00  0.00     0.003 A 
HETATM   28  C   UNL     1     -41.502  55.645 -50.025  1.00  0.00     0.001 A 
HETATM   29  C   UNL     1     -41.639  55.118 -51.308  1.00  0.00     0.010 A 
BRANCH  25  30
HETATM   30  O   UNL     1     -40.001  51.872 -50.994  1.00  0.00    -0.355 OA
HETATM   31  C   UNL     1     -40.257  50.773 -50.132  1.00  0.00     0.210 C 
ENDBRANCH  25  30
ENDBRANCH  23  24
ENDBRANCH  21  23
ENDBRANCH  20  21
ENDBRANCH   1  20
TORSDOF 7
ENDMDL
MODEL 9
REMARK VINA RESULT:      -7.2      2.836      5.079
REMARK  7 active torsions:
REMARK  status: ('A' for Active; 'I' for Inactive)
REMARK    1  A    between atoms: C_2  and  C_3 
REMARK    2  A    between atoms: C_2  and  C_20 
REMARK    3  A    between atoms: C_3  and  C_4 
REMARK       I    between atoms: C_4  and  N_5 
REMARK    4  A    between atoms: N_5  and  C_6 
REMARK    5  A    between atoms: C_13  and  C_14 
REMARK       I    between atoms: C_14  and  N_15 
REMARK    6  A    between atoms: C_20  and  C_21 
REMARK    7  A    between atoms: C_22  and  O_23 
ROOT
HETATM    1  C   UNL     1     -44.015  56.806 -51.413  1.00  0.00     0.222 C 
HETATM    2  N   UNL     1     -44.887  57.238 -52.370  1.00  0.00    -0.327 N 
HETATM    3  O   UNL     1     -44.492  56.207 -50.443  1.00  0.00    -0.273 OA
HETATM    4  H   UNL     1     -45.842  57.141 -52.046  1.00  0.00     0.169 HD
ENDROOT
BRANCH   2   5
HETATM    5  C   UNL     1     -44.716  57.790 -53.651  1.00  0.00     0.035 A 
HETATM    6  C   UNL     1     -44.297  57.062 -54.768  1.00  0.00     0.046 A 
HETATM    7  C   UNL     1     -44.112  57.720 -56.003  1.00  0.00     0.030 A 
HETATM    8  C   UNL     1     -44.413  59.071 -56.097  1.00  0.00     0.063 A 
HETATM    9  C   UNL     1     -43.655  57.350 -57.303  1.00  0.00     0.156 A 
HETATM   10  N   UNL     1     -44.137  59.416 -57.391  1.00  0.00    -0.277 N 
HETATM   11  C   UNL     1     -44.900  59.816 -55.021  1.00  0.00     0.034 A 
HETATM   12  H   UNL     1     -44.242  60.329 -57.819  1.00  0.00     0.189 HD
HETATM   13  N   UNL     1     -43.673  58.407 -58.148  1.00  0.00    -0.168 NA
HETATM   14  C   UNL     1     -45.049  59.144 -53.800  1.00  0.00     0.032 A 
BRANCH   9  15
HETATM   15  C   UNL     1     -43.184  56.027 -57.736  1.00  0.00     0.270 C 
HETATM   16  N   UNL     1     -42.173  55.515 -56.970  1.00  0.00    -0.365 N 
HETATM   17  H   UNL     1     -41.846  56.053 -56.175  1.00  0.00     0.159 HD
HETATM   18  H   UNL     1     -41.808  54.598 -57.169  1.00  0.00     0.159 HD
HETATM   19  O   UNL     1     -43.644  55.403 -58.686  1.00  0.00    -0.266 OA
ENDBRANCH   9  15
ENDBRANCH   2   5
BRANCH   1  20
HETATM   20  C   UNL     1     -42.542  57.169 -51.451  1.00  0.00     0.107 C 
BRANCH  20  21
HETATM   21  C   UNL     1     -41.638  56.184 -52.219  1.00  0.00    -0.006 C 
HETATM   22  C   UNL     1     -41.065  56.765 -53.517  1.00  0.00     0.011 C 
BRANCH  21  23
HETATM   23  C   UNL     1     -42.331  54.829 -52.499  1.00  0.00     0.046 C 
BRANCH  23  24
HETATM   24  C   UNL     1     -41.367  53.670 -52.704  1.00  0.00    -0.024 A 
HETATM   25  C   UNL     1     -40.644  53.107 -51.633  1.00  0.00     0.074 A 
HETATM   26  C   UNL     1     -39.739  52.068 -51.880  1.00  0.00     0.037 A 
HETATM   27  C   UNL     1     -39.559  51.573 -53.175  1.00  0.00     0.003 A 
HETATM   28  C   UNL     1     -40.291  52.101 -54.229  1.00  0.00     0.001 A 
HETATM   29  C   UNL     1     -41.197  53.135 -53.994  1.00  0.00     0.010 A 
BRANCH  25  30
HETATM   30  O   UNL     1     -40.880  53.643 -50.395  1.00  0.00    -0.355 OA
HETATM   31  C   UNL     1     -39.767  54.138 -49.665  1.00  0.00     0.210 C 
ENDBRANCH  25  30
ENDBRANCH  23  24
ENDBRANCH  21  23
ENDBRANCH  20  21
ENDBRANCH   1  20
TORSDOF 7
ENDMDL
MODEL 10
REMARK VINA RESULT:      -7.1      3.174      6.166
REMARK  7 active torsions:
REMARK  status: ('A' for Active; 'I' for Inactive)
REMARK    1  A    between atoms: C_2  and  C_3 
REMARK    2  A    between atoms: C_2  and  C_20 
REMARK    3  A    between atoms: C_3  and  C_4 
REMARK       I    between atoms: C_4  and  N_5 
REMARK    4  A    between atoms: N_5  and  C_6 
REMARK    5  A    between atoms: C_13  and  C_14 
REMARK       I    between atoms: C_14  and  N_15 
REMARK    6  A    between atoms: C_20  and  C_21 
REMARK    7  A    between atoms: C_22  and  O_23 
ROOT
HETATM    1  C   UNL     1     -44.125  57.513 -53.773  1.00  0.00     0.222 C 
HETATM    2  N   UNL     1     -44.395  57.943 -55.041  1.00  0.00    -0.327 N 
HETATM    3  O   UNL     1     -45.038  57.593 -52.944  1.00  0.00    -0.273 OA
HETATM    4  H   UNL     1     -45.283  58.431 -55.066  1.00  0.00     0.169 HD
ENDROOT
BRANCH   2   5
HETATM    5  C   UNL     1     -43.693  57.864 -56.255  1.00  0.00     0.035 A 
HETATM    6  C   UNL     1     -44.028  56.996 -57.299  1.00  0.00     0.046 A 
HETATM    7  C   UNL     1     -43.231  56.960 -58.463  1.00  0.00     0.030 A 
HETATM    8  C   UNL     1     -42.162  57.837 -58.573  1.00  0.00     0.063 A 
HETATM    9  C   UNL     1     -43.213  56.199 -59.670  1.00  0.00     0.156 A 
HETATM   10  N   UNL     1     -41.594  57.568 -59.787  1.00  0.00    -0.277 N 
HETATM   11  C   UNL     1     -41.838  58.766 -57.582  1.00  0.00     0.034 A 
HETATM   12  H   UNL     1     -40.789  58.020 -60.203  1.00  0.00     0.189 HD
HETATM   13  N   UNL     1     -42.197  56.582 -60.476  1.00  0.00    -0.168 NA
HETATM   14  C   UNL     1     -42.630  58.762 -56.426  1.00  0.00     0.032 A 
BRANCH   9  15
HETATM   15  C   UNL     1     -44.126  55.109 -60.046  1.00  0.00     0.270 C 
HETATM   16  N   UNL     1     -44.359  54.206 -59.047  1.00  0.00    -0.365 N 
HETATM   17  H   UNL     1     -43.922  54.356 -58.144  1.00  0.00     0.159 HD
HETATM   18  H   UNL     1     -44.998  53.442 -59.200  1.00  0.00     0.159 HD
HETATM   19  O   UNL     1     -44.657  54.999 -61.145  1.00  0.00    -0.266 OA
ENDBRANCH   9  15
ENDBRANCH   2   5
BRANCH   1  20
HETATM   20  C   UNL     1     -42.730  57.095 -53.351  1.00  0.00     0.107 C 
BRANCH  20  21
HETATM   21  C   UNL     1     -42.374  55.617 -53.613  1.00  0.00    -0.006 C 
HETATM   22  C   UNL     1     -43.192  54.632 -52.771  1.00  0.00     0.011 C 
BRANCH  21  23
HETATM   23  C   UNL     1     -40.861  55.330 -53.456  1.00  0.00     0.046 C 
BRANCH  23  24
HETATM   24  C   UNL     1     -40.520  53.852 -53.336  1.00  0.00    -0.024 A 
HETATM   25  C   UNL     1     -40.155  53.271 -52.104  1.00  0.00     0.074 A 
HETATM   26  C   UNL     1     -39.812  51.915 -52.054  1.00  0.00     0.037 A 
HETATM   27  C   UNL     1     -39.844  51.128 -53.209  1.00  0.00     0.003 A 
HETATM   28  C   UNL     1     -40.233  51.686 -54.419  1.00  0.00     0.001 A 
HETATM   29  C   UNL     1     -40.579  53.035 -54.481  1.00  0.00     0.010 A 
BRANCH  25  30
HETATM   30  O   UNL     1     -40.153  54.105 -51.018  1.00  0.00    -0.355 OA
HETATM   31  C   UNL     1     -40.902  53.709 -49.879  1.00  0.00     0.210 C 
ENDBRANCH  25  30
ENDBRANCH  23  24
ENDBRANCH  21  23
ENDBRANCH  20  21
ENDBRANCH   1  20
TORSDOF 7
ENDMDL
