MODEL 1
REMARK VINA RESULT:      -8.7      0.000      0.000
REMARK  5 active torsions:
REMARK  status: ('A' for Active; 'I' for Inactive)
REMARK    1  A    between atoms: C_8  and  C_9 
REMARK    2  A    between atoms: C_9  and  N_10 
REMARK       I    between atoms: N_10  and  C_11 
REMARK    3  A    between atoms: C_11  and  C_12 
REMARK    4  A    between atoms: C_13  and  O_14 
REMARK    5  A    between atoms: O_14  and  C_15 
ROOT
HETATM    1  C   UNL     1     -40.801  54.281 -52.982  1.00  0.00     0.066 A 
HETATM    2  C   UNL     1     -40.575  54.045 -51.620  1.00  0.00     0.091 A 
HETATM    3  C   UNL     1     -40.137  52.793 -51.178  1.00  0.00     0.050 A 
HETATM    4  C   UNL     1     -39.964  51.737 -52.086  1.00  0.00    -0.023 A 
HETATM    5  C   UNL     1     -40.224  51.954 -53.459  1.00  0.00    -0.025 A 
HETATM    6  C   UNL     1     -40.641  53.225 -53.891  1.00  0.00     0.032 A 
HETATM    7  C   UNL     1     -39.543  50.469 -51.657  1.00  0.00     0.012 A 
HETATM    8  C   UNL     1     -39.380  49.426 -52.569  1.00  0.00     0.001 A 
HETATM    9  C   UNL     1     -39.636  49.638 -53.921  1.00  0.00     0.001 A 
HETATM   10  C   UNL     1     -40.055  50.894 -54.363  1.00  0.00     0.012 A 
ENDROOT
BRANCH   1  11
HETATM   11  C   UNL     1     -41.253  55.594 -53.523  1.00  0.00     0.254 C 
HETATM   12  N   UNL     1     -42.393  56.123 -52.968  1.00  0.00    -0.352 N 
HETATM   13  H   UNL     1     -42.796  55.677 -52.152  1.00  0.00     0.163 HD
HETATM   14  O   UNL     1     -40.615  56.135 -54.418  1.00  0.00    -0.268 OA
BRANCH  12  15
HETATM   15  C   UNL     1     -42.922  57.411 -53.351  1.00  0.00     0.165 C 
BRANCH  15  16
HETATM   16  C   UNL     1     -42.779  58.344 -52.203  1.00  0.00     0.009 A 
HETATM   17  C   UNL     1     -43.750  58.741 -51.300  1.00  0.00     0.034 A 
HETATM   18  C   UNL     1     -45.187  58.398 -51.187  1.00  0.00     0.070 C 
HETATM   19  N   UNL     1     -43.133  59.597 -50.434  1.00  0.00    -0.282 N 
HETATM   20  H   UNL     1     -43.536  60.084 -49.642  1.00  0.00     0.189 HD
HETATM   21  N   UNL     1     -41.833  59.787 -50.699  1.00  0.00    -0.179 NA
HETATM   22  C   UNL     1     -41.605  59.030 -51.778  1.00  0.00     0.060 A 
HETATM   23  C   UNL     1     -40.250  58.987 -52.383  1.00  0.00     0.073 C 
ENDBRANCH  15  16
ENDBRANCH  12  15
ENDBRANCH   1  11
BRANCH   2  24
HETATM   24  O   UNL     1     -40.726  55.032 -50.681  1.00  0.00    -0.289 OA
BRANCH  24  25
HETATM   25  C   UNL     1     -41.466  54.533 -49.567  1.00  0.00     0.505 C 
HETATM   26  F   UNL     1     -41.252  55.353 -48.509  1.00  0.00    -0.184 F 
HETATM   27  F   UNL     1     -42.780  54.642 -49.887  1.00  0.00    -0.184 F 
ENDBRANCH  24  25
ENDBRANCH   2  24
TORSDOF 5
ENDMDL
MODEL 2
REMARK VINA RESULT:      -8.2      1.905      2.781
REMARK  5 active torsions:
REMARK  status: ('A' for Active; 'I' for Inactive)
REMARK    1  A    between atoms: C_8  and  C_9 
REMARK    2  A    between atoms: C_9  and  N_10 
REMARK       I    between atoms: N_10  and  C_11 
REMARK    3  A    between atoms: C_11  and  C_12 
REMARK    4  A    between atoms: C_13  and  O_14 
REMARK    5  A    between atoms: O_14  and  C_15 
ROOT
HETATM    1  C   UNL     1     -40.847  54.448 -52.419  1.00  0.00     0.066 A 
HETATM    2  C   UNL     1     -40.366  53.989 -51.186  1.00  0.00     0.091 A 
HETATM    3  C   UNL     1     -39.877  52.685 -51.054  1.00  0.00     0.050 A 
HETATM    4  C   UNL     1     -39.906  51.799 -52.142  1.00  0.00    -0.023 A 
HETATM    5  C   UNL     1     -40.424  52.242 -53.382  1.00  0.00    -0.025 A 
HETATM    6  C   UNL     1     -40.890  53.562 -53.505  1.00  0.00     0.032 A 
HETATM    7  C   UNL     1     -39.437  50.482 -52.022  1.00  0.00     0.012 A 
HETATM    8  C   UNL     1     -39.478  49.610 -53.111  1.00  0.00     0.001 A 
HETATM    9  C   UNL     1     -39.987  50.044 -54.332  1.00  0.00     0.001 A 
HETATM   10  C   UNL     1     -40.456  51.352 -54.467  1.00  0.00     0.012 A 
ENDROOT
BRANCH   1  11
HETATM   11  C   UNL     1     -41.367  55.828 -52.633  1.00  0.00     0.254 C 
HETATM   12  N   UNL     1     -41.074  56.410 -53.843  1.00  0.00    -0.352 N 
HETATM   13  H   UNL     1     -40.640  55.848 -54.566  1.00  0.00     0.163 HD
HETATM   14  O   UNL     1     -42.013  56.378 -51.749  1.00  0.00    -0.268 OA
BRANCH  12  15
HETATM   15  C   UNL     1     -41.554  57.720 -54.214  1.00  0.00     0.165 C 
BRANCH  15  16
HETATM   16  C   UNL     1     -42.953  57.593 -54.700  1.00  0.00     0.009 A 
HETATM   17  C   UNL     1     -43.408  56.931 -55.827  1.00  0.00     0.034 A 
HETATM   18  C   UNL     1     -42.692  56.177 -56.882  1.00  0.00     0.070 C 
HETATM   19  N   UNL     1     -44.763  57.096 -55.840  1.00  0.00    -0.282 N 
HETATM   20  H   UNL     1     -45.430  56.748 -56.520  1.00  0.00     0.189 HD
HETATM   21  N   UNL     1     -45.229  57.811 -54.807  1.00  0.00    -0.179 NA
HETATM   22  C   UNL     1     -44.134  58.122 -54.105  1.00  0.00     0.060 A 
HETATM   23  C   UNL     1     -44.250  58.933 -52.867  1.00  0.00     0.073 C 
ENDBRANCH  15  16
ENDBRANCH  12  15
ENDBRANCH   1  11
BRANCH   2  24
HETATM   24  O   UNL     1     -40.310  54.801 -50.083  1.00  0.00    -0.289 OA
BRANCH  24  25
HETATM   25  C   UNL     1     -41.117  54.258 -49.039  1.00  0.00     0.505 C 
HETATM   26  F   UNL     1     -41.002  55.056 -47.949  1.00  0.00    -0.184 F 
HETATM   27  F   UNL     1     -42.407  54.345 -49.452  1.00  0.00    -0.184 F 
ENDBRANCH  24  25
ENDBRANCH   2  24
TORSDOF 5
ENDMDL
MODEL 3
REMARK VINA RESULT:      -8.1      2.145      3.148
REMARK  5 active torsions:
REMARK  status: ('A' for Active; 'I' for Inactive)
REMARK    1  A    between atoms: C_8  and  C_9 
REMARK    2  A    between atoms: C_9  and  N_10 
REMARK       I    between atoms: N_10  and  C_11 
REMARK    3  A    between atoms: C_11  and  C_12 
REMARK    4  A    between atoms: C_13  and  O_14 
REMARK    5  A    between atoms: O_14  and  C_15 
ROOT
HETATM    1  C   UNL     1     -40.984  54.253 -52.342  1.00  0.00     0.066 A 
HETATM    2  C   UNL     1     -40.927  54.106 -53.734  1.00  0.00     0.091 A 
HETATM    3  C   UNL     1     -40.541  52.889 -54.305  1.00  0.00     0.050 A 
HETATM    4  C   UNL     1     -40.157  51.811 -53.494  1.00  0.00    -0.023 A 
HETATM    5  C   UNL     1     -40.176  51.960 -52.088  1.00  0.00    -0.025 A 
HETATM    6  C   UNL     1     -40.589  53.182 -51.528  1.00  0.00     0.032 A 
HETATM    7  C   UNL     1     -39.748  50.589 -54.051  1.00  0.00     0.012 A 
HETATM    8  C   UNL     1     -39.362  49.526 -53.232  1.00  0.00     0.001 A 
HETATM    9  C   UNL     1     -39.381  49.673 -51.848  1.00  0.00     0.001 A 
HETATM   10  C   UNL     1     -39.786  50.881 -51.279  1.00  0.00     0.012 A 
ENDROOT
BRANCH   1  11
HETATM   11  C   UNL     1     -41.402  55.515 -51.668  1.00  0.00     0.254 C 
HETATM   12  N   UNL     1     -42.582  56.074 -52.096  1.00  0.00    -0.352 N 
HETATM   13  H   UNL     1     -43.166  55.555 -52.742  1.00  0.00     0.163 HD
HETATM   14  O   UNL     1     -40.698  55.995 -50.788  1.00  0.00    -0.268 OA
BRANCH  12  15
HETATM   15  C   UNL     1     -43.141  57.265 -51.502  1.00  0.00     0.165 C 
BRANCH  15  16
HETATM   16  C   UNL     1     -42.776  58.433 -52.346  1.00  0.00     0.009 A 
HETATM   17  C   UNL     1     -43.294  58.790 -53.578  1.00  0.00     0.034 A 
HETATM   18  C   UNL     1     -44.325  58.157 -54.433  1.00  0.00     0.070 C 
HETATM   19  N   UNL     1     -42.644  59.933 -53.944  1.00  0.00    -0.282 N 
HETATM   20  H   UNL     1     -42.766  60.480 -54.790  1.00  0.00     0.189 HD
HETATM   21  N   UNL     1     -41.744  60.353 -53.044  1.00  0.00    -0.179 NA
HETATM   22  C   UNL     1     -41.813  59.444 -52.066  1.00  0.00     0.060 A 
HETATM   23  C   UNL     1     -40.938  59.569 -50.873  1.00  0.00     0.073 C 
ENDBRANCH  15  16
ENDBRANCH  12  15
ENDBRANCH   1  11
BRANCH   2  24
HETATM   24  O   UNL     1     -41.288  55.118 -54.584  1.00  0.00    -0.289 OA
BRANCH  24  25
HETATM   25  C   UNL     1     -42.278  54.654 -55.501  1.00  0.00     0.505 C 
HETATM   26  F   UNL     1     -43.495  54.778 -54.917  1.00  0.00    -0.184 F 
HETATM   27  F   UNL     1     -42.264  55.504 -56.559  1.00  0.00    -0.184 F 
ENDBRANCH  24  25
ENDBRANCH   2  24
TORSDOF 5
ENDMDL
MODEL 4
REMARK VINA RESULT:      -8.1      3.692      4.965
REMARK  5 active torsions:
REMARK  status: ('A' for Active; 'I' for Inactive)
REMARK    1  A    between atoms: C_8  and  C_9 
REMARK    2  A    between atoms: C_9  and  N_10 
REMARK       I    between atoms: N_10  and  C_11 
REMARK    3  A    between atoms: C_11  and  C_12 
REMARK    4  A    between atoms: C_13  and  O_14 
REMARK    5  A    between atoms: O_14  and  C_15 
ROOT
HETATM    1  C   UNL     1     -41.628  55.494 -54.121  1.00  0.00     0.066 A 
HETATM    2  C   UNL     1     -41.586  55.633 -52.728  1.00  0.00     0.091 A 
HETATM    3  C   UNL     1     -41.027  54.629 -51.930  1.00  0.00     0.050 A 
HETATM    4  C   UNL     1     -40.545  53.445 -52.508  1.00  0.00    -0.023 A 
HETATM    5  C   UNL     1     -40.615  53.280 -53.910  1.00  0.00    -0.025 A 
HETATM    6  C   UNL     1     -41.158  54.307 -54.701  1.00  0.00     0.032 A 
HETATM    7  C   UNL     1     -39.998  52.420 -51.720  1.00  0.00     0.012 A 
HETATM    8  C   UNL     1     -39.527  51.244 -52.307  1.00  0.00     0.001 A 
HETATM    9  C   UNL     1     -39.596  51.081 -53.688  1.00  0.00     0.001 A 
HETATM   10  C   UNL     1     -40.136  52.092 -54.484  1.00  0.00     0.012 A 
ENDROOT
BRANCH   1  11
HETATM   11  C   UNL     1     -42.193  56.530 -55.031  1.00  0.00     0.254 C 
HETATM   12  N   UNL     1     -43.090  56.089 -55.975  1.00  0.00    -0.352 N 
HETATM   13  H   UNL     1     -43.417  55.131 -55.933  1.00  0.00     0.163 HD
HETATM   14  O   UNL     1     -41.846  57.699 -54.912  1.00  0.00    -0.268 OA
BRANCH  12  15
HETATM   15  C   UNL     1     -43.760  56.983 -56.891  1.00  0.00     0.165 C 
BRANCH  15  16
HETATM   16  C   UNL     1     -43.017  56.988 -58.178  1.00  0.00     0.009 A 
HETATM   17  C   UNL     1     -42.115  57.931 -58.639  1.00  0.00     0.034 A 
HETATM   18  C   UNL     1     -41.620  59.194 -58.042  1.00  0.00     0.070 C 
HETATM   19  N   UNL     1     -41.704  57.492 -59.864  1.00  0.00    -0.282 N 
HETATM   20  H   UNL     1     -41.043  57.931 -60.497  1.00  0.00     0.189 HD
HETATM   21  N   UNL     1     -42.264  56.334 -60.238  1.00  0.00    -0.179 NA
HETATM   22  C   UNL     1     -43.070  56.017 -59.219  1.00  0.00     0.060 A 
HETATM   23  C   UNL     1     -43.882  54.776 -59.272  1.00  0.00     0.073 C 
ENDBRANCH  15  16
ENDBRANCH  12  15
ENDBRANCH   1  11
BRANCH   2  24
HETATM   24  O   UNL     1     -42.041  56.762 -52.100  1.00  0.00    -0.289 OA
BRANCH  24  25
HETATM   25  C   UNL     1     -40.966  57.405 -51.417  1.00  0.00     0.505 C 
HETATM   26  F   UNL     1     -40.541  58.448 -52.170  1.00  0.00    -0.184 F 
HETATM   27  F   UNL     1     -41.481  57.930 -50.276  1.00  0.00    -0.184 F 
ENDBRANCH  24  25
ENDBRANCH   2  24
TORSDOF 5
ENDMDL
MODEL 5
REMARK VINA RESULT:      -8.0      1.485      2.035
REMARK  5 active torsions:
REMARK  status: ('A' for Active; 'I' for Inactive)
REMARK    1  A    between atoms: C_8  and  C_9 
REMARK    2  A    between atoms: C_9  and  N_10 
REMARK       I    between atoms: N_10  and  C_11 
REMARK    3  A    between atoms: C_11  and  C_12 
REMARK    4  A    between atoms: C_13  and  O_14 
REMARK    5  A    between atoms: O_14  and  C_15 
ROOT
HETATM    1  C   UNL     1     -41.319  54.368 -53.621  1.00  0.00     0.066 A 
HETATM    2  C   UNL     1     -40.958  54.434 -52.269  1.00  0.00     0.091 A 
HETATM    3  C   UNL     1     -40.336  53.348 -51.645  1.00  0.00     0.050 A 
HETATM    4  C   UNL     1     -40.108  52.156 -52.349  1.00  0.00    -0.023 A 
HETATM    5  C   UNL     1     -40.501  52.066 -53.704  1.00  0.00    -0.025 A 
HETATM    6  C   UNL     1     -41.104  53.174 -54.324  1.00  0.00     0.032 A 
HETATM    7  C   UNL     1     -39.503  51.050 -51.732  1.00  0.00     0.012 A 
HETATM    8  C   UNL     1     -39.287  49.868 -52.443  1.00  0.00     0.001 A 
HETATM    9  C   UNL     1     -39.673  49.779 -53.777  1.00  0.00     0.001 A 
HETATM   10  C   UNL     1     -40.276  50.870 -54.404  1.00  0.00     0.012 A 
ENDROOT
BRANCH   1  11
HETATM   11  C   UNL     1     -41.969  55.492 -54.352  1.00  0.00     0.254 C 
HETATM   12  N   UNL     1     -43.033  56.094 -53.724  1.00  0.00    -0.352 N 
HETATM   13  H   UNL     1     -43.245  55.843 -52.765  1.00  0.00     0.163 HD
HETATM   14  O   UNL     1     -41.548  55.825 -55.453  1.00  0.00    -0.268 OA
BRANCH  12  15
HETATM   15  C   UNL     1     -43.728  57.229 -54.284  1.00  0.00     0.165 C 
BRANCH  15  16
HETATM   16  C   UNL     1     -42.903  58.446 -54.067  1.00  0.00     0.009 A 
HETATM   17  C   UNL     1     -42.307  59.254 -55.021  1.00  0.00     0.034 A 
HETATM   18  C   UNL     1     -42.283  59.176 -56.500  1.00  0.00     0.070 C 
HETATM   19  N   UNL     1     -41.664  60.241 -54.331  1.00  0.00    -0.282 N 
HETATM   20  H   UNL     1     -41.120  61.012 -54.702  1.00  0.00     0.189 HD
HETATM   21  N   UNL     1     -41.796  60.142 -53.001  1.00  0.00    -0.179 NA
HETATM   22  C   UNL     1     -42.547  59.049 -52.827  1.00  0.00     0.060 A 
HETATM   23  C   UNL     1     -42.907  58.604 -51.457  1.00  0.00     0.073 C 
ENDBRANCH  15  16
ENDBRANCH  12  15
ENDBRANCH   1  11
BRANCH   2  24
HETATM   24  O   UNL     1     -41.154  55.567 -51.523  1.00  0.00    -0.289 OA
BRANCH  24  25
HETATM   25  C   UNL     1     -41.612  55.217 -50.218  1.00  0.00     0.505 C 
HETATM   26  F   UNL     1     -41.372  56.258 -49.384  1.00  0.00    -0.184 F 
HETATM   27  F   UNL     1     -42.960  55.082 -50.297  1.00  0.00    -0.184 F 
ENDBRANCH  24  25
ENDBRANCH   2  24
TORSDOF 5
ENDMDL
MODEL 6
REMARK VINA RESULT:      -7.7      3.646      4.689
REMARK  5 active torsions:
REMARK  status: ('A' for Active; 'I' for Inactive)
REMARK    1  A    between atoms: C_8  and  C_9 
REMARK    2  A    between atoms: C_9  and  N_10 
REMARK       I    between atoms: N_10  and  C_11 
REMARK    3  A    between atoms: C_11  and  C_12 
REMARK    4  A    between atoms: C_13  and  O_14 
REMARK    5  A    between atoms: O_14  and  C_15 
ROOT
HETATM    1  C   UNL     1     -42.303  54.927 -54.008  1.00  0.00     0.066 A 
HETATM    2  C   UNL     1     -41.770  55.239 -52.750  1.00  0.00     0.091 A 
HETATM    3  C   UNL     1     -40.887  54.359 -52.115  1.00  0.00     0.050 A 
HETATM    4  C   UNL     1     -40.560  53.128 -52.704  1.00  0.00    -0.023 A 
HETATM    5  C   UNL     1     -41.122  52.788 -53.956  1.00  0.00    -0.025 A 
HETATM    6  C   UNL     1     -41.989  53.693 -54.593  1.00  0.00     0.032 A 
HETATM    7  C   UNL     1     -39.691  52.226 -52.071  1.00  0.00     0.012 A 
HETATM    8  C   UNL     1     -39.379  51.002 -52.665  1.00  0.00     0.001 A 
HETATM    9  C   UNL     1     -39.931  50.667 -53.898  1.00  0.00     0.001 A 
HETATM   10  C   UNL     1     -40.796  51.554 -54.540  1.00  0.00     0.012 A 
ENDROOT
BRANCH   1  11
HETATM   11  C   UNL     1     -43.236  55.824 -54.747  1.00  0.00     0.254 C 
HETATM   12  N   UNL     1     -42.784  56.319 -55.947  1.00  0.00    -0.352 N 
HETATM   13  H   UNL     1     -41.915  55.963 -56.330  1.00  0.00     0.163 HD
HETATM   14  O   UNL     1     -44.334  56.085 -54.272  1.00  0.00    -0.268 OA
BRANCH  12  15
HETATM   15  C   UNL     1     -43.594  57.156 -56.800  1.00  0.00     0.165 C 
BRANCH  15  16
HETATM   16  C   UNL     1     -42.985  57.182 -58.156  1.00  0.00     0.009 A 
HETATM   17  C   UNL     1     -43.110  56.243 -59.166  1.00  0.00     0.034 A 
HETATM   18  C   UNL     1     -43.842  54.957 -59.228  1.00  0.00     0.070 C 
HETATM   19  N   UNL     1     -42.372  56.715 -60.213  1.00  0.00    -0.282 N 
HETATM   20  H   UNL     1     -42.232  56.289 -61.122  1.00  0.00     0.189 HD
HETATM   21  N   UNL     1     -41.779  57.891 -59.967  1.00  0.00    -0.179 NA
HETATM   22  C   UNL     1     -42.143  58.185 -58.715  1.00  0.00     0.060 A 
HETATM   23  C   UNL     1     -41.664  59.437 -58.076  1.00  0.00     0.073 C 
ENDBRANCH  15  16
ENDBRANCH  12  15
ENDBRANCH   1  11
BRANCH   2  24
HETATM   24  O   UNL     1     -42.049  56.423 -52.120  1.00  0.00    -0.289 OA
BRANCH  24  25
HETATM   25  C   UNL     1     -42.405  56.177 -50.760  1.00  0.00     0.505 C 
HETATM   26  F   UNL     1     -41.561  56.876 -49.962  1.00  0.00    -0.184 F 
HETATM   27  F   UNL     1     -43.643  56.702 -50.576  1.00  0.00    -0.184 F 
ENDBRANCH  24  25
ENDBRANCH   2  24
TORSDOF 5
ENDMDL
MODEL 7
REMARK VINA RESULT:      -7.6      2.841      3.279
REMARK  5 active torsions:
REMARK  status: ('A' for Active; 'I' for Inactive)
REMARK    1  A    between atoms: C_8  and  C_9 
REMARK    2  A    between atoms: C_9  and  N_10 
REMARK       I    between atoms: N_10  and  C_11 
REMARK    3  A    between atoms: C_11  and  C_12 
REMARK    4  A    between atoms: C_13  and  O_14 
REMARK    5  A    between atoms: O_14  and  C_15 
ROOT
HETATM    1  C   UNL     1     -42.134  54.751 -53.856  1.00  0.00     0.066 A 
HETATM    2  C   UNL     1     -41.612  55.033 -52.587  1.00  0.00     0.091 A 
HETATM    3  C   UNL     1     -40.752  54.128 -51.956  1.00  0.00     0.050 A 
HETATM    4  C   UNL     1     -40.438  52.901 -52.560  1.00  0.00    -0.023 A 
HETATM    5  C   UNL     1     -40.989  52.592 -53.825  1.00  0.00    -0.025 A 
HETATM    6  C   UNL     1     -41.833  53.521 -54.458  1.00  0.00     0.032 A 
HETATM    7  C   UNL     1     -39.593  51.974 -51.931  1.00  0.00     0.012 A 
HETATM    8  C   UNL     1     -39.294  50.755 -52.541  1.00  0.00     0.001 A 
HETATM    9  C   UNL     1     -39.835  50.449 -53.787  1.00  0.00     0.001 A 
HETATM   10  C   UNL     1     -40.677  51.362 -54.425  1.00  0.00     0.012 A 
ENDROOT
BRANCH   1  11
HETATM   11  C   UNL     1     -43.041  55.676 -54.593  1.00  0.00     0.254 C 
HETATM   12  N   UNL     1     -42.493  56.348 -55.659  1.00  0.00    -0.352 N 
HETATM   13  H   UNL     1     -41.561  56.100 -55.970  1.00  0.00     0.163 HD
HETATM   14  O   UNL     1     -44.204  55.803 -54.231  1.00  0.00    -0.268 OA
BRANCH  12  15
HETATM   15  C   UNL     1     -43.262  57.237 -56.499  1.00  0.00     0.165 C 
BRANCH  15  16
HETATM   16  C   UNL     1     -42.658  58.593 -56.433  1.00  0.00     0.009 A 
HETATM   17  C   UNL     1     -42.547  59.425 -55.332  1.00  0.00     0.034 A 
HETATM   18  C   UNL     1     -42.981  59.259 -53.925  1.00  0.00     0.070 C 
HETATM   19  N   UNL     1     -41.919  60.554 -55.774  1.00  0.00    -0.282 N 
HETATM   20  H   UNL     1     -41.671  61.381 -55.242  1.00  0.00     0.189 HD
HETATM   21  N   UNL     1     -41.608  60.522 -57.077  1.00  0.00    -0.179 NA
HETATM   22  C   UNL     1     -42.055  59.332 -57.491  1.00  0.00     0.060 A 
HETATM   23  C   UNL     1     -41.895  58.931 -58.911  1.00  0.00     0.073 C 
ENDBRANCH  15  16
ENDBRANCH  12  15
ENDBRANCH   1  11
BRANCH   2  24
HETATM   24  O   UNL     1     -41.879  56.211 -51.941  1.00  0.00    -0.289 OA
BRANCH  24  25
HETATM   25  C   UNL     1     -42.304  55.946 -50.605  1.00  0.00     0.505 C 
HETATM   26  F   UNL     1     -41.507  56.639 -49.755  1.00  0.00    -0.184 F 
HETATM   27  F   UNL     1     -43.553  56.464 -50.479  1.00  0.00    -0.184 F 
ENDBRANCH  24  25
ENDBRANCH   2  24
TORSDOF 5
ENDMDL
MODEL 8
REMARK VINA RESULT:      -7.5      3.781      5.033
REMARK  5 active torsions:
REMARK  status: ('A' for Active; 'I' for Inactive)
REMARK    1  A    between atoms: C_8  and  C_9 
REMARK    2  A    between atoms: C_9  and  N_10 
REMARK       I    between atoms: N_10  and  C_11 
REMARK    3  A    between atoms: C_11  and  C_12 
REMARK    4  A    between atoms: C_13  and  O_14 
REMARK    5  A    between atoms: O_14  and  C_15 
ROOT
HETATM    1  C   UNL     1     -41.933  55.150 -55.182  1.00  0.00     0.066 A 
HETATM    2  C   UNL     1     -42.107  55.827 -53.967  1.00  0.00     0.091 A 
HETATM    3  C   UNL     1     -41.565  55.313 -52.784  1.00  0.00     0.050 A 
HETATM    4  C   UNL     1     -40.882  54.088 -52.786  1.00  0.00    -0.023 A 
HETATM    5  C   UNL     1     -40.733  53.379 -54.001  1.00  0.00    -0.025 A 
HETATM    6  C   UNL     1     -41.262  53.919 -55.185  1.00  0.00     0.032 A 
HETATM    7  C   UNL     1     -40.349  53.550 -51.604  1.00  0.00     0.012 A 
HETATM    8  C   UNL     1     -39.677  52.326 -51.619  1.00  0.00     0.001 A 
HETATM    9  C   UNL     1     -39.529  51.628 -52.814  1.00  0.00     0.001 A 
HETATM   10  C   UNL     1     -40.053  52.151 -53.997  1.00  0.00     0.012 A 
ENDROOT
BRANCH   1  11
HETATM   11  C   UNL     1     -42.469  55.648 -56.481  1.00  0.00     0.254 C 
HETATM   12  N   UNL     1     -42.259  56.977 -56.759  1.00  0.00    -0.352 N 
HETATM   13  H   UNL     1     -41.656  57.517 -56.150  1.00  0.00     0.163 HD
HETATM   14  O   UNL     1     -43.064  54.879 -57.227  1.00  0.00    -0.268 OA
BRANCH  12  15
HETATM   15  C   UNL     1     -42.673  57.588 -58.000  1.00  0.00     0.165 C 
BRANCH  15  16
HETATM   16  C   UNL     1     -44.152  57.729 -57.989  1.00  0.00     0.009 A 
HETATM   17  C   UNL     1     -45.074  57.119 -58.823  1.00  0.00     0.034 A 
HETATM   18  C   UNL     1     -44.905  56.178 -59.955  1.00  0.00     0.070 C 
HETATM   19  N   UNL     1     -46.300  57.561 -58.417  1.00  0.00    -0.282 N 
HETATM   20  H   UNL     1     -47.209  57.324 -58.799  1.00  0.00     0.189 HD
HETATM   21  N   UNL     1     -46.251  58.410 -57.381  1.00  0.00    -0.179 NA
HETATM   22  C   UNL     1     -44.946  58.523 -57.113  1.00  0.00     0.060 A 
HETATM   23  C   UNL     1     -44.488  59.404 -56.009  1.00  0.00     0.073 C 
ENDBRANCH  15  16
ENDBRANCH  12  15
ENDBRANCH   1  11
BRANCH   2  24
HETATM   24  O   UNL     1     -42.764  57.027 -53.896  1.00  0.00    -0.289 OA
BRANCH  24  25
HETATM   25  C   UNL     1     -44.066  56.836 -53.343  1.00  0.00     0.505 C 
HETATM   26  F   UNL     1     -44.514  58.027 -52.877  1.00  0.00    -0.184 F 
HETATM   27  F   UNL     1     -44.882  56.486 -54.370  1.00  0.00    -0.184 F 
ENDBRANCH  24  25
ENDBRANCH   2  24
TORSDOF 5
ENDMDL
MODEL 9
REMARK VINA RESULT:      -7.4      3.275      4.231
REMARK  5 active torsions:
REMARK  status: ('A' for Active; 'I' for Inactive)
REMARK    1  A    between atoms: C_8  and  C_9 
REMARK    2  A    between atoms: C_9  and  N_10 
REMARK       I    between atoms: N_10  and  C_11 
REMARK    3  A    between atoms: C_11  and  C_12 
REMARK    4  A    between atoms: C_13  and  O_14 
REMARK    5  A    between atoms: O_14  and  C_15 
ROOT
HETATM    1  C   UNL     1     -41.756  55.029 -54.723  1.00  0.00     0.066 A 
HETATM    2  C   UNL     1     -41.742  55.491 -53.401  1.00  0.00     0.091 A 
HETATM    3  C   UNL     1     -41.168  54.721 -52.384  1.00  0.00     0.050 A 
HETATM    4  C   UNL     1     -40.640  53.451 -52.664  1.00  0.00    -0.023 A 
HETATM    5  C   UNL     1     -40.681  52.960 -53.989  1.00  0.00    -0.025 A 
HETATM    6  C   UNL     1     -41.241  53.755 -55.004  1.00  0.00     0.032 A 
HETATM    7  C   UNL     1     -40.077  52.658 -51.652  1.00  0.00     0.012 A 
HETATM    8  C   UNL     1     -39.561  51.394 -51.942  1.00  0.00     0.001 A 
HETATM    9  C   UNL     1     -39.601  50.909 -53.247  1.00  0.00     0.001 A 
HETATM   10  C   UNL     1     -40.157  51.687 -54.264  1.00  0.00     0.012 A 
ENDROOT
BRANCH   1  11
HETATM   11  C   UNL     1     -42.336  55.804 -55.856  1.00  0.00     0.254 C 
HETATM   12  N   UNL     1     -42.267  57.172 -55.759  1.00  0.00    -0.352 N 
HETATM   13  H   UNL     1     -41.727  57.585 -55.007  1.00  0.00     0.163 HD
HETATM   14  O   UNL     1     -42.843  55.211 -56.801  1.00  0.00    -0.268 OA
BRANCH  12  15
HETATM   15  C   UNL     1     -42.738  58.053 -56.801  1.00  0.00     0.165 C 
BRANCH  15  16
HETATM   16  C   UNL     1     -44.224  58.008 -56.824  1.00  0.00     0.009 A 
HETATM   17  C   UNL     1     -45.101  58.210 -55.772  1.00  0.00     0.034 A 
HETATM   18  C   UNL     1     -44.866  58.510 -54.340  1.00  0.00     0.070 C 
HETATM   19  N   UNL     1     -46.354  58.069 -56.293  1.00  0.00    -0.282 N 
HETATM   20  H   UNL     1     -47.244  58.148 -55.813  1.00  0.00     0.189 HD
HETATM   21  N   UNL     1     -46.365  57.794 -57.605  1.00  0.00    -0.179 NA
HETATM   22  C   UNL     1     -45.071  57.752 -57.940  1.00  0.00     0.060 A 
HETATM   23  C   UNL     1     -44.676  57.460 -59.341  1.00  0.00     0.073 C 
ENDBRANCH  15  16
ENDBRANCH  12  15
ENDBRANCH   1  11
BRANCH   2  24
HETATM   24  O   UNL     1     -42.241  56.721 -53.059  1.00  0.00    -0.289 OA
BRANCH  24  25
HETATM   25  C   UNL     1     -41.269  57.449 -52.310  1.00  0.00     0.505 C 
HETATM   26  F   UNL     1     -40.462  58.106 -53.179  1.00  0.00    -0.184 F 
HETATM   27  F   UNL     1     -41.942  58.396 -51.608  1.00  0.00    -0.184 F 
ENDBRANCH  24  25
ENDBRANCH   2  24
TORSDOF 5
ENDMDL
MODEL 10
REMARK VINA RESULT:      -7.4      2.614      3.953
REMARK  5 active torsions:
REMARK  status: ('A' for Active; 'I' for Inactive)
REMARK    1  A    between atoms: C_8  and  C_9 
REMARK    2  A    between atoms: C_9  and  N_10 
REMARK       I    between atoms: N_10  and  C_11 
REMARK    3  A    between atoms: C_11  and  C_12 
REMARK    4  A    between atoms: C_13  and  O_14 
REMARK    5  A    between atoms: O_14  and  C_15 
ROOT
HETATM    1  C   UNL     1     -41.498  55.767 -53.800  1.00  0.00     0.066 A 
HETATM    2  C   UNL     1     -41.295  55.119 -55.025  1.00  0.00     0.091 A 
HETATM    3  C   UNL     1     -40.794  53.813 -55.064  1.00  0.00     0.050 A 
HETATM    4  C   UNL     1     -40.441  53.149 -53.880  1.00  0.00    -0.023 A 
HETATM    5  C   UNL     1     -40.608  53.808 -52.640  1.00  0.00    -0.025 A 
HETATM    6  C   UNL     1     -41.134  55.111 -52.615  1.00  0.00     0.032 A 
HETATM    7  C   UNL     1     -39.919  51.847 -53.903  1.00  0.00     0.012 A 
HETATM    8  C   UNL     1     -39.565  51.200 -52.718  1.00  0.00     0.001 A 
HETATM    9  C   UNL     1     -39.730  51.848 -51.496  1.00  0.00     0.001 A 
HETATM   10  C   UNL     1     -40.248  53.143 -51.457  1.00  0.00     0.012 A 
ENDROOT
BRANCH   1  11
HETATM   11  C   UNL     1     -42.043  57.149 -53.684  1.00  0.00     0.254 C 
HETATM   12  N   UNL     1     -41.121  58.159 -53.542  1.00  0.00    -0.352 N 
HETATM   13  H   UNL     1     -40.136  57.943 -53.646  1.00  0.00     0.163 HD
HETATM   14  O   UNL     1     -43.254  57.330 -53.715  1.00  0.00    -0.268 OA
BRANCH  12  15
HETATM   15  C   UNL     1     -41.495  59.551 -53.471  1.00  0.00     0.165 C 
BRANCH  15  16
HETATM   16  C   UNL     1     -41.998  59.840 -52.102  1.00  0.00     0.009 A 
HETATM   17  C   UNL     1     -41.299  59.786 -50.908  1.00  0.00     0.034 A 
HETATM   18  C   UNL     1     -39.894  59.429 -50.606  1.00  0.00     0.070 C 
HETATM   19  N   UNL     1     -42.189  60.138 -49.935  1.00  0.00    -0.282 N 
HETATM   20  H   UNL     1     -42.029  60.207 -48.936  1.00  0.00     0.189 HD
HETATM   21  N   UNL     1     -43.414  60.421 -50.401  1.00  0.00    -0.179 NA
HETATM   22  C   UNL     1     -43.310  60.240 -51.722  1.00  0.00     0.060 A 
HETATM   23  C   UNL     1     -44.490  60.456 -52.596  1.00  0.00     0.073 C 
ENDBRANCH  15  16
ENDBRANCH  12  15
ENDBRANCH   1  11
BRANCH   2  24
HETATM   24  O   UNL     1     -41.619  55.710 -56.218  1.00  0.00    -0.289 OA
BRANCH  24  25
HETATM   25  C   UNL     1     -42.966  55.395 -56.567  1.00  0.00     0.505 C 
HETATM   26  F   UNL     1     -43.051  55.310 -57.917  1.00  0.00    -0.184 F 
HETATM   27  F   UNL     1     -43.219  54.153 -56.080  1.00  0.00    -0.184 F 
ENDBRANCH  24  25
ENDBRANCH   2  24
TORSDOF 5
ENDMDL
