MODEL 1
REMARK VINA RESULT:      -8.9      0.000      0.000
REMARK  4 active torsions:
REMARK  status: ('A' for Active; 'I' for Inactive)
REMARK    1  A    between atoms: C_2  and  N_3 
REMARK    2  A    between atoms: N_7  and  C_9 
REMARK    3  A    between atoms: C_9  and  C_10 
REMARK    4  A    between atoms: C_13  and  C_14 
ROOT
HETATM    1  N   UNL     1     -42.347  58.616 -58.083  1.00  0.00    -0.398 N 
HETATM    2  C   UNL     1     -43.461  57.682 -57.639  1.00  0.00     0.075 C 
HETATM    3  C   UNL     1     -44.642  58.301 -56.842  1.00  0.00     0.065 C 
HETATM    4  C   UNL     1     -44.351  58.781 -55.431  1.00  0.00     0.238 C 
HETATM    5  N   UNL     1     -43.495  57.825 -54.633  1.00  0.00    -0.065 N 
HETATM    6  H   UNL     1     -43.032  58.429 -53.938  1.00  0.00     0.280 HD
HETATM    7  C   UNL     1     -42.347  57.213 -55.396  1.00  0.00     0.238 C 
HETATM    8  C   UNL     1     -42.808  56.621 -56.722  1.00  0.00     0.065 C 
HETATM    9  C   UNL     1     -44.095  56.988 -58.844  1.00  0.00     0.061 A 
HETATM   10  C   UNL     1     -43.878  57.346 -60.157  1.00  0.00     0.037 A 
HETATM   11  N   UNL     1     -44.618  56.488 -60.936  1.00  0.00    -0.354 N 
HETATM   12  H   UNL     1     -44.657  56.497 -61.956  1.00  0.00     0.166 HD
HETATM   13  C   UNL     1     -45.261  55.601 -60.172  1.00  0.00     0.181 A 
HETATM   14  N   UNL     1     -44.953  55.896 -58.898  1.00  0.00    -0.352 N 
HETATM   15  H   UNL     1     -45.305  55.352 -58.115  1.00  0.00     0.166 HD
HETATM   16  C   UNL     1     -42.931  58.386 -60.567  1.00  0.00     0.078 C 
HETATM   17  C   UNL     1     -41.840  58.395 -59.475  1.00  0.00     0.124 C 
ENDROOT
BRANCH   5  18
HETATM   18  C   UNL     1     -44.270  56.852 -53.732  1.00  0.00     0.301 C 
BRANCH  18  19
HETATM   19  C   UNL     1     -43.354  55.880 -53.096  1.00  0.00     0.107 C 
HETATM   20  O   UNL     1     -42.357  56.415 -52.350  1.00  0.00    -0.216 OA
HETATM   21  N   UNL     1     -41.381  55.470 -52.153  1.00  0.00    -0.128 NA
HETATM   22  C   UNL     1     -41.805  54.341 -52.743  1.00  0.00     0.097 C 
HETATM   23  C   UNL     1     -43.117  54.535 -53.266  1.00  0.00     0.071 C 
BRANCH  22  24
HETATM   24  C   UNL     1     -40.930  53.184 -52.941  1.00  0.00    -0.005 A 
HETATM   25  C   UNL     1     -40.949  52.490 -54.162  1.00  0.00     0.014 A 
HETATM   26  C   UNL     1     -40.219  51.311 -54.325  1.00  0.00     0.001 A 
HETATM   27  C   UNL     1     -39.456  50.814 -53.272  1.00  0.00     0.000 A 
HETATM   28  C   UNL     1     -39.410  51.503 -52.061  1.00  0.00     0.001 A 
HETATM   29  C   UNL     1     -40.142  52.682 -51.895  1.00  0.00     0.014 A 
ENDBRANCH  22  24
ENDBRANCH  18  19
ENDBRANCH   5  18
BRANCH   1  30
HETATM   30  C   UNL     1     -42.448  60.043 -57.746  1.00  0.00     0.113 C 
HETATM   31  C   UNL     1     -41.229  60.909 -58.084  1.00  0.00     0.026 C 
ENDBRANCH   1  30
TORSDOF 4
ENDMDL
MODEL 2
REMARK VINA RESULT:      -8.5      4.124      6.617
REMARK  4 active torsions:
REMARK  status: ('A' for Active; 'I' for Inactive)
REMARK    1  A    between atoms: C_2  and  N_3 
REMARK    2  A    between atoms: N_7  and  C_9 
REMARK    3  A    between atoms: C_9  and  C_10 
REMARK    4  A    between atoms: C_13  and  C_14 
ROOT
HETATM    1  N   UNL     1     -45.470  60.286 -52.462  1.00  0.00    -0.398 N 
HETATM    2  C   UNL     1     -44.771  59.837 -51.189  1.00  0.00     0.075 C 
HETATM    3  C   UNL     1     -43.226  59.985 -51.129  1.00  0.00     0.065 C 
HETATM    4  C   UNL     1     -42.406  59.066 -52.018  1.00  0.00     0.238 C 
HETATM    5  N   UNL     1     -42.894  57.637 -52.023  1.00  0.00    -0.065 N 
HETATM    6  H   UNL     1     -42.578  57.270 -52.932  1.00  0.00     0.280 HD
HETATM    7  C   UNL     1     -44.393  57.479 -52.076  1.00  0.00     0.238 C 
HETATM    8  C   UNL     1     -45.085  58.332 -51.020  1.00  0.00     0.065 C 
HETATM    9  C   UNL     1     -45.306  60.605 -49.981  1.00  0.00     0.061 A 
HETATM   10  C   UNL     1     -46.110  61.722 -50.057  1.00  0.00     0.037 A 
HETATM   11  N   UNL     1     -46.378  62.114 -48.767  1.00  0.00    -0.354 N 
HETATM   12  H   UNL     1     -46.956  62.910 -48.496  1.00  0.00     0.166 HD
HETATM   13  C   UNL     1     -45.801  61.280 -47.897  1.00  0.00     0.181 A 
HETATM   14  N   UNL     1     -45.146  60.359 -48.623  1.00  0.00    -0.352 N 
HETATM   15  H   UNL     1     -44.633  59.593 -48.194  1.00  0.00     0.166 HD
HETATM   16  C   UNL     1     -46.631  62.261 -51.316  1.00  0.00     0.078 C 
HETATM   17  C   UNL     1     -46.746  61.046 -52.261  1.00  0.00     0.124 C 
ENDROOT
BRANCH   5  18
HETATM   18  C   UNL     1     -42.176  56.699 -51.042  1.00  0.00     0.301 C 
BRANCH  18  19
HETATM   19  C   UNL     1     -41.359  55.701 -51.768  1.00  0.00     0.107 C 
HETATM   20  O   UNL     1     -41.327  55.840 -53.115  1.00  0.00    -0.216 OA
HETATM   21  N   UNL     1     -40.887  54.668 -53.681  1.00  0.00    -0.128 NA
HETATM   22  C   UNL     1     -40.607  53.828 -52.672  1.00  0.00     0.097 C 
HETATM   23  C   UNL     1     -40.795  54.494 -51.425  1.00  0.00     0.071 C 
BRANCH  22  24
HETATM   24  C   UNL     1     -40.332  52.407 -52.889  1.00  0.00    -0.005 A 
HETATM   25  C   UNL     1     -39.854  51.614 -51.833  1.00  0.00     0.014 A 
HETATM   26  C   UNL     1     -39.464  50.291 -52.052  1.00  0.00     0.001 A 
HETATM   27  C   UNL     1     -39.554  49.742 -53.327  1.00  0.00     0.000 A 
HETATM   28  C   UNL     1     -40.048  50.508 -54.382  1.00  0.00     0.001 A 
HETATM   29  C   UNL     1     -40.435  51.834 -54.165  1.00  0.00     0.014 A 
ENDBRANCH  22  24
ENDBRANCH  18  19
ENDBRANCH   5  18
BRANCH   1  30
HETATM   30  C   UNL     1     -44.658  60.838 -53.556  1.00  0.00     0.113 C 
HETATM   31  C   UNL     1     -45.009  60.362 -54.970  1.00  0.00     0.026 C 
ENDBRANCH   1  30
TORSDOF 4
ENDMDL
MODEL 3
REMARK VINA RESULT:      -8.4      2.721      5.343
REMARK  4 active torsions:
REMARK  status: ('A' for Active; 'I' for Inactive)
REMARK    1  A    between atoms: C_2  and  N_3 
REMARK    2  A    between atoms: N_7  and  C_9 
REMARK    3  A    between atoms: C_9  and  C_10 
REMARK    4  A    between atoms: C_13  and  C_14 
ROOT
HETATM    1  N   UNL     1     -43.925  59.010 -53.222  1.00  0.00    -0.398 N 
HETATM    2  C   UNL     1     -42.987  57.817 -53.320  1.00  0.00     0.075 C 
HETATM    3  C   UNL     1     -41.960  57.806 -54.485  1.00  0.00     0.065 C 
HETATM    4  C   UNL     1     -42.505  57.615 -55.889  1.00  0.00     0.238 C 
HETATM    5  N   UNL     1     -43.565  56.544 -55.985  1.00  0.00    -0.065 N 
HETATM    6  H   UNL     1     -44.122  56.819 -56.806  1.00  0.00     0.280 HD
HETATM    7  C   UNL     1     -44.567  56.541 -54.858  1.00  0.00     0.238 C 
HETATM    8  C   UNL     1     -43.881  56.567 -53.498  1.00  0.00     0.065 C 
HETATM    9  C   UNL     1     -42.164  57.673 -52.041  1.00  0.00     0.061 A 
HETATM   10  C   UNL     1     -42.083  58.627 -51.050  1.00  0.00     0.037 A 
HETATM   11  N   UNL     1     -41.254  58.126 -50.075  1.00  0.00    -0.354 N 
HETATM   12  H   UNL     1     -41.005  58.600 -49.206  1.00  0.00     0.166 HD
HETATM   13  C   UNL     1     -40.839  56.898 -50.401  1.00  0.00     0.181 A 
HETATM   14  N   UNL     1     -41.384  56.612 -51.594  1.00  0.00    -0.352 N 
HETATM   15  H   UNL     1     -41.236  55.721 -52.059  1.00  0.00     0.166 HD
HETATM   16  C   UNL     1     -42.858  59.871 -51.058  1.00  0.00     0.078 C 
HETATM   17  C   UNL     1     -44.148  59.541 -51.839  1.00  0.00     0.124 C 
ENDROOT
BRANCH   5  18
HETATM   18  C   UNL     1     -43.056  55.158 -56.406  1.00  0.00     0.301 C 
BRANCH  18  19
HETATM   19  C   UNL     1     -42.067  54.640 -55.435  1.00  0.00     0.107 C 
HETATM   20  O   UNL     1     -40.775  54.963 -55.685  1.00  0.00    -0.216 OA
HETATM   21  N   UNL     1     -39.952  54.125 -54.973  1.00  0.00    -0.128 NA
HETATM   22  C   UNL     1     -40.746  53.317 -54.252  1.00  0.00     0.097 C 
HETATM   23  C   UNL     1     -42.110  53.690 -54.440  1.00  0.00     0.071 C 
BRANCH  22  24
HETATM   24  C   UNL     1     -40.234  52.141 -53.547  1.00  0.00    -0.005 A 
HETATM   25  C   UNL     1     -40.090  50.921 -54.229  1.00  0.00     0.014 A 
HETATM   26  C   UNL     1     -39.727  49.759 -53.545  1.00  0.00     0.001 A 
HETATM   27  C   UNL     1     -39.498  49.803 -52.173  1.00  0.00     0.000 A 
HETATM   28  C   UNL     1     -39.615  51.010 -51.486  1.00  0.00     0.001 A 
HETATM   29  C   UNL     1     -39.981  52.174 -52.168  1.00  0.00     0.014 A 
ENDBRANCH  22  24
ENDBRANCH  18  19
ENDBRANCH   5  18
BRANCH   1  30
HETATM   30  C   UNL     1     -43.806  60.084 -54.219  1.00  0.00     0.113 C 
HETATM   31  C   UNL     1     -45.014  60.294 -55.137  1.00  0.00     0.026 C 
ENDBRANCH   1  30
TORSDOF 4
ENDMDL
MODEL 4
REMARK VINA RESULT:      -8.3      2.277      7.610
REMARK  4 active torsions:
REMARK  status: ('A' for Active; 'I' for Inactive)
REMARK    1  A    between atoms: C_2  and  N_3 
REMARK    2  A    between atoms: N_7  and  C_9 
REMARK    3  A    between atoms: C_9  and  C_10 
REMARK    4  A    between atoms: C_13  and  C_14 
ROOT
HETATM    1  N   UNL     1     -41.106  53.573 -50.282  1.00  0.00    -0.398 N 
HETATM    2  C   UNL     1     -41.465  54.070 -51.673  1.00  0.00     0.075 C 
HETATM    3  C   UNL     1     -41.015  55.505 -52.061  1.00  0.00     0.065 C 
HETATM    4  C   UNL     1     -41.709  56.662 -51.364  1.00  0.00     0.238 C 
HETATM    5  N   UNL     1     -43.205  56.488 -51.252  1.00  0.00    -0.065 N 
HETATM    6  H   UNL     1     -43.460  57.055 -50.430  1.00  0.00     0.280 HD
HETATM    7  C   UNL     1     -43.656  55.098 -50.880  1.00  0.00     0.238 C 
HETATM    8  C   UNL     1     -43.009  54.043 -51.767  1.00  0.00     0.065 C 
HETATM    9  C   UNL     1     -40.876  53.150 -52.742  1.00  0.00     0.061 A 
HETATM   10  C   UNL     1     -39.940  52.168 -52.501  1.00  0.00     0.037 A 
HETATM   11  N   UNL     1     -39.669  51.564 -53.705  1.00  0.00    -0.354 N 
HETATM   12  H   UNL     1     -39.018  50.791 -53.849  1.00  0.00     0.166 HD
HETATM   13  C   UNL     1     -40.411  52.106 -54.675  1.00  0.00     0.181 A 
HETATM   14  N   UNL     1     -41.147  53.072 -54.103  1.00  0.00    -0.352 N 
HETATM   15  H   UNL     1     -41.815  53.630 -54.629  1.00  0.00     0.166 HD
HETATM   16  C   UNL     1     -39.457  51.821 -51.161  1.00  0.00     0.078 C 
HETATM   17  C   UNL     1     -40.625  52.156 -50.209  1.00  0.00     0.124 C 
ENDROOT
BRANCH   5  18
HETATM   18  C   UNL     1     -44.026  57.164 -52.360  1.00  0.00     0.301 C 
BRANCH  18  19
HETATM   19  C   UNL     1     -43.241  57.267 -53.610  1.00  0.00     0.107 C 
HETATM   20  O   UNL     1     -42.643  58.464 -53.828  1.00  0.00    -0.216 OA
HETATM   21  N   UNL     1     -42.296  58.561 -55.154  1.00  0.00    -0.128 NA
HETATM   22  C   UNL     1     -42.643  57.402 -55.735  1.00  0.00     0.097 C 
HETATM   23  C   UNL     1     -43.154  56.505 -54.752  1.00  0.00     0.071 C 
BRANCH  22  24
HETATM   24  C   UNL     1     -42.639  57.223 -57.188  1.00  0.00    -0.005 A 
HETATM   25  C   UNL     1     -43.079  56.011 -57.747  1.00  0.00     0.014 A 
HETATM   26  C   UNL     1     -42.962  55.774 -59.118  1.00  0.00     0.001 A 
HETATM   27  C   UNL     1     -42.411  56.745 -59.948  1.00  0.00     0.000 A 
HETATM   28  C   UNL     1     -41.990  57.961 -59.412  1.00  0.00     0.001 A 
HETATM   29  C   UNL     1     -42.103  58.200 -58.039  1.00  0.00     0.014 A 
ENDBRANCH  22  24
ENDBRANCH  18  19
ENDBRANCH   5  18
BRANCH   1  30
HETATM   30  C   UNL     1     -40.353  54.464 -49.387  1.00  0.00     0.113 C 
HETATM   31  C   UNL     1     -40.256  54.031 -47.921  1.00  0.00     0.026 C 
ENDBRANCH   1  30
TORSDOF 4
ENDMDL
MODEL 5
REMARK VINA RESULT:      -8.3      2.262      8.334
REMARK  4 active torsions:
REMARK  status: ('A' for Active; 'I' for Inactive)
REMARK    1  A    between atoms: C_2  and  N_3 
REMARK    2  A    between atoms: N_7  and  C_9 
REMARK    3  A    between atoms: C_9  and  C_10 
REMARK    4  A    between atoms: C_13  and  C_14 
ROOT
HETATM    1  N   UNL     1     -41.781  55.052 -52.002  1.00  0.00    -0.398 N 
HETATM    2  C   UNL     1     -41.431  54.332 -53.295  1.00  0.00     0.075 C 
HETATM    3  C   UNL     1     -40.652  55.132 -54.374  1.00  0.00     0.065 C 
HETATM    4  C   UNL     1     -41.398  56.248 -55.085  1.00  0.00     0.238 C 
HETATM    5  N   UNL     1     -42.805  55.873 -55.484  1.00  0.00    -0.065 N 
HETATM    6  H   UNL     1     -43.300  56.776 -55.525  1.00  0.00     0.280 HD
HETATM    7  C   UNL     1     -43.572  55.092 -54.448  1.00  0.00     0.238 C 
HETATM    8  C   UNL     1     -42.771  53.901 -53.937  1.00  0.00     0.065 C 
HETATM    9  C   UNL     1     -40.585  53.092 -53.009  1.00  0.00     0.061 A 
HETATM   10  C   UNL     1     -39.999  52.807 -51.795  1.00  0.00     0.037 A 
HETATM   11  N   UNL     1     -39.331  51.614 -51.939  1.00  0.00    -0.354 N 
HETATM   12  H   UNL     1     -38.804  51.136 -51.207  1.00  0.00     0.166 HD
HETATM   13  C   UNL     1     -39.497  51.134 -53.175  1.00  0.00     0.181 A 
HETATM   14  N   UNL     1     -40.256  52.024 -53.835  1.00  0.00    -0.352 N 
HETATM   15  H   UNL     1     -40.542  51.883 -54.800  1.00  0.00     0.166 HD
HETATM   16  C   UNL     1     -40.195  53.619 -50.591  1.00  0.00     0.078 C 
HETATM   17  C   UNL     1     -41.594  54.251 -50.750  1.00  0.00     0.124 C 
ENDROOT
BRANCH   5  18
HETATM   18  C   UNL     1     -42.961  55.369 -56.926  1.00  0.00     0.301 C 
BRANCH  18  19
HETATM   19  C   UNL     1     -42.962  56.498 -57.883  1.00  0.00     0.107 C 
HETATM   20  O   UNL     1     -42.586  56.193 -59.149  1.00  0.00    -0.216 OA
HETATM   21  N   UNL     1     -42.252  57.348 -59.813  1.00  0.00    -0.128 NA
HETATM   22  C   UNL     1     -42.468  58.365 -58.963  1.00  0.00     0.097 C 
HETATM   23  C   UNL     1     -43.027  57.866 -57.749  1.00  0.00     0.071 C 
BRANCH  22  24
HETATM   24  C   UNL     1     -42.008  59.727 -59.238  1.00  0.00    -0.005 A 
HETATM   25  C   UNL     1     -42.012  60.218 -60.553  1.00  0.00     0.014 A 
HETATM   26  C   UNL     1     -41.458  61.464 -60.852  1.00  0.00     0.001 A 
HETATM   27  C   UNL     1     -40.898  62.238 -59.839  1.00  0.00     0.000 A 
HETATM   28  C   UNL     1     -40.906  61.774 -58.525  1.00  0.00     0.001 A 
HETATM   29  C   UNL     1     -41.458  60.525 -58.224  1.00  0.00     0.014 A 
ENDBRANCH  22  24
ENDBRANCH  18  19
ENDBRANCH   5  18
BRANCH   1  30
HETATM   30  C   UNL     1     -41.361  56.451 -51.839  1.00  0.00     0.113 C 
HETATM   31  C   UNL     1     -42.481  57.477 -51.637  1.00  0.00     0.026 C 
ENDBRANCH   1  30
TORSDOF 4
ENDMDL
MODEL 6
REMARK VINA RESULT:      -8.2      2.443      8.557
REMARK  4 active torsions:
REMARK  status: ('A' for Active; 'I' for Inactive)
REMARK    1  A    between atoms: C_2  and  N_3 
REMARK    2  A    between atoms: N_7  and  C_9 
REMARK    3  A    between atoms: C_9  and  C_10 
REMARK    4  A    between atoms: C_13  and  C_14 
ROOT
HETATM    1  N   UNL     1     -41.881  55.083 -51.960  1.00  0.00    -0.398 N 
HETATM    2  C   UNL     1     -41.443  54.404 -53.248  1.00  0.00     0.075 C 
HETATM    3  C   UNL     1     -40.613  55.244 -54.257  1.00  0.00     0.065 C 
HETATM    4  C   UNL     1     -41.333  56.369 -54.981  1.00  0.00     0.238 C 
HETATM    5  N   UNL     1     -42.708  55.985 -55.475  1.00  0.00    -0.065 N 
HETATM    6  H   UNL     1     -43.213  56.882 -55.521  1.00  0.00     0.280 HD
HETATM    7  C   UNL     1     -43.523  55.165 -54.507  1.00  0.00     0.238 C 
HETATM    8  C   UNL     1     -42.736  53.972 -53.980  1.00  0.00     0.065 C 
HETATM    9  C   UNL     1     -40.596  53.169 -52.944  1.00  0.00     0.061 A 
HETATM   10  C   UNL     1     -40.080  52.859 -51.705  1.00  0.00     0.037 A 
HETATM   11  N   UNL     1     -39.386  51.680 -51.840  1.00  0.00    -0.354 N 
HETATM   12  H   UNL     1     -38.896  51.189 -51.091  1.00  0.00     0.166 HD
HETATM   13  C   UNL     1     -39.470  51.231 -53.096  1.00  0.00     0.181 A 
HETATM   14  N   UNL     1     -40.202  52.128 -53.777  1.00  0.00    -0.352 N 
HETATM   15  H   UNL     1     -40.428  52.009 -54.761  1.00  0.00     0.166 HD
HETATM   16  C   UNL     1     -40.360  53.635 -50.494  1.00  0.00     0.078 C 
HETATM   17  C   UNL     1     -41.757  54.252 -50.720  1.00  0.00     0.124 C 
ENDROOT
BRANCH   5  18
HETATM   18  C   UNL     1     -42.770  55.519 -56.936  1.00  0.00     0.301 C 
BRANCH  18  19
HETATM   19  C   UNL     1     -43.573  56.453 -57.755  1.00  0.00     0.107 C 
HETATM   20  O   UNL     1     -44.077  57.525 -57.096  1.00  0.00    -0.216 OA
HETATM   21  N   UNL     1     -45.093  58.076 -57.838  1.00  0.00    -0.128 NA
HETATM   22  C   UNL     1     -45.179  57.365 -58.973  1.00  0.00     0.097 C 
HETATM   23  C   UNL     1     -44.146  56.381 -59.003  1.00  0.00     0.071 C 
BRANCH  22  24
HETATM   24  C   UNL     1     -46.296  57.512 -59.907  1.00  0.00    -0.005 A 
HETATM   25  C   UNL     1     -46.803  56.387 -60.578  1.00  0.00     0.014 A 
HETATM   26  C   UNL     1     -47.780  56.525 -61.566  1.00  0.00     0.001 A 
HETATM   27  C   UNL     1     -48.266  57.788 -61.892  1.00  0.00     0.000 A 
HETATM   28  C   UNL     1     -47.789  58.912 -61.220  1.00  0.00     0.001 A 
HETATM   29  C   UNL     1     -46.809  58.776 -60.233  1.00  0.00     0.014 A 
ENDBRANCH  22  24
ENDBRANCH  18  19
ENDBRANCH   5  18
BRANCH   1  30
HETATM   30  C   UNL     1     -41.493  56.483 -51.735  1.00  0.00     0.113 C 
HETATM   31  C   UNL     1     -42.638  57.496 -51.626  1.00  0.00     0.026 C 
ENDBRANCH   1  30
TORSDOF 4
ENDMDL
MODEL 7
REMARK VINA RESULT:      -8.2      1.492      3.275
REMARK  4 active torsions:
REMARK  status: ('A' for Active; 'I' for Inactive)
REMARK    1  A    between atoms: C_2  and  N_3 
REMARK    2  A    between atoms: N_7  and  C_9 
REMARK    3  A    between atoms: C_9  and  C_10 
REMARK    4  A    between atoms: C_13  and  C_14 
ROOT
HETATM    1  N   UNL     1     -43.786  58.547 -59.802  1.00  0.00    -0.398 N 
HETATM    2  C   UNL     1     -43.081  58.952 -58.517  1.00  0.00     0.075 C 
HETATM    3  C   UNL     1     -42.163  57.899 -57.839  1.00  0.00     0.065 C 
HETATM    4  C   UNL     1     -42.838  56.696 -57.203  1.00  0.00     0.238 C 
HETATM    5  N   UNL     1     -44.073  57.048 -56.408  1.00  0.00    -0.065 N 
HETATM    6  H   UNL     1     -44.635  56.185 -56.428  1.00  0.00     0.280 HD
HETATM    7  C   UNL     1     -44.972  58.073 -57.053  1.00  0.00     0.238 C 
HETATM    8  C   UNL     1     -44.190  59.303 -57.497  1.00  0.00     0.065 C 
HETATM    9  C   UNL     1     -42.200  60.179 -58.749  1.00  0.00     0.061 A 
HETATM   10  C   UNL     1     -41.879  60.689 -59.989  1.00  0.00     0.037 A 
HETATM   11  N   UNL     1     -41.078  61.786 -59.779  1.00  0.00    -0.354 N 
HETATM   12  H   UNL     1     -40.684  62.383 -60.507  1.00  0.00     0.166 HD
HETATM   13  C   UNL     1     -40.910  61.996 -58.470  1.00  0.00     0.181 A 
HETATM   14  N   UNL     1     -41.586  61.025 -57.834  1.00  0.00    -0.352 N 
HETATM   15  H   UNL     1     -41.631  60.970 -56.820  1.00  0.00     0.166 HD
HETATM   16  C   UNL     1     -42.423  60.166 -61.245  1.00  0.00     0.078 C 
HETATM   17  C   UNL     1     -43.807  59.588 -60.879  1.00  0.00     0.124 C 
ENDROOT
BRANCH   5  18
HETATM   18  C   UNL     1     -43.847  57.237 -54.901  1.00  0.00     0.301 C 
BRANCH  18  19
HETATM   19  C   UNL     1     -43.470  55.957 -54.260  1.00  0.00     0.107 C 
HETATM   20  O   UNL     1     -43.654  55.899 -52.919  1.00  0.00    -0.216 OA
HETATM   21  N   UNL     1     -42.923  54.855 -52.406  1.00  0.00    -0.128 NA
HETATM   22  C   UNL     1     -42.327  54.248 -53.445  1.00  0.00     0.097 C 
HETATM   23  C   UNL     1     -42.742  54.862 -54.664  1.00  0.00     0.071 C 
BRANCH  22  24
HETATM   24  C   UNL     1     -41.284  53.236 -53.269  1.00  0.00    -0.005 A 
HETATM   25  C   UNL     1     -41.012  52.320 -54.298  1.00  0.00     0.014 A 
HETATM   26  C   UNL     1     -40.113  51.270 -54.101  1.00  0.00     0.001 A 
HETATM   27  C   UNL     1     -39.471  51.125 -52.875  1.00  0.00     0.000 A 
HETATM   28  C   UNL     1     -39.714  52.038 -51.850  1.00  0.00     0.001 A 
HETATM   29  C   UNL     1     -40.615  53.089 -52.045  1.00  0.00     0.014 A 
ENDBRANCH  22  24
ENDBRANCH  18  19
ENDBRANCH   5  18
BRANCH   1  30
HETATM   30  C   UNL     1     -43.558  57.197 -60.335  1.00  0.00     0.113 C 
HETATM   31  C   UNL     1     -44.776  56.268 -60.376  1.00  0.00     0.026 C 
ENDBRANCH   1  30
TORSDOF 4
ENDMDL
MODEL 8
REMARK VINA RESULT:      -8.1      2.325      3.660
REMARK  4 active torsions:
REMARK  status: ('A' for Active; 'I' for Inactive)
REMARK    1  A    between atoms: C_2  and  N_3 
REMARK    2  A    between atoms: N_7  and  C_9 
REMARK    3  A    between atoms: C_9  and  C_10 
REMARK    4  A    between atoms: C_13  and  C_14 
ROOT
HETATM    1  N   UNL     1     -44.444  59.899 -54.327  1.00  0.00    -0.398 N 
HETATM    2  C   UNL     1     -43.610  58.647 -54.103  1.00  0.00     0.075 C 
HETATM    3  C   UNL     1     -44.008  57.722 -52.921  1.00  0.00     0.065 C 
HETATM    4  C   UNL     1     -43.771  58.248 -51.516  1.00  0.00     0.238 C 
HETATM    5  N   UNL     1     -42.436  58.933 -51.347  1.00  0.00    -0.065 N 
HETATM    6  H   UNL     1     -42.591  59.586 -50.565  1.00  0.00     0.280 HD
HETATM    7  C   UNL     1     -42.035  59.832 -52.489  1.00  0.00     0.238 C 
HETATM    8  C   UNL     1     -42.163  59.124 -53.832  1.00  0.00     0.065 C 
HETATM    9  C   UNL     1     -43.626  57.760 -55.346  1.00  0.00     0.061 A 
HETATM   10  C   UNL     1     -44.477  57.927 -56.417  1.00  0.00     0.037 A 
HETATM   11  N   UNL     1     -44.181  56.940 -57.327  1.00  0.00    -0.354 N 
HETATM   12  H   UNL     1     -44.638  56.807 -58.229  1.00  0.00     0.166 HD
HETATM   13  C   UNL     1     -43.170  56.186 -56.883  1.00  0.00     0.181 A 
HETATM   14  N   UNL     1     -42.826  56.674 -55.680  1.00  0.00    -0.352 N 
HETATM   15  H   UNL     1     -42.063  56.282 -55.134  1.00  0.00     0.166 HD
HETATM   16  C   UNL     1     -45.418  59.044 -56.537  1.00  0.00     0.078 C 
HETATM   17  C   UNL     1     -44.769  60.207 -55.756  1.00  0.00     0.124 C 
ENDROOT
BRANCH   5  18
HETATM   18  C   UNL     1     -41.313  58.046 -50.792  1.00  0.00     0.301 C 
BRANCH  18  19
HETATM   19  C   UNL     1     -41.558  56.622 -51.111  1.00  0.00     0.107 C 
HETATM   20  O   UNL     1     -41.931  55.843 -50.066  1.00  0.00    -0.216 OA
HETATM   21  N   UNL     1     -41.744  54.523 -50.395  1.00  0.00    -0.128 NA
HETATM   22  C   UNL     1     -41.298  54.495 -51.661  1.00  0.00     0.097 C 
HETATM   23  C   UNL     1     -41.269  55.819 -52.190  1.00  0.00     0.071 C 
BRANCH  22  24
HETATM   24  C   UNL     1     -40.769  53.278 -52.279  1.00  0.00    -0.005 A 
HETATM   25  C   UNL     1     -39.978  52.395 -51.525  1.00  0.00     0.014 A 
HETATM   26  C   UNL     1     -39.359  51.298 -52.129  1.00  0.00     0.001 A 
HETATM   27  C   UNL     1     -39.527  51.067 -53.491  1.00  0.00     0.000 A 
HETATM   28  C   UNL     1     -40.326  51.922 -54.248  1.00  0.00     0.001 A 
HETATM   29  C   UNL     1     -40.945  53.022 -53.646  1.00  0.00     0.014 A 
ENDBRANCH  22  24
ENDBRANCH  18  19
ENDBRANCH   5  18
BRANCH   1  30
HETATM   30  C   UNL     1     -45.578  60.161 -53.428  1.00  0.00     0.113 C 
HETATM   31  C   UNL     1     -45.479  61.420 -52.561  1.00  0.00     0.026 C 
ENDBRANCH   1  30
TORSDOF 4
ENDMDL
MODEL 9
REMARK VINA RESULT:      -7.8      2.992      4.533
REMARK  4 active torsions:
REMARK  status: ('A' for Active; 'I' for Inactive)
REMARK    1  A    between atoms: C_2  and  N_3 
REMARK    2  A    between atoms: N_7  and  C_9 
REMARK    3  A    between atoms: C_9  and  C_10 
REMARK    4  A    between atoms: C_13  and  C_14 
ROOT
HETATM    1  N   UNL     1     -43.714  60.076 -52.982  1.00  0.00    -0.398 N 
HETATM    2  C   UNL     1     -43.414  59.493 -54.354  1.00  0.00     0.075 C 
HETATM    3  C   UNL     1     -44.543  58.688 -55.054  1.00  0.00     0.065 C 
HETATM    4  C   UNL     1     -44.908  57.341 -54.456  1.00  0.00     0.238 C 
HETATM    5  N   UNL     1     -43.709  56.513 -54.057  1.00  0.00    -0.065 N 
HETATM    6  H   UNL     1     -44.069  55.898 -53.313  1.00  0.00     0.280 HD
HETATM    7  C   UNL     1     -42.603  57.284 -53.380  1.00  0.00     0.238 C 
HETATM    8  C   UNL     1     -42.220  58.527 -54.172  1.00  0.00     0.065 C 
HETATM    9  C   UNL     1     -43.027  60.599 -55.335  1.00  0.00     0.061 A 
HETATM   10  C   UNL     1     -43.179  61.947 -55.096  1.00  0.00     0.037 A 
HETATM   11  N   UNL     1     -42.715  62.610 -56.207  1.00  0.00    -0.354 N 
HETATM   12  H   UNL     1     -42.689  63.623 -56.327  1.00  0.00     0.166 HD
HETATM   13  C   UNL     1     -42.259  61.739 -57.112  1.00  0.00     0.181 A 
HETATM   14  N   UNL     1     -42.444  60.513 -56.594  1.00  0.00    -0.352 N 
HETATM   15  H   UNL     1     -42.161  59.669 -57.084  1.00  0.00     0.166 HD
HETATM   16  C   UNL     1     -43.651  62.495 -53.821  1.00  0.00     0.078 C 
HETATM   17  C   UNL     1     -43.216  61.470 -52.752  1.00  0.00     0.124 C 
ENDROOT
BRANCH   5  18
HETATM   18  C   UNL     1     -43.243  55.492 -55.105  1.00  0.00     0.301 C 
BRANCH  18  19
HETATM   19  C   UNL     1     -42.048  54.758 -54.632  1.00  0.00     0.107 C 
HETATM   20  O   UNL     1     -41.016  54.693 -55.507  1.00  0.00    -0.216 OA
HETATM   21  N   UNL     1     -40.162  53.687 -55.127  1.00  0.00    -0.128 NA
HETATM   22  C   UNL     1     -40.651  53.168 -53.990  1.00  0.00     0.097 C 
HETATM   23  C   UNL     1     -41.804  53.902 -53.583  1.00  0.00     0.071 C 
BRANCH  22  24
HETATM   24  C   UNL     1     -40.137  51.925 -53.411  1.00  0.00    -0.005 A 
HETATM   25  C   UNL     1     -39.988  50.784 -54.216  1.00  0.00     0.014 A 
HETATM   26  C   UNL     1     -39.623  49.558 -53.656  1.00  0.00     0.001 A 
HETATM   27  C   UNL     1     -39.396  49.458 -52.287  1.00  0.00     0.000 A 
HETATM   28  C   UNL     1     -39.519  50.587 -51.478  1.00  0.00     0.001 A 
HETATM   29  C   UNL     1     -39.887  51.814 -52.035  1.00  0.00     0.014 A 
ENDBRANCH  22  24
ENDBRANCH  18  19
ENDBRANCH   5  18
BRANCH   1  30
HETATM   30  C   UNL     1     -45.045  59.856 -52.398  1.00  0.00     0.113 C 
HETATM   31  C   UNL     1     -45.097  58.995 -51.131  1.00  0.00     0.026 C 
ENDBRANCH   1  30
TORSDOF 4
ENDMDL
MODEL 10
REMARK VINA RESULT:      -7.6      2.463      4.904
REMARK  4 active torsions:
REMARK  status: ('A' for Active; 'I' for Inactive)
REMARK    1  A    between atoms: C_2  and  N_3 
REMARK    2  A    between atoms: N_7  and  C_9 
REMARK    3  A    between atoms: C_9  and  C_10 
REMARK    4  A    between atoms: C_13  and  C_14 
ROOT
HETATM    1  N   UNL     1     -43.964  59.850 -54.579  1.00  0.00    -0.398 N 
HETATM    2  C   UNL     1     -43.810  58.376 -54.243  1.00  0.00     0.075 C 
HETATM    3  C   UNL     1     -42.402  57.743 -54.417  1.00  0.00     0.065 C 
HETATM    4  C   UNL     1     -41.888  57.572 -55.835  1.00  0.00     0.238 C 
HETATM    5  N   UNL     1     -42.928  57.046 -56.795  1.00  0.00    -0.065 N 
HETATM    6  H   UNL     1     -42.616  57.392 -57.714  1.00  0.00     0.280 HD
HETATM    7  C   UNL     1     -44.302  57.649 -56.635  1.00  0.00     0.238 C 
HETATM    8  C   UNL     1     -44.767  57.606 -55.185  1.00  0.00     0.065 C 
HETATM    9  C   UNL     1     -44.206  58.110 -52.792  1.00  0.00     0.061 A 
HETATM   10  C   UNL     1     -44.418  59.089 -51.846  1.00  0.00     0.037 A 
HETATM   11  N   UNL     1     -44.758  58.454 -50.675  1.00  0.00    -0.354 N 
HETATM   12  H   UNL     1     -44.983  58.914 -49.793  1.00  0.00     0.166 HD
HETATM   13  C   UNL     1     -44.792  57.130 -50.857  1.00  0.00     0.181 A 
HETATM   14  N   UNL     1     -44.458  56.909 -52.139  1.00  0.00    -0.352 N 
HETATM   15  H   UNL     1     -44.426  55.975 -52.538  1.00  0.00     0.166 HD
HETATM   16  C   UNL     1     -44.379  60.524 -52.143  1.00  0.00     0.078 C 
HETATM   17  C   UNL     1     -44.801  60.644 -53.623  1.00  0.00     0.124 C 
ENDROOT
BRANCH   5  18
HETATM   18  C   UNL     1     -42.906  55.526 -57.012  1.00  0.00     0.301 C 
BRANCH  18  19
HETATM   19  C   UNL     1     -42.676  54.814 -55.736  1.00  0.00     0.107 C 
HETATM   20  O   UNL     1     -43.763  54.671 -54.940  1.00  0.00    -0.216 OA
HETATM   21  N   UNL     1     -43.355  54.366 -53.665  1.00  0.00    -0.128 NA
HETATM   22  C   UNL     1     -42.016  54.278 -53.693  1.00  0.00     0.097 C 
HETATM   23  C   UNL     1     -41.551  54.453 -55.031  1.00  0.00     0.071 C 
BRANCH  22  24
HETATM   24  C   UNL     1     -41.209  54.196 -52.474  1.00  0.00    -0.005 A 
HETATM   25  C   UNL     1     -40.438  53.050 -52.218  1.00  0.00     0.014 A 
HETATM   26  C   UNL     1     -39.766  52.898 -51.004  1.00  0.00     0.001 A 
HETATM   27  C   UNL     1     -39.851  53.892 -50.033  1.00  0.00     0.000 A 
HETATM   28  C   UNL     1     -40.595  55.045 -50.281  1.00  0.00     0.001 A 
HETATM   29  C   UNL     1     -41.271  55.197 -51.494  1.00  0.00     0.014 A 
ENDBRANCH  22  24
ENDBRANCH  18  19
ENDBRANCH   5  18
BRANCH   1  30
HETATM   30  C   UNL     1     -42.783  60.596 -55.038  1.00  0.00     0.113 C 
HETATM   31  C   UNL     1     -42.843  61.151 -56.465  1.00  0.00     0.026 C 
ENDBRANCH   1  30
TORSDOF 4
ENDMDL
