MODEL 1
REMARK VINA RESULT:     -10.6      0.000      0.000
REMARK  9 active torsions:
REMARK  status: ('A' for Active; 'I' for Inactive)
REMARK    1  A    between atoms: C_5  and  C_6 
REMARK    2  A    between atoms: C_6  and  N_7 
REMARK       I    between atoms: N_7  and  C_8 
REMARK    3  A    between atoms: C_8  and  C_9 
REMARK    4  A    between atoms: C_9  and  N_10 
REMARK    5  A    between atoms: N_14  and  C_15 
REMARK    6  A    between atoms: C_17  and  N_18 
REMARK    7  A    between atoms: N_18  and  C_19 
REMARK    8  A    between atoms: C_26  and  N_27 
REMARK    9  A    between atoms: N_27  and  C_28 
ROOT
HETATM    1  C   UNL     1     -42.588  55.907 -52.815  1.00  0.00     0.756 A 
HETATM    2  N   UNL     1     -43.287  56.195 -53.898  1.00  0.00     0.131 NA
HETATM    3  C   UNL     1     -42.927  55.584 -55.023  1.00  0.00     0.758 A 
HETATM    4  N   UNL     1     -41.913  54.734 -55.107  1.00  0.00     0.131 NA
HETATM    5  C   UNL     1     -41.319  54.431 -53.963  1.00  0.00     0.758 A 
HETATM    6  N   UNL     1     -41.644  54.983 -52.799  1.00  0.00     0.131 NA
ENDROOT
BRANCH   1   7
HETATM    7  N   UNL     1     -42.830  56.616 -51.657  1.00  0.00    -0.210 N 
HETATM    8  C   UNL     1     -44.207  56.811 -51.206  1.00  0.00     0.169 C 
HETATM    9  C   UNL     1     -44.595  58.303 -51.312  1.00  0.00     0.256 C 
HETATM   10  N   UNL     1     -43.564  59.145 -50.554  1.00  0.00    -0.060 N 
HETATM   11  H   UNL     1     -43.513  58.748 -49.609  1.00  0.00     0.280 HD
HETATM   12  C   UNL     1     -42.173  58.949 -51.174  1.00  0.00     0.256 C 
HETATM   13  C   UNL     1     -41.780  57.459 -51.081  1.00  0.00     0.169 C 
BRANCH  10  14
HETATM   14  C   UNL     1     -43.970  60.602 -50.382  1.00  0.00     0.337 C 
BRANCH  14  15
HETATM   15  C   UNL     1     -45.152  60.885 -49.449  1.00  0.00     0.243 C 
HETATM   16  N   UNL     1     -44.812  60.937 -48.116  1.00  0.00    -0.355 N 
HETATM   17  H   UNL     1     -43.906  60.617 -47.795  1.00  0.00     0.162 HD
HETATM   18  O   UNL     1     -46.288  61.077 -49.872  1.00  0.00    -0.272 OA
BRANCH  16  19
HETATM   19  C   UNL     1     -45.798  61.188 -47.082  1.00  0.00     0.161 C 
BRANCH  19  20
HETATM   20  C   UNL     1     -45.172  61.796 -45.856  1.00  0.00    -0.041 A 
HETATM   21  C   UNL     1     -45.388  63.141 -45.527  1.00  0.00     0.009 A 
HETATM   22  C   UNL     1     -44.838  63.686 -44.363  1.00  0.00     0.007 A 
HETATM   23  C   UNL     1     -44.058  62.898 -43.510  1.00  0.00    -0.062 A 
HETATM   24  C   UNL     1     -43.531  63.463 -42.223  1.00  0.00     0.048 C 
HETATM   25  C   UNL     1     -43.843  61.555 -43.834  1.00  0.00     0.007 A 
HETATM   26  C   UNL     1     -44.386  61.011 -45.001  1.00  0.00     0.009 A 
ENDBRANCH  19  20
ENDBRANCH  16  19
ENDBRANCH  14  15
ENDBRANCH  10  14
ENDBRANCH   1   7
BRANCH   3  27
HETATM   27  N   UNL     1     -43.590  55.866 -56.217  1.00  0.00    -0.187 N 
HETATM   28  H   UNL     1     -44.564  56.065 -56.031  1.00  0.00     0.184 HD
BRANCH  27  29
HETATM   29  C   UNL     1     -43.111  56.398 -57.424  1.00  0.00     0.049 A 
HETATM   30  C   UNL     1     -43.250  55.637 -58.595  1.00  0.00     0.030 A 
HETATM   31  C   UNL     1     -42.774  56.107 -59.823  1.00  0.00     0.002 A 
HETATM   32  C   UNL     1     -42.146  57.347 -59.897  1.00  0.00     0.000 A 
HETATM   33  C   UNL     1     -41.985  58.109 -58.743  1.00  0.00     0.002 A 
HETATM   34  C   UNL     1     -42.451  57.630 -57.515  1.00  0.00     0.030 A 
ENDBRANCH  27  29
ENDBRANCH   3  27
BRANCH   5  35
HETATM   35  N   UNL     1     -40.265  53.524 -54.045  1.00  0.00    -0.187 N 
HETATM   36  H   UNL     1     -39.559  53.848 -54.691  1.00  0.00     0.184 HD
BRANCH  35  37
HETATM   37  C   UNL     1     -40.092  52.234 -53.531  1.00  0.00     0.049 A 
HETATM   38  C   UNL     1     -39.720  51.981 -52.204  1.00  0.00     0.030 A 
HETATM   39  C   UNL     1     -39.517  50.676 -51.745  1.00  0.00     0.002 A 
HETATM   40  C   UNL     1     -39.660  49.600 -52.616  1.00  0.00     0.000 A 
HETATM   41  C   UNL     1     -40.009  49.831 -53.944  1.00  0.00     0.002 A 
HETATM   42  C   UNL     1     -40.222  51.137 -54.394  1.00  0.00     0.030 A 
ENDBRANCH  35  37
ENDBRANCH   5  35
TORSDOF 9
ENDMDL
MODEL 2
REMARK VINA RESULT:     -10.2      0.339      5.292
REMARK  9 active torsions:
REMARK  status: ('A' for Active; 'I' for Inactive)
REMARK    1  A    between atoms: C_5  and  C_6 
REMARK    2  A    between atoms: C_6  and  N_7 
REMARK       I    between atoms: N_7  and  C_8 
REMARK    3  A    between atoms: C_8  and  C_9 
REMARK    4  A    between atoms: C_9  and  N_10 
REMARK    5  A    between atoms: N_14  and  C_15 
REMARK    6  A    between atoms: C_17  and  N_18 
REMARK    7  A    between atoms: N_18  and  C_19 
REMARK    8  A    between atoms: C_26  and  N_27 
REMARK    9  A    between atoms: N_27  and  C_28 
ROOT
HETATM    1  C   UNL     1     -42.468  55.945 -53.188  1.00  0.00     0.756 A 
HETATM    2  N   UNL     1     -41.424  55.140 -53.106  1.00  0.00     0.131 NA
HETATM    3  C   UNL     1     -41.080  54.490 -54.213  1.00  0.00     0.758 A 
HETATM    4  N   UNL     1     -41.732  54.597 -55.362  1.00  0.00     0.131 NA
HETATM    5  C   UNL     1     -42.713  55.488 -55.388  1.00  0.00     0.758 A 
HETATM    6  N   UNL     1     -43.091  56.191 -54.327  1.00  0.00     0.131 NA
ENDROOT
BRANCH   1   7
HETATM    7  N   UNL     1     -42.950  56.533 -52.037  1.00  0.00    -0.210 N 
HETATM    8  C   UNL     1     -44.358  56.923 -51.963  1.00  0.00     0.169 C 
HETATM    9  C   UNL     1     -44.480  58.462 -51.907  1.00  0.00     0.256 C 
HETATM   10  N   UNL     1     -43.623  58.992 -50.753  1.00  0.00    -0.060 N 
HETATM   11  H   UNL     1     -43.920  58.475 -49.918  1.00  0.00     0.280 HD
HETATM   12  C   UNL     1     -42.151  58.619 -50.982  1.00  0.00     0.256 C 
HETATM   13  C   UNL     1     -42.019  57.083 -51.050  1.00  0.00     0.169 C 
BRANCH  10  14
HETATM   14  C   UNL     1     -43.853  60.465 -50.445  1.00  0.00     0.337 C 
BRANCH  14  15
HETATM   15  C   UNL     1     -45.077  60.811 -49.592  1.00  0.00     0.243 C 
HETATM   16  N   UNL     1     -44.791  61.011 -48.261  1.00  0.00    -0.355 N 
HETATM   17  H   UNL     1     -43.892  60.751 -47.875  1.00  0.00     0.162 HD
HETATM   18  O   UNL     1     -46.199  60.926 -50.074  1.00  0.00    -0.272 OA
BRANCH  16  19
HETATM   19  C   UNL     1     -45.823  61.341 -47.296  1.00  0.00     0.161 C 
BRANCH  19  20
HETATM   20  C   UNL     1     -45.233  61.815 -45.995  1.00  0.00    -0.041 A 
HETATM   21  C   UNL     1     -44.478  60.953 -45.188  1.00  0.00     0.009 A 
HETATM   22  C   UNL     1     -43.899  61.414 -44.003  1.00  0.00     0.007 A 
HETATM   23  C   UNL     1     -44.066  62.743 -43.600  1.00  0.00    -0.062 A 
HETATM   24  C   UNL     1     -43.382  63.257 -42.367  1.00  0.00     0.048 C 
HETATM   25  C   UNL     1     -44.816  63.607 -44.405  1.00  0.00     0.007 A 
HETATM   26  C   UNL     1     -45.403  63.145 -45.586  1.00  0.00     0.009 A 
ENDBRANCH  19  20
ENDBRANCH  16  19
ENDBRANCH  14  15
ENDBRANCH  10  14
ENDBRANCH   1   7
BRANCH   3  27
HETATM   27  N   UNL     1     -40.013  53.592 -54.197  1.00  0.00    -0.187 N 
HETATM   28  H   UNL     1     -39.137  54.099 -54.234  1.00  0.00     0.184 HD
BRANCH  27  29
HETATM   29  C   UNL     1     -39.913  52.302 -53.654  1.00  0.00     0.049 A 
HETATM   30  C   UNL     1     -40.130  51.201 -54.495  1.00  0.00     0.030 A 
HETATM   31  C   UNL     1     -40.064  49.893 -54.005  1.00  0.00     0.002 A 
HETATM   32  C   UNL     1     -39.782  49.666 -52.662  1.00  0.00     0.000 A 
HETATM   33  C   UNL     1     -39.580  50.748 -51.808  1.00  0.00     0.002 A 
HETATM   34  C   UNL     1     -39.659  52.054 -52.299  1.00  0.00     0.030 A 
ENDBRANCH  27  29
ENDBRANCH   3  27
BRANCH   5  35
HETATM   35  N   UNL     1     -43.388  55.615 -56.599  1.00  0.00    -0.187 N 
HETATM   36  H   UNL     1     -44.207  55.024 -56.620  1.00  0.00     0.184 HD
BRANCH  35  37
HETATM   37  C   UNL     1     -43.064  56.273 -57.792  1.00  0.00     0.049 A 
HETATM   38  C   UNL     1     -43.247  55.701 -59.057  1.00  0.00     0.030 A 
HETATM   39  C   UNL     1     -42.869  56.378 -60.220  1.00  0.00     0.002 A 
HETATM   40  C   UNL     1     -42.277  57.634 -60.134  1.00  0.00     0.000 A 
HETATM   41  C   UNL     1     -42.067  58.213 -58.885  1.00  0.00     0.002 A 
HETATM   42  C   UNL     1     -42.457  57.535 -57.726  1.00  0.00     0.030 A 
ENDBRANCH  35  37
ENDBRANCH   5  35
TORSDOF 9
ENDMDL
MODEL 3
REMARK VINA RESULT:      -9.8      1.600      5.501
REMARK  9 active torsions:
REMARK  status: ('A' for Active; 'I' for Inactive)
REMARK    1  A    between atoms: C_5  and  C_6 
REMARK    2  A    between atoms: C_6  and  N_7 
REMARK       I    between atoms: N_7  and  C_8 
REMARK    3  A    between atoms: C_8  and  C_9 
REMARK    4  A    between atoms: C_9  and  N_10 
REMARK    5  A    between atoms: N_14  and  C_15 
REMARK    6  A    between atoms: C_17  and  N_18 
REMARK    7  A    between atoms: N_18  and  C_19 
REMARK    8  A    between atoms: C_26  and  N_27 
REMARK    9  A    between atoms: N_27  and  C_28 
ROOT
HETATM    1  C   UNL     1     -42.537  57.453 -54.738  1.00  0.00     0.756 A 
HETATM    2  N   UNL     1     -42.501  56.389 -53.956  1.00  0.00     0.131 NA
HETATM    3  C   UNL     1     -42.527  55.203 -54.556  1.00  0.00     0.758 A 
HETATM    4  N   UNL     1     -42.602  55.045 -55.870  1.00  0.00     0.131 NA
HETATM    5  C   UNL     1     -42.546  56.156 -56.589  1.00  0.00     0.758 A 
HETATM    6  N   UNL     1     -42.492  57.372 -56.056  1.00  0.00     0.131 NA
ENDROOT
BRANCH   1   7
HETATM    7  N   UNL     1     -42.654  58.701 -54.162  1.00  0.00    -0.210 N 
HETATM    8  C   UNL     1     -41.448  59.434 -53.780  1.00  0.00     0.169 C 
HETATM    9  C   UNL     1     -41.366  59.557 -52.242  1.00  0.00     0.256 C 
HETATM   10  N   UNL     1     -42.666  60.175 -51.717  1.00  0.00    -0.060 N 
HETATM   11  H   UNL     1     -42.798  61.047 -52.244  1.00  0.00     0.280 HD
HETATM   12  C   UNL     1     -43.857  59.276 -52.082  1.00  0.00     0.256 C 
HETATM   13  C   UNL     1     -43.940  59.139 -53.616  1.00  0.00     0.169 C 
BRANCH  10  14
HETATM   14  C   UNL     1     -42.609  60.570 -50.249  1.00  0.00     0.337 C 
BRANCH  14  15
HETATM   15  C   UNL     1     -43.820  61.322 -49.687  1.00  0.00     0.243 C 
HETATM   16  N   UNL     1     -44.296  60.806 -48.502  1.00  0.00    -0.355 N 
HETATM   17  H   UNL     1     -43.988  59.903 -48.164  1.00  0.00     0.162 HD
HETATM   18  O   UNL     1     -44.290  62.311 -50.239  1.00  0.00    -0.272 OA
BRANCH  16  19
HETATM   19  C   UNL     1     -45.440  61.381 -47.821  1.00  0.00     0.161 C 
BRANCH  19  20
HETATM   20  C   UNL     1     -45.087  61.834 -46.430  1.00  0.00    -0.041 A 
HETATM   21  C   UNL     1     -44.521  60.946 -45.504  1.00  0.00     0.009 A 
HETATM   22  C   UNL     1     -44.157  61.386 -44.229  1.00  0.00     0.007 A 
HETATM   23  C   UNL     1     -44.355  62.719 -43.854  1.00  0.00    -0.062 A 
HETATM   24  C   UNL     1     -43.895  63.208 -42.511  1.00  0.00     0.048 C 
HETATM   25  C   UNL     1     -44.916  63.607 -44.776  1.00  0.00     0.007 A 
HETATM   26  C   UNL     1     -45.289  63.167 -46.049  1.00  0.00     0.009 A 
ENDBRANCH  19  20
ENDBRANCH  16  19
ENDBRANCH  14  15
ENDBRANCH  10  14
ENDBRANCH   1   7
BRANCH   3  27
HETATM   27  N   UNL     1     -42.532  54.033 -53.798  1.00  0.00    -0.187 N 
HETATM   28  H   UNL     1     -43.409  53.544 -53.928  1.00  0.00     0.184 HD
BRANCH  27  29
HETATM   29  C   UNL     1     -41.474  53.218 -53.366  1.00  0.00     0.049 A 
HETATM   30  C   UNL     1     -40.981  53.393 -52.064  1.00  0.00     0.030 A 
HETATM   31  C   UNL     1     -39.915  52.624 -51.587  1.00  0.00     0.002 A 
HETATM   32  C   UNL     1     -39.322  51.670 -52.408  1.00  0.00     0.000 A 
HETATM   33  C   UNL     1     -39.788  51.495 -53.708  1.00  0.00     0.002 A 
HETATM   34  C   UNL     1     -40.845  52.274 -54.186  1.00  0.00     0.030 A 
ENDBRANCH  27  29
ENDBRANCH   3  27
BRANCH   5  35
HETATM   35  N   UNL     1     -42.606  55.992 -57.970  1.00  0.00    -0.187 N 
HETATM   36  H   UNL     1     -41.689  56.075 -58.385  1.00  0.00     0.184 HD
BRANCH  35  37
HETATM   37  C   UNL     1     -43.683  55.887 -58.859  1.00  0.00     0.049 A 
HETATM   38  C   UNL     1     -44.066  54.681 -59.460  1.00  0.00     0.030 A 
HETATM   39  C   UNL     1     -45.122  54.632 -60.375  1.00  0.00     0.002 A 
HETATM   40  C   UNL     1     -45.798  55.797 -60.724  1.00  0.00     0.000 A 
HETATM   41  C   UNL     1     -45.420  57.009 -60.153  1.00  0.00     0.002 A 
HETATM   42  C   UNL     1     -44.371  57.051 -59.230  1.00  0.00     0.030 A 
ENDBRANCH  35  37
ENDBRANCH   5  35
TORSDOF 9
ENDMDL
MODEL 4
REMARK VINA RESULT:      -9.7      3.258      5.996
REMARK  9 active torsions:
REMARK  status: ('A' for Active; 'I' for Inactive)
REMARK    1  A    between atoms: C_5  and  C_6 
REMARK    2  A    between atoms: C_6  and  N_7 
REMARK       I    between atoms: N_7  and  C_8 
REMARK    3  A    between atoms: C_8  and  C_9 
REMARK    4  A    between atoms: C_9  and  N_10 
REMARK    5  A    between atoms: N_14  and  C_15 
REMARK    6  A    between atoms: C_17  and  N_18 
REMARK    7  A    between atoms: N_18  and  C_19 
REMARK    8  A    between atoms: C_26  and  N_27 
REMARK    9  A    between atoms: N_27  and  C_28 
ROOT
HETATM    1  C   UNL     1     -42.361  55.706 -52.998  1.00  0.00     0.756 A 
HETATM    2  N   UNL     1     -43.046  55.948 -54.101  1.00  0.00     0.131 NA
HETATM    3  C   UNL     1     -42.700  55.260 -55.185  1.00  0.00     0.758 A 
HETATM    4  N   UNL     1     -41.711  54.377 -55.211  1.00  0.00     0.131 NA
HETATM    5  C   UNL     1     -41.130  54.126 -54.047  1.00  0.00     0.758 A 
HETATM    6  N   UNL     1     -41.445  54.757 -52.921  1.00  0.00     0.131 NA
ENDROOT
BRANCH   1   7
HETATM    7  N   UNL     1     -42.586  56.491 -51.887  1.00  0.00    -0.210 N 
HETATM    8  C   UNL     1     -43.942  56.610 -51.352  1.00  0.00     0.169 C 
HETATM    9  C   UNL     1     -44.467  58.049 -51.549  1.00  0.00     0.256 C 
HETATM   10  N   UNL     1     -43.466  59.037 -50.941  1.00  0.00    -0.060 N 
HETATM   11  H   UNL     1     -43.316  58.728 -49.973  1.00  0.00     0.280 HD
HETATM   12  C   UNL     1     -42.107  58.902 -51.644  1.00  0.00     0.256 C 
HETATM   13  C   UNL     1     -41.579  57.464 -51.460  1.00  0.00     0.169 C 
BRANCH  10  14
HETATM   14  C   UNL     1     -43.986  60.464 -50.857  1.00  0.00     0.337 C 
BRANCH  14  15
HETATM   15  C   UNL     1     -43.892  61.311 -52.130  1.00  0.00     0.243 C 
HETATM   16  N   UNL     1     -44.662  60.842 -53.171  1.00  0.00    -0.355 N 
HETATM   17  H   UNL     1     -45.079  59.921 -53.138  1.00  0.00     0.162 HD
HETATM   18  O   UNL     1     -43.211  62.330 -52.190  1.00  0.00    -0.272 OA
BRANCH  16  19
HETATM   19  C   UNL     1     -44.698  61.508 -54.459  1.00  0.00     0.161 C 
BRANCH  19  20
HETATM   20  C   UNL     1     -45.044  60.552 -55.568  1.00  0.00    -0.041 A 
HETATM   21  C   UNL     1     -45.390  59.222 -55.291  1.00  0.00     0.009 A 
HETATM   22  C   UNL     1     -45.752  58.352 -56.324  1.00  0.00     0.007 A 
HETATM   23  C   UNL     1     -45.770  58.793 -57.651  1.00  0.00    -0.062 A 
HETATM   24  C   UNL     1     -46.231  57.881 -58.750  1.00  0.00     0.048 C 
HETATM   25  C   UNL     1     -45.430  60.121 -57.929  1.00  0.00     0.007 A 
HETATM   26  C   UNL     1     -45.060  60.989 -56.899  1.00  0.00     0.009 A 
ENDBRANCH  19  20
ENDBRANCH  16  19
ENDBRANCH  14  15
ENDBRANCH  10  14
ENDBRANCH   1   7
BRANCH   3  27
HETATM   27  N   UNL     1     -43.348  55.487 -56.398  1.00  0.00    -0.187 N 
HETATM   28  H   UNL     1     -44.346  55.362 -56.282  1.00  0.00     0.184 HD
BRANCH  27  29
HETATM   29  C   UNL     1     -42.989  56.293 -57.489  1.00  0.00     0.049 A 
HETATM   30  C   UNL     1     -43.202  55.800 -58.786  1.00  0.00     0.030 A 
HETATM   31  C   UNL     1     -42.844  56.549 -59.911  1.00  0.00     0.002 A 
HETATM   32  C   UNL     1     -42.264  57.804 -59.756  1.00  0.00     0.000 A 
HETATM   33  C   UNL     1     -42.030  58.302 -58.477  1.00  0.00     0.002 A 
HETATM   34  C   UNL     1     -42.377  57.545 -57.355  1.00  0.00     0.030 A 
ENDBRANCH  27  29
ENDBRANCH   3  27
BRANCH   5  35
HETATM   35  N   UNL     1     -40.104  53.186 -54.068  1.00  0.00    -0.187 N 
HETATM   36  H   UNL     1     -39.414  53.420 -54.767  1.00  0.00     0.184 HD
BRANCH  35  37
HETATM   37  C   UNL     1     -39.945  51.952 -53.426  1.00  0.00     0.049 A 
HETATM   38  C   UNL     1     -39.688  51.828 -52.055  1.00  0.00     0.030 A 
HETATM   39  C   UNL     1     -39.493  50.576 -51.464  1.00  0.00     0.002 A 
HETATM   40  C   UNL     1     -39.530  49.424 -52.243  1.00  0.00     0.000 A 
HETATM   41  C   UNL     1     -39.765  49.526 -53.612  1.00  0.00     0.002 A 
HETATM   42  C   UNL     1     -39.969  50.780 -54.195  1.00  0.00     0.030 A 
ENDBRANCH  35  37
ENDBRANCH   5  35
TORSDOF 9
ENDMDL
MODEL 5
REMARK VINA RESULT:      -9.6      1.513      5.314
REMARK  9 active torsions:
REMARK  status: ('A' for Active; 'I' for Inactive)
REMARK    1  A    between atoms: C_5  and  C_6 
REMARK    2  A    between atoms: C_6  and  N_7 
REMARK       I    between atoms: N_7  and  C_8 
REMARK    3  A    between atoms: C_8  and  C_9 
REMARK    4  A    between atoms: C_9  and  N_10 
REMARK    5  A    between atoms: N_14  and  C_15 
REMARK    6  A    between atoms: C_17  and  N_18 
REMARK    7  A    between atoms: N_18  and  C_19 
REMARK    8  A    between atoms: C_26  and  N_27 
REMARK    9  A    between atoms: N_27  and  C_28 
ROOT
HETATM    1  C   UNL     1     -42.945  57.629 -54.621  1.00  0.00     0.756 A 
HETATM    2  N   UNL     1     -42.873  56.537 -53.881  1.00  0.00     0.131 NA
HETATM    3  C   UNL     1     -42.736  55.383 -54.528  1.00  0.00     0.758 A 
HETATM    4  N   UNL     1     -42.686  55.281 -55.849  1.00  0.00     0.131 NA
HETATM    5  C   UNL     1     -42.676  56.427 -56.516  1.00  0.00     0.758 A 
HETATM    6  N   UNL     1     -42.783  57.615 -55.932  1.00  0.00     0.131 NA
ENDROOT
BRANCH   1   7
HETATM    7  N   UNL     1     -43.227  58.832 -54.009  1.00  0.00    -0.210 N 
HETATM    8  C   UNL     1     -42.152  59.798 -53.787  1.00  0.00     0.169 C 
HETATM    9  C   UNL     1     -41.876  59.948 -52.275  1.00  0.00     0.256 C 
HETATM   10  N   UNL     1     -43.184  60.295 -51.557  1.00  0.00    -0.060 N 
HETATM   11  H   UNL     1     -43.564  61.117 -52.041  1.00  0.00     0.280 HD
HETATM   12  C   UNL     1     -44.208  59.169 -51.766  1.00  0.00     0.256 C 
HETATM   13  C   UNL     1     -44.483  59.005 -53.275  1.00  0.00     0.169 C 
BRANCH  10  14
HETATM   14  C   UNL     1     -42.997  60.706 -50.104  1.00  0.00     0.337 C 
BRANCH  14  15
HETATM   15  C   UNL     1     -44.185  61.389 -49.419  1.00  0.00     0.243 C 
HETATM   16  N   UNL     1     -44.424  60.942 -48.139  1.00  0.00    -0.355 N 
HETATM   17  H   UNL     1     -43.975  60.107 -47.785  1.00  0.00     0.162 HD
HETATM   18  O   UNL     1     -44.834  62.275 -49.966  1.00  0.00    -0.272 OA
BRANCH  16  19
HETATM   19  C   UNL     1     -45.510  61.467 -47.334  1.00  0.00     0.161 C 
BRANCH  19  20
HETATM   20  C   UNL     1     -45.019  61.981 -46.008  1.00  0.00    -0.041 A 
HETATM   21  C   UNL     1     -45.264  63.303 -45.611  1.00  0.00     0.009 A 
HETATM   22  C   UNL     1     -44.841  63.760 -44.360  1.00  0.00     0.007 A 
HETATM   23  C   UNL     1     -44.163  62.906 -43.484  1.00  0.00    -0.062 A 
HETATM   24  C   UNL     1     -43.776  63.374 -42.111  1.00  0.00     0.048 C 
HETATM   25  C   UNL     1     -43.921  61.586 -43.876  1.00  0.00     0.007 A 
HETATM   26  C   UNL     1     -44.335  61.130 -45.130  1.00  0.00     0.009 A 
ENDBRANCH  19  20
ENDBRANCH  16  19
ENDBRANCH  14  15
ENDBRANCH  10  14
ENDBRANCH   1   7
BRANCH   3  27
HETATM   27  N   UNL     1     -42.694  54.183 -53.820  1.00  0.00    -0.187 N 
HETATM   28  H   UNL     1     -43.532  53.646 -54.004  1.00  0.00     0.184 HD
BRANCH  27  29
HETATM   29  C   UNL     1     -41.602  53.418 -53.383  1.00  0.00     0.049 A 
HETATM   30  C   UNL     1     -41.046  52.476 -54.263  1.00  0.00     0.030 A 
HETATM   31  C   UNL     1     -39.971  51.672 -53.875  1.00  0.00     0.002 A 
HETATM   32  C   UNL     1     -39.435  51.794 -52.596  1.00  0.00     0.000 A 
HETATM   33  C   UNL     1     -39.984  52.711 -51.704  1.00  0.00     0.002 A 
HETATM   34  C   UNL     1     -41.067  53.505 -52.091  1.00  0.00     0.030 A 
ENDBRANCH  27  29
ENDBRANCH   3  27
BRANCH   5  35
HETATM   35  N   UNL     1     -42.605  56.323 -57.902  1.00  0.00    -0.187 N 
HETATM   36  H   UNL     1     -41.672  56.525 -58.233  1.00  0.00     0.184 HD
BRANCH  35  37
HETATM   37  C   UNL     1     -43.588  56.145 -58.883  1.00  0.00     0.049 A 
HETATM   38  C   UNL     1     -44.384  57.189 -59.370  1.00  0.00     0.030 A 
HETATM   39  C   UNL     1     -45.383  56.956 -60.320  1.00  0.00     0.002 A 
HETATM   40  C   UNL     1     -45.618  55.665 -60.782  1.00  0.00     0.000 A 
HETATM   41  C   UNL     1     -44.852  54.609 -60.296  1.00  0.00     0.002 A 
HETATM   42  C   UNL     1     -43.847  54.850 -59.355  1.00  0.00     0.030 A 
ENDBRANCH  35  37
ENDBRANCH   5  35
TORSDOF 9
ENDMDL
MODEL 6
REMARK VINA RESULT:      -9.5      4.811      8.951
REMARK  9 active torsions:
REMARK  status: ('A' for Active; 'I' for Inactive)
REMARK    1  A    between atoms: C_5  and  C_6 
REMARK    2  A    between atoms: C_6  and  N_7 
REMARK       I    between atoms: N_7  and  C_8 
REMARK    3  A    between atoms: C_8  and  C_9 
REMARK    4  A    between atoms: C_9  and  N_10 
REMARK    5  A    between atoms: N_14  and  C_15 
REMARK    6  A    between atoms: C_17  and  N_18 
REMARK    7  A    between atoms: N_18  and  C_19 
REMARK    8  A    between atoms: C_26  and  N_27 
REMARK    9  A    between atoms: N_27  and  C_28 
ROOT
HETATM    1  C   UNL     1     -42.257  58.768 -55.694  1.00  0.00     0.756 A 
HETATM    2  N   UNL     1     -41.742  59.947 -55.991  1.00  0.00     0.131 NA
HETATM    3  C   UNL     1     -42.277  60.592 -57.023  1.00  0.00     0.758 A 
HETATM    4  N   UNL     1     -43.268  60.108 -57.759  1.00  0.00     0.131 NA
HETATM    5  C   UNL     1     -43.787  58.961 -57.346  1.00  0.00     0.758 A 
HETATM    6  N   UNL     1     -43.320  58.278 -56.307  1.00  0.00     0.131 NA
ENDROOT
BRANCH   1   7
HETATM    7  N   UNL     1     -41.648  57.999 -54.724  1.00  0.00    -0.210 N 
HETATM    8  C   UNL     1     -41.987  56.580 -54.612  1.00  0.00     0.169 C 
HETATM    9  C   UNL     1     -42.739  56.316 -53.289  1.00  0.00     0.256 C 
HETATM   10  N   UNL     1     -41.906  56.854 -52.121  1.00  0.00    -0.060 N 
HETATM   11  H   UNL     1     -40.976  56.428 -52.217  1.00  0.00     0.280 HD
HETATM   12  C   UNL     1     -41.698  58.367 -52.281  1.00  0.00     0.256 C 
HETATM   13  C   UNL     1     -40.955  58.642 -53.606  1.00  0.00     0.169 C 
BRANCH  10  14
HETATM   14  C   UNL     1     -42.426  56.436 -50.754  1.00  0.00     0.337 C 
BRANCH  14  15
HETATM   15  C   UNL     1     -42.008  55.052 -50.247  1.00  0.00     0.243 C 
HETATM   16  N   UNL     1     -40.718  54.703 -50.578  1.00  0.00    -0.355 N 
HETATM   17  H   UNL     1     -40.190  55.236 -51.258  1.00  0.00     0.162 HD
HETATM   18  O   UNL     1     -42.758  54.345 -49.581  1.00  0.00    -0.272 OA
BRANCH  16  19
HETATM   19  C   UNL     1     -40.146  53.427 -50.191  1.00  0.00     0.161 C 
BRANCH  19  20
HETATM   20  C   UNL     1     -40.013  52.500 -51.369  1.00  0.00    -0.041 A 
HETATM   21  C   UNL     1     -39.626  51.164 -51.195  1.00  0.00     0.009 A 
HETATM   22  C   UNL     1     -39.546  50.298 -52.289  1.00  0.00     0.007 A 
HETATM   23  C   UNL     1     -39.846  50.753 -53.577  1.00  0.00    -0.062 A 
HETATM   24  C   UNL     1     -39.834  49.805 -54.741  1.00  0.00     0.048 C 
HETATM   25  C   UNL     1     -40.236  52.084 -53.753  1.00  0.00     0.007 A 
HETATM   26  C   UNL     1     -40.308  52.953 -52.661  1.00  0.00     0.009 A 
ENDBRANCH  19  20
ENDBRANCH  16  19
ENDBRANCH  14  15
ENDBRANCH  10  14
ENDBRANCH   1   7
BRANCH   3  27
HETATM   27  N   UNL     1     -41.763  61.824 -57.424  1.00  0.00    -0.187 N 
HETATM   28  H   UNL     1     -41.473  62.356 -56.613  1.00  0.00     0.184 HD
BRANCH  27  29
HETATM   29  C   UNL     1     -41.137  62.207 -58.620  1.00  0.00     0.049 A 
HETATM   30  C   UNL     1     -41.688  61.771 -59.835  1.00  0.00     0.030 A 
HETATM   31  C   UNL     1     -41.096  62.104 -61.057  1.00  0.00     0.002 A 
HETATM   32  C   UNL     1     -39.940  62.879 -61.083  1.00  0.00     0.000 A 
HETATM   33  C   UNL     1     -39.371  63.307 -59.887  1.00  0.00     0.002 A 
HETATM   34  C   UNL     1     -39.958  62.961 -58.667  1.00  0.00     0.030 A 
ENDBRANCH  27  29
ENDBRANCH   3  27
BRANCH   5  35
HETATM   35  N   UNL     1     -44.840  58.460 -58.107  1.00  0.00    -0.187 N 
HETATM   36  H   UNL     1     -45.696  58.960 -57.913  1.00  0.00     0.184 HD
BRANCH  35  37
HETATM   37  C   UNL     1     -44.948  57.341 -58.941  1.00  0.00     0.049 A 
HETATM   38  C   UNL     1     -46.157  56.924 -59.511  1.00  0.00     0.030 A 
HETATM   39  C   UNL     1     -46.226  55.774 -60.304  1.00  0.00     0.002 A 
HETATM   40  C   UNL     1     -45.086  55.006 -60.519  1.00  0.00     0.000 A 
HETATM   41  C   UNL     1     -43.877  55.392 -59.944  1.00  0.00     0.002 A 
HETATM   42  C   UNL     1     -43.813  56.548 -59.162  1.00  0.00     0.030 A 
ENDBRANCH  35  37
ENDBRANCH   5  35
TORSDOF 9
ENDMDL
MODEL 7
REMARK VINA RESULT:      -9.2      1.598      2.128
REMARK  9 active torsions:
REMARK  status: ('A' for Active; 'I' for Inactive)
REMARK    1  A    between atoms: C_5  and  C_6 
REMARK    2  A    between atoms: C_6  and  N_7 
REMARK       I    between atoms: N_7  and  C_8 
REMARK    3  A    between atoms: C_8  and  C_9 
REMARK    4  A    between atoms: C_9  and  N_10 
REMARK    5  A    between atoms: N_14  and  C_15 
REMARK    6  A    between atoms: C_17  and  N_18 
REMARK    7  A    between atoms: N_18  and  C_19 
REMARK    8  A    between atoms: C_26  and  N_27 
REMARK    9  A    between atoms: N_27  and  C_28 
ROOT
HETATM    1  C   UNL     1     -42.744  57.716 -54.239  1.00  0.00     0.756 A 
HETATM    2  N   UNL     1     -42.696  57.727 -55.558  1.00  0.00     0.131 NA
HETATM    3  C   UNL     1     -42.607  56.547 -56.164  1.00  0.00     0.758 A 
HETATM    4  N   UNL     1     -42.547  55.391 -55.519  1.00  0.00     0.131 NA
HETATM    5  C   UNL     1     -42.688  55.457 -54.203  1.00  0.00     0.758 A 
HETATM    6  N   UNL     1     -42.810  56.599 -53.536  1.00  0.00     0.131 NA
ENDROOT
BRANCH   1   7
HETATM    7  N   UNL     1     -42.696  58.915 -53.558  1.00  0.00    -0.210 N 
HETATM    8  C   UNL     1     -42.329  58.926 -52.143  1.00  0.00     0.169 C 
HETATM    9  C   UNL     1     -43.542  59.345 -51.283  1.00  0.00     0.256 C 
HETATM   10  N   UNL     1     -44.086  60.681 -51.798  1.00  0.00    -0.060 N 
HETATM   11  H   UNL     1     -43.287  61.325 -51.813  1.00  0.00     0.280 HD
HETATM   12  C   UNL     1     -44.540  60.532 -53.257  1.00  0.00     0.256 C 
HETATM   13  C   UNL     1     -43.337  60.105 -54.123  1.00  0.00     0.169 C 
BRANCH  10  14
HETATM   14  C   UNL     1     -45.125  61.314 -50.883  1.00  0.00     0.337 C 
BRANCH  14  15
HETATM   15  C   UNL     1     -45.530  60.516 -49.640  1.00  0.00     0.243 C 
HETATM   16  N   UNL     1     -45.354  61.198 -48.457  1.00  0.00    -0.355 N 
HETATM   17  H   UNL     1     -44.821  62.058 -48.424  1.00  0.00     0.162 HD
HETATM   18  O   UNL     1     -45.998  59.384 -49.712  1.00  0.00    -0.272 OA
BRANCH  16  19
HETATM   19  C   UNL     1     -45.676  60.603 -47.174  1.00  0.00     0.161 C 
BRANCH  19  20
HETATM   20  C   UNL     1     -45.178  61.447 -46.031  1.00  0.00    -0.041 A 
HETATM   21  C   UNL     1     -45.498  62.809 -45.946  1.00  0.00     0.009 A 
HETATM   22  C   UNL     1     -45.067  63.574 -44.860  1.00  0.00     0.007 A 
HETATM   23  C   UNL     1     -44.304  62.995 -43.841  1.00  0.00    -0.062 A 
HETATM   24  C   UNL     1     -43.905  63.798 -42.637  1.00  0.00     0.048 C 
HETATM   25  C   UNL     1     -43.986  61.635 -43.921  1.00  0.00     0.007 A 
HETATM   26  C   UNL     1     -44.409  60.871 -45.011  1.00  0.00     0.009 A 
ENDBRANCH  19  20
ENDBRANCH  16  19
ENDBRANCH  14  15
ENDBRANCH  10  14
ENDBRANCH   1   7
BRANCH   3  27
HETATM   27  N   UNL     1     -42.511  56.478 -57.553  1.00  0.00    -0.187 N 
HETATM   28  H   UNL     1     -41.613  56.091 -57.817  1.00  0.00     0.184 HD
BRANCH  27  29
HETATM   29  C   UNL     1     -43.507  56.345 -58.533  1.00  0.00     0.049 A 
HETATM   30  C   UNL     1     -44.613  57.208 -58.486  1.00  0.00     0.030 A 
HETATM   31  C   UNL     1     -45.646  57.110 -59.423  1.00  0.00     0.002 A 
HETATM   32  C   UNL     1     -45.591  56.141 -60.421  1.00  0.00     0.000 A 
HETATM   33  C   UNL     1     -44.510  55.266 -60.473  1.00  0.00     0.002 A 
HETATM   34  C   UNL     1     -43.485  55.360 -59.527  1.00  0.00     0.030 A 
ENDBRANCH  27  29
ENDBRANCH   3  27
BRANCH   5  35
HETATM   35  N   UNL     1     -42.645  54.242 -53.524  1.00  0.00    -0.187 N 
HETATM   36  H   UNL     1     -43.540  54.029 -53.107  1.00  0.00     0.184 HD
BRANCH  35  37
HETATM   37  C   UNL     1     -41.589  53.380 -53.206  1.00  0.00     0.049 A 
HETATM   38  C   UNL     1     -40.946  53.380 -51.962  1.00  0.00     0.030 A 
HETATM   39  C   UNL     1     -39.867  52.530 -51.703  1.00  0.00     0.002 A 
HETATM   40  C   UNL     1     -39.395  51.680 -52.699  1.00  0.00     0.000 A 
HETATM   41  C   UNL     1     -40.006  51.678 -53.950  1.00  0.00     0.002 A 
HETATM   42  C   UNL     1     -41.092  52.522 -54.199  1.00  0.00     0.030 A 
ENDBRANCH  35  37
ENDBRANCH   5  35
TORSDOF 9
ENDMDL
MODEL 8
REMARK VINA RESULT:      -8.7      4.760      7.699
REMARK  9 active torsions:
REMARK  status: ('A' for Active; 'I' for Inactive)
REMARK    1  A    between atoms: C_5  and  C_6 
REMARK    2  A    between atoms: C_6  and  N_7 
REMARK       I    between atoms: N_7  and  C_8 
REMARK    3  A    between atoms: C_8  and  C_9 
REMARK    4  A    between atoms: C_9  and  N_10 
REMARK    5  A    between atoms: N_14  and  C_15 
REMARK    6  A    between atoms: C_17  and  N_18 
REMARK    7  A    between atoms: N_18  and  C_19 
REMARK    8  A    between atoms: C_26  and  N_27 
REMARK    9  A    between atoms: N_27  and  C_28 
ROOT
HETATM    1  C   UNL     1     -43.777  57.456 -53.465  1.00  0.00     0.756 A 
HETATM    2  N   UNL     1     -43.836  57.173 -54.753  1.00  0.00     0.131 NA
HETATM    3  C   UNL     1     -43.542  55.925 -55.106  1.00  0.00     0.758 A 
HETATM    4  N   UNL     1     -43.183  54.982 -54.246  1.00  0.00     0.131 NA
HETATM    5  C   UNL     1     -43.232  55.321 -52.966  1.00  0.00     0.758 A 
HETATM    6  N   UNL     1     -43.544  56.540 -52.542  1.00  0.00     0.131 NA
ENDROOT
BRANCH   1   7
HETATM    7  N   UNL     1     -43.936  58.766 -53.062  1.00  0.00    -0.210 N 
HETATM    8  C   UNL     1     -45.203  59.450 -53.318  1.00  0.00     0.169 C 
HETATM    9  C   UNL     1     -44.998  60.578 -54.353  1.00  0.00     0.256 C 
HETATM   10  N   UNL     1     -43.876  61.503 -53.872  1.00  0.00    -0.060 N 
HETATM   11  H   UNL     1     -44.133  61.790 -52.920  1.00  0.00     0.280 HD
HETATM   12  C   UNL     1     -42.567  60.709 -53.737  1.00  0.00     0.256 C 
HETATM   13  C   UNL     1     -42.765  59.573 -52.712  1.00  0.00     0.169 C 
BRANCH  10  14
HETATM   14  C   UNL     1     -43.747  62.784 -54.683  1.00  0.00     0.337 C 
BRANCH  14  15
HETATM   15  C   UNL     1     -44.449  62.816 -56.044  1.00  0.00     0.243 C 
HETATM   16  N   UNL     1     -43.818  62.071 -57.014  1.00  0.00    -0.355 N 
HETATM   17  H   UNL     1     -42.881  61.714 -56.873  1.00  0.00     0.162 HD
HETATM   18  O   UNL     1     -45.496  63.429 -56.226  1.00  0.00    -0.272 OA
BRANCH  16  19
HETATM   19  C   UNL     1     -44.331  61.984 -58.369  1.00  0.00     0.161 C 
BRANCH  19  20
HETATM   20  C   UNL     1     -44.855  60.607 -58.675  1.00  0.00    -0.041 A 
HETATM   21  C   UNL     1     -45.388  59.796 -57.664  1.00  0.00     0.009 A 
HETATM   22  C   UNL     1     -45.912  58.536 -57.965  1.00  0.00     0.007 A 
HETATM   23  C   UNL     1     -45.908  58.061 -59.280  1.00  0.00    -0.062 A 
HETATM   24  C   UNL     1     -46.539  56.740 -59.614  1.00  0.00     0.048 C 
HETATM   25  C   UNL     1     -45.380  58.869 -60.292  1.00  0.00     0.007 A 
HETATM   26  C   UNL     1     -44.849  60.126 -59.991  1.00  0.00     0.009 A 
ENDBRANCH  19  20
ENDBRANCH  16  19
ENDBRANCH  14  15
ENDBRANCH  10  14
ENDBRANCH   1   7
BRANCH   3  27
HETATM   27  N   UNL     1     -43.542  55.557 -56.451  1.00  0.00    -0.187 N 
HETATM   28  H   UNL     1     -44.319  54.935 -56.636  1.00  0.00     0.184 HD
BRANCH  27  29
HETATM   29  C   UNL     1     -43.058  56.231 -57.583  1.00  0.00     0.049 A 
HETATM   30  C   UNL     1     -43.145  55.595 -58.831  1.00  0.00     0.030 A 
HETATM   31  C   UNL     1     -42.660  56.208 -59.989  1.00  0.00     0.002 A 
HETATM   32  C   UNL     1     -42.075  57.469 -59.917  1.00  0.00     0.000 A 
HETATM   33  C   UNL     1     -41.966  58.108 -58.685  1.00  0.00     0.002 A 
HETATM   34  C   UNL     1     -42.440  57.486 -57.527  1.00  0.00     0.030 A 
ENDBRANCH  27  29
ENDBRANCH   3  27
BRANCH   5  35
HETATM   35  N   UNL     1     -42.873  54.327 -52.059  1.00  0.00    -0.187 N 
HETATM   36  H   UNL     1     -43.573  53.599 -52.025  1.00  0.00     0.184 HD
BRANCH  35  37
HETATM   37  C   UNL     1     -41.837  54.238 -51.121  1.00  0.00     0.049 A 
HETATM   38  C   UNL     1     -40.633  53.568 -51.370  1.00  0.00     0.030 A 
HETATM   39  C   UNL     1     -39.643  53.468 -50.388  1.00  0.00     0.002 A 
HETATM   40  C   UNL     1     -39.853  54.018 -49.128  1.00  0.00     0.000 A 
HETATM   41  C   UNL     1     -41.052  54.671 -48.852  1.00  0.00     0.002 A 
HETATM   42  C   UNL     1     -42.033  54.777 -49.842  1.00  0.00     0.030 A 
ENDBRANCH  35  37
ENDBRANCH   5  35
TORSDOF 9
ENDMDL
MODEL 9
REMARK VINA RESULT:      -8.7      3.627     10.194
REMARK  9 active torsions:
REMARK  status: ('A' for Active; 'I' for Inactive)
REMARK    1  A    between atoms: C_5  and  C_6 
REMARK    2  A    between atoms: C_6  and  N_7 
REMARK       I    between atoms: N_7  and  C_8 
REMARK    3  A    between atoms: C_8  and  C_9 
REMARK    4  A    between atoms: C_9  and  N_10 
REMARK    5  A    between atoms: N_14  and  C_15 
REMARK    6  A    between atoms: C_17  and  N_18 
REMARK    7  A    between atoms: N_18  and  C_19 
REMARK    8  A    between atoms: C_26  and  N_27 
REMARK    9  A    between atoms: N_27  and  C_28 
ROOT
HETATM    1  C   UNL     1     -42.805  55.738 -52.761  1.00  0.00     0.756 A 
HETATM    2  N   UNL     1     -42.160  54.729 -52.204  1.00  0.00     0.131 NA
HETATM    3  C   UNL     1     -41.396  55.014 -51.154  1.00  0.00     0.758 A 
HETATM    4  N   UNL     1     -41.242  56.237 -50.666  1.00  0.00     0.131 NA
HETATM    5  C   UNL     1     -41.989  57.179 -51.225  1.00  0.00     0.758 A 
HETATM    6  N   UNL     1     -42.794  56.959 -52.257  1.00  0.00     0.131 NA
ENDROOT
BRANCH   1   7
HETATM    7  N   UNL     1     -43.499  55.520 -53.934  1.00  0.00    -0.210 N 
HETATM    8  C   UNL     1     -43.202  54.333 -54.736  1.00  0.00     0.169 C 
HETATM    9  C   UNL     1     -42.552  54.746 -56.075  1.00  0.00     0.256 C 
HETATM   10  N   UNL     1     -43.452  55.766 -56.778  1.00  0.00    -0.060 N 
HETATM   11  H   UNL     1     -44.382  55.335 -56.830  1.00  0.00     0.280 HD
HETATM   12  C   UNL     1     -43.612  57.015 -55.898  1.00  0.00     0.256 C 
HETATM   13  C   UNL     1     -44.253  56.611 -54.554  1.00  0.00     0.169 C 
BRANCH  10  14
HETATM   14  C   UNL     1     -43.039  56.063 -58.212  1.00  0.00     0.337 C 
BRANCH  14  15
HETATM   15  C   UNL     1     -43.698  57.271 -58.886  1.00  0.00     0.243 C 
HETATM   16  N   UNL     1     -42.808  58.246 -59.276  1.00  0.00    -0.355 N 
HETATM   17  H   UNL     1     -41.847  58.235 -58.958  1.00  0.00     0.162 HD
HETATM   18  O   UNL     1     -44.908  57.333 -59.081  1.00  0.00    -0.272 OA
BRANCH  16  19
HETATM   19  C   UNL     1     -43.245  59.467 -59.926  1.00  0.00     0.161 C 
BRANCH  19  20
HETATM   20  C   UNL     1     -42.217  60.560 -59.802  1.00  0.00    -0.041 A 
HETATM   21  C   UNL     1     -41.610  60.842 -58.570  1.00  0.00     0.009 A 
HETATM   22  C   UNL     1     -40.626  61.829 -58.473  1.00  0.00     0.007 A 
HETATM   23  C   UNL     1     -40.233  62.555 -59.602  1.00  0.00    -0.062 A 
HETATM   24  C   UNL     1     -39.123  63.561 -59.512  1.00  0.00     0.048 C 
HETATM   25  C   UNL     1     -40.834  62.273 -60.833  1.00  0.00     0.007 A 
HETATM   26  C   UNL     1     -41.825  61.292 -60.930  1.00  0.00     0.009 A 
ENDBRANCH  19  20
ENDBRANCH  16  19
ENDBRANCH  14  15
ENDBRANCH  10  14
ENDBRANCH   1   7
BRANCH   3  27
HETATM   27  N   UNL     1     -40.651  54.011 -50.535  1.00  0.00    -0.187 N 
HETATM   28  H   UNL     1     -40.738  54.090 -49.530  1.00  0.00     0.184 HD
BRANCH  27  29
HETATM   29  C   UNL     1     -40.287  52.733 -50.986  1.00  0.00     0.049 A 
HETATM   30  C   UNL     1     -39.926  52.574 -52.333  1.00  0.00     0.030 A 
HETATM   31  C   UNL     1     -39.574  51.321 -52.843  1.00  0.00     0.002 A 
HETATM   32  C   UNL     1     -39.581  50.204 -52.012  1.00  0.00     0.000 A 
HETATM   33  C   UNL     1     -39.952  50.340 -50.677  1.00  0.00     0.002 A 
HETATM   34  C   UNL     1     -40.316  51.593 -50.174  1.00  0.00     0.030 A 
ENDBRANCH  27  29
ENDBRANCH   3  27
BRANCH   5  35
HETATM   35  N   UNL     1     -41.843  58.461 -50.702  1.00  0.00    -0.187 N 
HETATM   36  H   UNL     1     -41.370  58.436 -49.810  1.00  0.00     0.184 HD
BRANCH  35  37
HETATM   37  C   UNL     1     -42.346  59.704 -51.104  1.00  0.00     0.049 A 
HETATM   38  C   UNL     1     -42.407  60.110 -52.443  1.00  0.00     0.030 A 
HETATM   39  C   UNL     1     -42.878  61.378 -52.795  1.00  0.00     0.002 A 
HETATM   40  C   UNL     1     -43.275  62.274 -51.807  1.00  0.00     0.000 A 
HETATM   41  C   UNL     1     -43.204  61.898 -50.468  1.00  0.00     0.002 A 
HETATM   42  C   UNL     1     -42.743  60.625 -50.123  1.00  0.00     0.030 A 
ENDBRANCH  35  37
ENDBRANCH   5  35
TORSDOF 9
ENDMDL
MODEL 10
REMARK VINA RESULT:      -8.7      4.267      9.921
REMARK  9 active torsions:
REMARK  status: ('A' for Active; 'I' for Inactive)
REMARK    1  A    between atoms: C_5  and  C_6 
REMARK    2  A    between atoms: C_6  and  N_7 
REMARK       I    between atoms: N_7  and  C_8 
REMARK    3  A    between atoms: C_8  and  C_9 
REMARK    4  A    between atoms: C_9  and  N_10 
REMARK    5  A    between atoms: N_14  and  C_15 
REMARK    6  A    between atoms: C_17  and  N_18 
REMARK    7  A    between atoms: N_18  and  C_19 
REMARK    8  A    between atoms: C_26  and  N_27 
REMARK    9  A    between atoms: N_27  and  C_28 
ROOT
HETATM    1  C   UNL     1     -42.451  56.688 -56.386  1.00  0.00     0.756 A 
HETATM    2  N   UNL     1     -42.471  57.688 -55.524  1.00  0.00     0.131 NA
HETATM    3  C   UNL     1     -42.475  57.367 -54.234  1.00  0.00     0.758 A 
HETATM    4  N   UNL     1     -42.479  56.119 -53.786  1.00  0.00     0.131 NA
HETATM    5  C   UNL     1     -42.370  55.175 -54.710  1.00  0.00     0.758 A 
HETATM    6  N   UNL     1     -42.333  55.426 -56.013  1.00  0.00     0.131 NA
ENDROOT
BRANCH   1   7
HETATM    7  N   UNL     1     -42.587  56.964 -57.731  1.00  0.00    -0.210 N 
HETATM    8  C   UNL     1     -41.998  58.185 -58.279  1.00  0.00     0.169 C 
HETATM    9  C   UNL     1     -43.111  59.154 -58.733  1.00  0.00     0.256 C 
HETATM   10  N   UNL     1     -44.050  58.425 -59.700  1.00  0.00    -0.060 N 
HETATM   11  H   UNL     1     -43.450  58.033 -60.436  1.00  0.00     0.280 HD
HETATM   12  C   UNL     1     -44.694  57.223 -58.994  1.00  0.00     0.256 C 
HETATM   13  C   UNL     1     -43.589  56.253 -58.528  1.00  0.00     0.169 C 
BRANCH  10  14
HETATM   14  C   UNL     1     -45.041  59.341 -60.402  1.00  0.00     0.337 C 
BRANCH  14  15
HETATM   15  C   UNL     1     -44.458  60.399 -61.344  1.00  0.00     0.243 C 
HETATM   16  N   UNL     1     -43.126  60.212 -61.637  1.00  0.00    -0.355 N 
HETATM   17  H   UNL     1     -42.563  59.554 -61.112  1.00  0.00     0.162 HD
HETATM   18  O   UNL     1     -45.139  61.306 -61.812  1.00  0.00    -0.272 OA
BRANCH  16  19
HETATM   19  C   UNL     1     -42.398  61.115 -62.508  1.00  0.00     0.161 C 
BRANCH  19  20
HETATM   20  C   UNL     1     -41.378  61.918 -61.746  1.00  0.00    -0.041 A 
HETATM   21  C   UNL     1     -41.295  61.839 -60.349  1.00  0.00     0.009 A 
HETATM   22  C   UNL     1     -40.317  62.554 -59.653  1.00  0.00     0.007 A 
HETATM   23  C   UNL     1     -39.407  63.365 -60.340  1.00  0.00    -0.062 A 
HETATM   24  C   UNL     1     -38.310  64.074 -59.600  1.00  0.00     0.048 C 
HETATM   25  C   UNL     1     -39.485  63.443 -61.734  1.00  0.00     0.007 A 
HETATM   26  C   UNL     1     -40.468  62.734 -62.430  1.00  0.00     0.009 A 
ENDBRANCH  19  20
ENDBRANCH  16  19
ENDBRANCH  14  15
ENDBRANCH  10  14
ENDBRANCH   1   7
BRANCH   3  27
HETATM   27  N   UNL     1     -42.536  58.365 -53.263  1.00  0.00    -0.187 N 
HETATM   28  H   UNL     1     -43.499  58.518 -52.987  1.00  0.00     0.184 HD
BRANCH  27  29
HETATM   29  C   UNL     1     -41.590  58.771 -52.309  1.00  0.00     0.049 A 
HETATM   30  C   UNL     1     -42.048  59.268 -51.079  1.00  0.00     0.030 A 
HETATM   31  C   UNL     1     -41.153  59.707 -50.099  1.00  0.00     0.002 A 
HETATM   32  C   UNL     1     -39.782  59.657 -50.335  1.00  0.00     0.000 A 
HETATM   33  C   UNL     1     -39.311  59.182 -51.556  1.00  0.00     0.002 A 
HETATM   34  C   UNL     1     -40.209  58.757 -52.538  1.00  0.00     0.030 A 
ENDBRANCH  27  29
ENDBRANCH   3  27
BRANCH   5  35
HETATM   35  N   UNL     1     -42.354  53.864 -54.241  1.00  0.00    -0.187 N 
HETATM   36  H   UNL     1     -43.265  53.436 -54.333  1.00  0.00     0.184 HD
BRANCH  35  37
HETATM   37  C   UNL     1     -41.384  53.120 -53.559  1.00  0.00     0.049 A 
HETATM   38  C   UNL     1     -40.991  53.396 -52.244  1.00  0.00     0.030 A 
HETATM   39  C   UNL     1     -39.986  52.653 -51.617  1.00  0.00     0.002 A 
HETATM   40  C   UNL     1     -39.339  51.633 -52.308  1.00  0.00     0.000 A 
HETATM   41  C   UNL     1     -39.700  51.356 -53.623  1.00  0.00     0.002 A 
HETATM   42  C   UNL     1     -40.713  52.095 -54.241  1.00  0.00     0.030 A 
ENDBRANCH  35  37
ENDBRANCH   5  35
TORSDOF 9
ENDMDL
