MODEL 1
REMARK VINA RESULT:      -8.1      0.000      0.000
REMARK  6 active torsions:
REMARK  status: ('A' for Active; 'I' for Inactive)
REMARK    1  A    between atoms: C_2  and  N_3 
REMARK    2  A    between atoms: C_5  and  C_6 
REMARK    3  A    between atoms: C_6  and  N_7 
REMARK       I    between atoms: N_7  and  C_8 
REMARK    4  A    between atoms: C_8  and  C_9 
REMARK    5  A    between atoms: C_9  and  C_10 
REMARK    6  A    between atoms: C_11  and  C_12 
ROOT
HETATM    1  C   UNL     1     -41.372  56.197 -52.497  1.00  0.00     0.005 A 
HETATM    2  C   UNL     1     -41.202  54.914 -51.972  1.00  0.00     0.069 A 
HETATM    3  N   UNL     1     -41.581  55.029 -50.653  1.00  0.00    -0.277 N 
HETATM    4  H   UNL     1     -41.586  54.306 -49.944  1.00  0.00     0.189 HD
HETATM    5  N   UNL     1     -41.972  56.254 -50.292  1.00  0.00    -0.179 NA
HETATM    6  C   UNL     1     -41.934  56.956 -51.424  1.00  0.00     0.059 A 
HETATM    7  C   UNL     1     -42.432  58.357 -51.417  1.00  0.00     0.073 C 
ENDROOT
BRANCH   1   8
HETATM    8  C   UNL     1     -41.096  56.713 -53.875  1.00  0.00     0.146 C 
BRANCH   8   9
HETATM    9  C   UNL     1     -42.223  56.332 -54.829  1.00  0.00     0.222 C 
HETATM   10  N   UNL     1     -41.854  55.716 -56.003  1.00  0.00    -0.359 N 
HETATM   11  H   UNL     1     -40.874  55.739 -56.262  1.00  0.00     0.162 HD
HETATM   12  O   UNL     1     -43.417  56.472 -54.561  1.00  0.00    -0.273 OA
BRANCH  10  13
HETATM   13  C   UNL     1     -42.819  55.336 -57.031  1.00  0.00     0.155 C 
BRANCH  13  14
HETATM   14  C   UNL     1     -43.126  56.404 -58.119  1.00  0.00     0.206 C 
HETATM   15  N   UNL     1     -44.609  56.778 -58.153  1.00  0.00    -0.066 N 
HETATM   16  H   UNL     1     -45.104  56.073 -57.566  1.00  0.00     0.280 HD
HETATM   17  C   UNL     1     -45.104  56.577 -59.563  1.00  0.00     0.235 C 
HETATM   18  C   UNL     1     -44.148  55.559 -60.142  1.00  0.00     0.030 C 
HETATM   19  C   UNL     1     -42.812  55.953 -59.546  1.00  0.00     0.036 C 
BRANCH  15  20
HETATM   20  C   UNL     1     -44.934  58.108 -57.539  1.00  0.00     0.231 C 
HETATM   21  C   UNL     1     -43.676  58.943 -57.378  1.00  0.00     0.034 C 
ENDBRANCH  15  20
ENDBRANCH  13  14
ENDBRANCH  10  13
ENDBRANCH   8   9
ENDBRANCH   1   8
BRANCH   2  22
HETATM   22  C   UNL     1     -40.757  53.624 -52.520  1.00  0.00    -0.007 A 
HETATM   23  C   UNL     1     -41.151  53.181 -53.789  1.00  0.00     0.015 A 
HETATM   24  C   UNL     1     -40.698  51.962 -54.308  1.00  0.00     0.024 A 
HETATM   25  C   UNL     1     -39.835  51.168 -53.562  1.00  0.00     0.034 A 
HETATM   26 CL   UNL     1     -39.267  49.680 -54.206  1.00  0.00    -0.084 Cl
HETATM   27  C   UNL     1     -39.434  51.578 -52.297  1.00  0.00     0.024 A 
HETATM   28  C   UNL     1     -39.896  52.794 -51.779  1.00  0.00     0.015 A 
ENDBRANCH   2  22
TORSDOF 6
ENDMDL
MODEL 2
REMARK VINA RESULT:      -7.9      1.344      1.935
REMARK  6 active torsions:
REMARK  status: ('A' for Active; 'I' for Inactive)
REMARK    1  A    between atoms: C_2  and  N_3 
REMARK    2  A    between atoms: C_5  and  C_6 
REMARK    3  A    between atoms: C_6  and  N_7 
REMARK       I    between atoms: N_7  and  C_8 
REMARK    4  A    between atoms: C_8  and  C_9 
REMARK    5  A    between atoms: C_9  and  C_10 
REMARK    6  A    between atoms: C_11  and  C_12 
ROOT
HETATM    1  C   UNL     1     -43.069  55.595 -53.321  1.00  0.00     0.005 A 
HETATM    2  C   UNL     1     -42.075  54.851 -52.681  1.00  0.00     0.069 A 
HETATM    3  N   UNL     1     -41.824  55.541 -51.517  1.00  0.00    -0.277 N 
HETATM    4  H   UNL     1     -41.152  55.312 -50.793  1.00  0.00     0.189 HD
HETATM    5  N   UNL     1     -42.556  56.646 -51.356  1.00  0.00    -0.179 NA
HETATM    6  C   UNL     1     -43.381  56.647 -52.403  1.00  0.00     0.059 A 
HETATM    7  C   UNL     1     -44.439  57.688 -52.483  1.00  0.00     0.073 C 
ENDROOT
BRANCH   1   8
HETATM    8  C   UNL     1     -43.736  55.370 -54.642  1.00  0.00     0.146 C 
BRANCH   8   9
HETATM    9  C   UNL     1     -43.242  56.377 -55.674  1.00  0.00     0.222 C 
HETATM   10  N   UNL     1     -44.197  57.172 -56.265  1.00  0.00    -0.359 N 
HETATM   11  H   UNL     1     -45.170  56.910 -56.146  1.00  0.00     0.162 HD
HETATM   12  O   UNL     1     -42.051  56.562 -55.930  1.00  0.00    -0.273 OA
BRANCH  10  13
HETATM   13  C   UNL     1     -43.879  58.149 -57.302  1.00  0.00     0.155 C 
BRANCH  13  14
HETATM   14  C   UNL     1     -44.169  57.720 -58.768  1.00  0.00     0.206 C 
HETATM   15  N   UNL     1     -45.242  56.633 -58.845  1.00  0.00    -0.066 N 
HETATM   16  H   UNL     1     -45.384  56.290 -57.871  1.00  0.00     0.280 HD
HETATM   17  C   UNL     1     -44.670  55.474 -59.622  1.00  0.00     0.235 C 
HETATM   18  C   UNL     1     -43.176  55.622 -59.450  1.00  0.00     0.030 C 
HETATM   19  C   UNL     1     -42.964  57.122 -59.496  1.00  0.00     0.036 C 
BRANCH  15  20
HETATM   20  C   UNL     1     -46.589  57.112 -59.300  1.00  0.00     0.231 C 
HETATM   21  C   UNL     1     -47.087  56.279 -60.467  1.00  0.00     0.034 C 
ENDBRANCH  15  20
ENDBRANCH  13  14
ENDBRANCH  10  13
ENDBRANCH   8   9
ENDBRANCH   1   8
BRANCH   2  22
HETATM   22  C   UNL     1     -41.354  53.607 -52.994  1.00  0.00    -0.007 A 
HETATM   23  C   UNL     1     -41.499  52.954 -54.224  1.00  0.00     0.015 A 
HETATM   24  C   UNL     1     -40.786  51.785 -54.517  1.00  0.00     0.024 A 
HETATM   25  C   UNL     1     -39.909  51.254 -53.578  1.00  0.00     0.034 A 
HETATM   26 CL   UNL     1     -39.022  49.830 -53.945  1.00  0.00    -0.084 Cl
HETATM   27  C   UNL     1     -39.751  51.877 -52.346  1.00  0.00     0.024 A 
HETATM   28  C   UNL     1     -40.472  53.041 -52.055  1.00  0.00     0.015 A 
ENDBRANCH   2  22
TORSDOF 6
ENDMDL
MODEL 3
REMARK VINA RESULT:      -7.8      0.784      1.665
REMARK  6 active torsions:
REMARK  status: ('A' for Active; 'I' for Inactive)
REMARK    1  A    between atoms: C_2  and  N_3 
REMARK    2  A    between atoms: C_5  and  C_6 
REMARK    3  A    between atoms: C_6  and  N_7 
REMARK       I    between atoms: N_7  and  C_8 
REMARK    4  A    between atoms: C_8  and  C_9 
REMARK    5  A    between atoms: C_9  and  C_10 
REMARK    6  A    between atoms: C_11  and  C_12 
ROOT
HETATM    1  C   UNL     1     -41.349  56.128 -52.476  1.00  0.00     0.005 A 
HETATM    2  C   UNL     1     -41.137  54.855 -51.942  1.00  0.00     0.069 A 
HETATM    3  N   UNL     1     -41.510  54.970 -50.621  1.00  0.00    -0.277 N 
HETATM    4  H   UNL     1     -41.488  54.252 -49.906  1.00  0.00     0.189 HD
HETATM    5  N   UNL     1     -41.933  56.186 -50.267  1.00  0.00    -0.179 NA
HETATM    6  C   UNL     1     -41.925  56.880 -51.404  1.00  0.00     0.059 A 
HETATM    7  C   UNL     1     -42.464  58.265 -51.405  1.00  0.00     0.073 C 
ENDROOT
BRANCH   1   8
HETATM    8  C   UNL     1     -41.099  56.641 -53.860  1.00  0.00     0.146 C 
BRANCH   8   9
HETATM    9  C   UNL     1     -42.245  56.262 -54.791  1.00  0.00     0.222 C 
HETATM   10  N   UNL     1     -41.917  56.013 -56.104  1.00  0.00    -0.359 N 
HETATM   11  H   UNL     1     -40.995  56.294 -56.422  1.00  0.00     0.162 HD
HETATM   12  O   UNL     1     -43.404  56.092 -54.408  1.00  0.00    -0.273 OA
BRANCH  10  13
HETATM   13  C   UNL     1     -42.915  55.685 -57.118  1.00  0.00     0.155 C 
BRANCH  13  14
HETATM   14  C   UNL     1     -43.469  56.874 -57.952  1.00  0.00     0.206 C 
HETATM   15  N   UNL     1     -43.752  56.475 -59.402  1.00  0.00    -0.066 N 
HETATM   16  H   UNL     1     -43.311  55.540 -59.540  1.00  0.00     0.280 HD
HETATM   17  C   UNL     1     -43.005  57.431 -60.298  1.00  0.00     0.235 C 
HETATM   18  C   UNL     1     -41.875  57.936 -59.430  1.00  0.00     0.030 C 
HETATM   19  C   UNL     1     -42.513  58.062 -58.062  1.00  0.00     0.036 C 
BRANCH  15  20
HETATM   20  C   UNL     1     -45.204  56.285 -59.728  1.00  0.00     0.231 C 
HETATM   21  C   UNL     1     -46.042  57.375 -59.084  1.00  0.00     0.034 C 
ENDBRANCH  15  20
ENDBRANCH  13  14
ENDBRANCH  10  13
ENDBRANCH   8   9
ENDBRANCH   1   8
BRANCH   2  22
HETATM   22  C   UNL     1     -40.659  53.574 -52.484  1.00  0.00    -0.007 A 
HETATM   23  C   UNL     1     -39.858  52.704 -51.735  1.00  0.00     0.015 A 
HETATM   24  C   UNL     1     -39.431  51.476 -52.255  1.00  0.00     0.024 A 
HETATM   25  C   UNL     1     -39.808  51.098 -53.538  1.00  0.00     0.034 A 
HETATM   26 CL   UNL     1     -39.298  49.584 -54.170  1.00  0.00    -0.084 Cl
HETATM   27  C   UNL     1     -40.596  51.945 -54.308  1.00  0.00     0.024 A 
HETATM   28  C   UNL     1     -41.013  53.175 -53.786  1.00  0.00     0.015 A 
ENDBRANCH   2  22
TORSDOF 6
ENDMDL
MODEL 4
REMARK VINA RESULT:      -7.6      1.867      2.920
REMARK  6 active torsions:
REMARK  status: ('A' for Active; 'I' for Inactive)
REMARK    1  A    between atoms: C_2  and  N_3 
REMARK    2  A    between atoms: C_5  and  C_6 
REMARK    3  A    between atoms: C_6  and  N_7 
REMARK       I    between atoms: N_7  and  C_8 
REMARK    4  A    between atoms: C_8  and  C_9 
REMARK    5  A    between atoms: C_9  and  C_10 
REMARK    6  A    between atoms: C_11  and  C_12 
ROOT
HETATM    1  C   UNL     1     -42.392  57.857 -52.943  1.00  0.00     0.005 A 
HETATM    2  C   UNL     1     -41.257  57.113 -53.272  1.00  0.00     0.069 A 
HETATM    3  N   UNL     1     -40.235  58.036 -53.289  1.00  0.00    -0.277 N 
HETATM    4  H   UNL     1     -39.256  57.873 -53.499  1.00  0.00     0.189 HD
HETATM    5  N   UNL     1     -40.609  59.286 -53.006  1.00  0.00    -0.179 NA
HETATM    6  C   UNL     1     -41.903  59.180 -52.707  1.00  0.00     0.059 A 
HETATM    7  C   UNL     1     -42.628  60.382 -52.217  1.00  0.00     0.073 C 
ENDROOT
BRANCH   1   8
HETATM    8  C   UNL     1     -43.817  57.420 -52.802  1.00  0.00     0.146 C 
BRANCH   8   9
HETATM    9  C   UNL     1     -44.426  57.119 -54.166  1.00  0.00     0.222 C 
HETATM   10  N   UNL     1     -44.988  58.180 -54.839  1.00  0.00    -0.359 N 
HETATM   11  H   UNL     1     -45.155  59.035 -54.318  1.00  0.00     0.162 HD
HETATM   12  O   UNL     1     -44.362  56.015 -54.711  1.00  0.00    -0.273 OA
BRANCH  10  13
HETATM   13  C   UNL     1     -45.648  58.032 -56.133  1.00  0.00     0.155 C 
BRANCH  13  14
HETATM   14  C   UNL     1     -44.741  58.162 -57.390  1.00  0.00     0.206 C 
HETATM   15  N   UNL     1     -44.359  56.796 -57.964  1.00  0.00    -0.066 N 
HETATM   16  H   UNL     1     -44.636  56.089 -57.249  1.00  0.00     0.280 HD
HETATM   17  C   UNL     1     -42.855  56.739 -58.055  1.00  0.00     0.235 C 
HETATM   18  C   UNL     1     -42.389  57.736 -57.019  1.00  0.00     0.030 C 
HETATM   19  C   UNL     1     -43.404  58.856 -57.129  1.00  0.00     0.036 C 
BRANCH  15  20
HETATM   20  C   UNL     1     -45.097  56.413 -59.213  1.00  0.00     0.231 C 
HETATM   21  C   UNL     1     -44.319  55.370 -59.993  1.00  0.00     0.034 C 
ENDBRANCH  15  20
ENDBRANCH  13  14
ENDBRANCH  10  13
ENDBRANCH   8   9
ENDBRANCH   1   8
BRANCH   2  22
HETATM   22  C   UNL     1     -40.998  55.693 -53.553  1.00  0.00    -0.007 A 
HETATM   23  C   UNL     1     -40.607  55.247 -54.821  1.00  0.00     0.015 A 
HETATM   24  C   UNL     1     -40.340  53.894 -55.067  1.00  0.00     0.024 A 
HETATM   25  C   UNL     1     -40.456  52.966 -54.039  1.00  0.00     0.034 A 
HETATM   26 CL   UNL     1     -40.112  51.310 -54.337  1.00  0.00    -0.084 Cl
HETATM   27  C   UNL     1     -40.850  53.379 -52.772  1.00  0.00     0.024 A 
HETATM   28  C   UNL     1     -41.124  54.731 -52.534  1.00  0.00     0.015 A 
ENDBRANCH   2  22
TORSDOF 6
ENDMDL
MODEL 5
REMARK VINA RESULT:      -7.5      2.194      2.917
REMARK  6 active torsions:
REMARK  status: ('A' for Active; 'I' for Inactive)
REMARK    1  A    between atoms: C_2  and  N_3 
REMARK    2  A    between atoms: C_5  and  C_6 
REMARK    3  A    between atoms: C_6  and  N_7 
REMARK       I    between atoms: N_7  and  C_8 
REMARK    4  A    between atoms: C_8  and  C_9 
REMARK    5  A    between atoms: C_9  and  C_10 
REMARK    6  A    between atoms: C_11  and  C_12 
ROOT
HETATM    1  C   UNL     1     -42.174  57.819 -54.535  1.00  0.00     0.005 A 
HETATM    2  C   UNL     1     -41.160  57.054 -53.953  1.00  0.00     0.069 A 
HETATM    3  N   UNL     1     -40.325  57.979 -53.366  1.00  0.00    -0.277 N 
HETATM    4  H   UNL     1     -39.468  57.803 -52.854  1.00  0.00     0.189 HD
HETATM    5  N   UNL     1     -40.707  59.249 -53.520  1.00  0.00    -0.179 NA
HETATM    6  C   UNL     1     -41.876  59.165 -54.153  1.00  0.00     0.059 A 
HETATM    7  C   UNL     1     -42.660  60.407 -54.382  1.00  0.00     0.073 C 
ENDROOT
BRANCH   1   8
HETATM    8  C   UNL     1     -43.357  57.387 -55.342  1.00  0.00     0.146 C 
BRANCH   8   9
HETATM    9  C   UNL     1     -42.953  57.108 -56.785  1.00  0.00     0.222 C 
HETATM   10  N   UNL     1     -43.706  56.179 -57.467  1.00  0.00    -0.359 N 
HETATM   11  H   UNL     1     -44.333  55.591 -56.929  1.00  0.00     0.162 HD
HETATM   12  O   UNL     1     -42.062  57.723 -57.374  1.00  0.00    -0.273 OA
BRANCH  10  13
HETATM   13  C   UNL     1     -43.408  55.777 -58.839  1.00  0.00     0.155 C 
BRANCH  13  14
HETATM   14  C   UNL     1     -44.171  56.536 -59.962  1.00  0.00     0.206 C 
HETATM   15  N   UNL     1     -44.513  57.970 -59.555  1.00  0.00    -0.066 N 
HETATM   16  H   UNL     1     -44.328  58.037 -58.531  1.00  0.00     0.280 HD
HETATM   17  C   UNL     1     -46.000  58.157 -59.729  1.00  0.00     0.235 C 
HETATM   18  C   UNL     1     -46.557  56.755 -59.629  1.00  0.00     0.030 C 
HETATM   19  C   UNL     1     -45.516  55.912 -60.337  1.00  0.00     0.036 C 
BRANCH  15  20
HETATM   20  C   UNL     1     -43.652  59.023 -60.187  1.00  0.00     0.231 C 
HETATM   21  C   UNL     1     -44.481  59.922 -61.087  1.00  0.00     0.034 C 
ENDBRANCH  15  20
ENDBRANCH  13  14
ENDBRANCH  10  13
ENDBRANCH   8   9
ENDBRANCH   1   8
BRANCH   2  22
HETATM   22  C   UNL     1     -40.877  55.614 -53.861  1.00  0.00    -0.007 A 
HETATM   23  C   UNL     1     -41.081  54.891 -52.679  1.00  0.00     0.015 A 
HETATM   24  C   UNL     1     -40.831  53.515 -52.614  1.00  0.00     0.024 A 
HETATM   25  C   UNL     1     -40.376  52.839 -53.740  1.00  0.00     0.034 A 
HETATM   26 CL   UNL     1     -40.086  51.147 -53.665  1.00  0.00    -0.084 Cl
HETATM   27  C   UNL     1     -40.157  53.531 -54.925  1.00  0.00     0.024 A 
HETATM   28  C   UNL     1     -40.401  54.909 -54.982  1.00  0.00     0.015 A 
ENDBRANCH   2  22
TORSDOF 6
ENDMDL
MODEL 6
REMARK VINA RESULT:      -7.4      2.855      6.950
REMARK  6 active torsions:
REMARK  status: ('A' for Active; 'I' for Inactive)
REMARK    1  A    between atoms: C_2  and  N_3 
REMARK    2  A    between atoms: C_5  and  C_6 
REMARK    3  A    between atoms: C_6  and  N_7 
REMARK       I    between atoms: N_7  and  C_8 
REMARK    4  A    between atoms: C_8  and  C_9 
REMARK    5  A    between atoms: C_9  and  C_10 
REMARK    6  A    between atoms: C_11  and  C_12 
ROOT
HETATM    1  C   UNL     1     -43.450  57.811 -55.124  1.00  0.00     0.005 A 
HETATM    2  C   UNL     1     -43.156  57.913 -56.486  1.00  0.00     0.069 A 
HETATM    3  N   UNL     1     -42.208  58.909 -56.560  1.00  0.00    -0.277 N 
HETATM    4  H   UNL     1     -41.756  59.274 -57.390  1.00  0.00     0.189 HD
HETATM    5  N   UNL     1     -41.874  59.446 -55.384  1.00  0.00    -0.179 NA
HETATM    6  C   UNL     1     -42.556  58.730 -54.491  1.00  0.00     0.059 A 
HETATM    7  C   UNL     1     -42.325  58.979 -53.044  1.00  0.00     0.073 C 
ENDROOT
BRANCH   1   8
HETATM    8  C   UNL     1     -44.429  56.926 -54.418  1.00  0.00     0.146 C 
BRANCH   8   9
HETATM    9  C   UNL     1     -43.804  55.571 -54.105  1.00  0.00     0.222 C 
HETATM   10  N   UNL     1     -43.479  55.331 -52.790  1.00  0.00    -0.359 N 
HETATM   11  H   UNL     1     -43.474  56.120 -52.152  1.00  0.00     0.162 HD
HETATM   12  O   UNL     1     -43.660  54.679 -54.943  1.00  0.00    -0.273 OA
BRANCH  10  13
HETATM   13  C   UNL     1     -42.834  54.098 -52.349  1.00  0.00     0.155 C 
BRANCH  13  14
HETATM   14  C   UNL     1     -41.283  54.054 -52.457  1.00  0.00     0.206 C 
HETATM   15  N   UNL     1     -40.799  52.860 -53.282  1.00  0.00    -0.066 N 
HETATM   16  H   UNL     1     -41.625  52.238 -53.410  1.00  0.00     0.280 HD
HETATM   17  C   UNL     1     -39.814  52.087 -52.441  1.00  0.00     0.235 C 
HETATM   18  C   UNL     1     -40.190  52.444 -51.020  1.00  0.00     0.030 C 
HETATM   19  C   UNL     1     -40.566  53.908 -51.114  1.00  0.00     0.036 C 
BRANCH  15  20
HETATM   20  C   UNL     1     -40.335  53.202 -54.667  1.00  0.00     0.231 C 
HETATM   21  C   UNL     1     -40.188  54.705 -54.825  1.00  0.00     0.034 C 
ENDBRANCH  15  20
ENDBRANCH  13  14
ENDBRANCH  10  13
ENDBRANCH   8   9
ENDBRANCH   1   8
BRANCH   2  22
HETATM   22  C   UNL     1     -43.619  57.218 -57.697  1.00  0.00    -0.007 A 
HETATM   23  C   UNL     1     -42.930  56.125 -58.235  1.00  0.00     0.015 A 
HETATM   24  C   UNL     1     -43.397  55.457 -59.374  1.00  0.00     0.024 A 
HETATM   25  C   UNL     1     -44.571  55.875 -59.990  1.00  0.00     0.034 A 
HETATM   26 CL   UNL     1     -45.152  55.045 -61.377  1.00  0.00    -0.084 Cl
HETATM   27  C   UNL     1     -45.272  56.962 -59.483  1.00  0.00     0.024 A 
HETATM   28  C   UNL     1     -44.796  57.631 -58.349  1.00  0.00     0.015 A 
ENDBRANCH   2  22
TORSDOF 6
ENDMDL
MODEL 7
REMARK VINA RESULT:      -7.3      1.947      2.717
REMARK  6 active torsions:
REMARK  status: ('A' for Active; 'I' for Inactive)
REMARK    1  A    between atoms: C_2  and  N_3 
REMARK    2  A    between atoms: C_5  and  C_6 
REMARK    3  A    between atoms: C_6  and  N_7 
REMARK       I    between atoms: N_7  and  C_8 
REMARK    4  A    between atoms: C_8  and  C_9 
REMARK    5  A    between atoms: C_9  and  C_10 
REMARK    6  A    between atoms: C_11  and  C_12 
ROOT
HETATM    1  C   UNL     1     -43.583  57.508 -52.276  1.00  0.00     0.005 A 
HETATM    2  C   UNL     1     -43.489  56.132 -52.049  1.00  0.00     0.069 A 
HETATM    3  N   UNL     1     -44.404  55.885 -51.050  1.00  0.00    -0.277 N 
HETATM    4  H   UNL     1     -44.616  54.997 -50.610  1.00  0.00     0.189 HD
HETATM    5  N   UNL     1     -45.065  56.963 -50.622  1.00  0.00    -0.179 NA
HETATM    6  C   UNL     1     -44.641  57.944 -51.418  1.00  0.00     0.059 A 
HETATM    7  C   UNL     1     -45.271  59.286 -51.302  1.00  0.00     0.073 C 
ENDROOT
BRANCH   1   8
HETATM    8  C   UNL     1     -42.818  58.378 -53.223  1.00  0.00     0.146 C 
BRANCH   8   9
HETATM    9  C   UNL     1     -43.686  58.778 -54.410  1.00  0.00     0.222 C 
HETATM   10  N   UNL     1     -44.177  57.754 -55.187  1.00  0.00    -0.359 N 
HETATM   11  H   UNL     1     -43.775  56.831 -55.062  1.00  0.00     0.162 HD
HETATM   12  O   UNL     1     -44.026  59.939 -54.644  1.00  0.00    -0.273 OA
BRANCH  10  13
HETATM   13  C   UNL     1     -44.984  57.987 -56.381  1.00  0.00     0.155 C 
BRANCH  13  14
HETATM   14  C   UNL     1     -44.283  57.745 -57.748  1.00  0.00     0.206 C 
HETATM   15  N   UNL     1     -45.034  56.724 -58.604  1.00  0.00    -0.066 N 
HETATM   16  H   UNL     1     -45.739  56.277 -57.979  1.00  0.00     0.280 HD
HETATM   17  C   UNL     1     -44.060  55.638 -58.988  1.00  0.00     0.235 C 
HETATM   18  C   UNL     1     -43.005  55.697 -57.908  1.00  0.00     0.030 C 
HETATM   19  C   UNL     1     -42.866  57.180 -57.633  1.00  0.00     0.036 C 
BRANCH  15  20
HETATM   20  C   UNL     1     -45.821  57.315 -59.737  1.00  0.00     0.231 C 
HETATM   21  C   UNL     1     -46.768  56.284 -60.324  1.00  0.00     0.034 C 
ENDBRANCH  15  20
ENDBRANCH  13  14
ENDBRANCH  10  13
ENDBRANCH   8   9
ENDBRANCH   1   8
BRANCH   2  22
HETATM   22  C   UNL     1     -42.691  55.042 -52.631  1.00  0.00    -0.007 A 
HETATM   23  C   UNL     1     -42.852  54.631 -53.959  1.00  0.00     0.015 A 
HETATM   24  C   UNL     1     -42.067  53.609 -54.506  1.00  0.00     0.024 A 
HETATM   25  C   UNL     1     -41.099  52.985 -53.727  1.00  0.00     0.034 A 
HETATM   26 CL   UNL     1     -40.125  51.743 -54.403  1.00  0.00    -0.084 Cl
HETATM   27  C   UNL     1     -40.922  53.367 -52.402  1.00  0.00     0.024 A 
HETATM   28  C   UNL     1     -41.716  54.384 -51.858  1.00  0.00     0.015 A 
ENDBRANCH   2  22
TORSDOF 6
ENDMDL
MODEL 8
REMARK VINA RESULT:      -7.2      1.721      2.595
REMARK  6 active torsions:
REMARK  status: ('A' for Active; 'I' for Inactive)
REMARK    1  A    between atoms: C_2  and  N_3 
REMARK    2  A    between atoms: C_5  and  C_6 
REMARK    3  A    between atoms: C_6  and  N_7 
REMARK       I    between atoms: N_7  and  C_8 
REMARK    4  A    between atoms: C_8  and  C_9 
REMARK    5  A    between atoms: C_9  and  C_10 
REMARK    6  A    between atoms: C_11  and  C_12 
ROOT
HETATM    1  C   UNL     1     -42.856  55.523 -52.410  1.00  0.00     0.005 A 
HETATM    2  C   UNL     1     -41.628  54.898 -52.181  1.00  0.00     0.069 A 
HETATM    3  N   UNL     1     -40.990  55.715 -51.275  1.00  0.00    -0.277 N 
HETATM    4  H   UNL     1     -40.067  55.594 -50.875  1.00  0.00     0.189 HD
HETATM    5  N   UNL     1     -41.689  56.792 -50.909  1.00  0.00    -0.179 NA
HETATM    6  C   UNL     1     -42.862  56.645 -51.523  1.00  0.00     0.059 A 
HETATM    7  C   UNL     1     -43.949  57.618 -51.238  1.00  0.00     0.073 C 
ENDROOT
BRANCH   1   8
HETATM    8  C   UNL     1     -43.976  55.131 -53.323  1.00  0.00     0.146 C 
BRANCH   8   9
HETATM    9  C   UNL     1     -44.075  56.096 -54.499  1.00  0.00     0.222 C 
HETATM   10  N   UNL     1     -43.351  55.773 -55.623  1.00  0.00    -0.359 N 
HETATM   11  H   UNL     1     -42.644  55.050 -55.539  1.00  0.00     0.162 HD
HETATM   12  O   UNL     1     -44.821  57.076 -54.514  1.00  0.00    -0.273 OA
BRANCH  10  13
HETATM   13  C   UNL     1     -43.313  56.624 -56.809  1.00  0.00     0.155 C 
BRANCH  13  14
HETATM   14  C   UNL     1     -42.212  57.723 -56.836  1.00  0.00     0.206 C 
HETATM   15  N   UNL     1     -42.518  58.864 -55.865  1.00  0.00    -0.066 N 
HETATM   16  H   UNL     1     -43.505  58.732 -55.557  1.00  0.00     0.280 HD
HETATM   17  C   UNL     1     -42.488  60.155 -56.645  1.00  0.00     0.235 C 
HETATM   18  C   UNL     1     -42.778  59.727 -58.066  1.00  0.00     0.030 C 
HETATM   19  C   UNL     1     -42.044  58.408 -58.192  1.00  0.00     0.036 C 
BRANCH  15  20
HETATM   20  C   UNL     1     -41.701  58.852 -54.607  1.00  0.00     0.231 C 
HETATM   21  C   UNL     1     -42.174  59.934 -53.652  1.00  0.00     0.034 C 
ENDBRANCH  15  20
ENDBRANCH  13  14
ENDBRANCH  10  13
ENDBRANCH   8   9
ENDBRANCH   1   8
BRANCH   2  22
HETATM   22  C   UNL     1     -40.989  53.667 -52.671  1.00  0.00    -0.007 A 
HETATM   23  C   UNL     1     -40.224  52.844 -51.836  1.00  0.00     0.015 A 
HETATM   24  C   UNL     1     -39.643  51.662 -52.310  1.00  0.00     0.024 A 
HETATM   25  C   UNL     1     -39.825  51.283 -53.635  1.00  0.00     0.034 A 
HETATM   26 CL   UNL     1     -39.126  49.824 -54.212  1.00  0.00    -0.084 Cl
HETATM   27  C   UNL     1     -40.573  52.084 -54.489  1.00  0.00     0.024 A 
HETATM   28  C   UNL     1     -41.145  53.269 -54.012  1.00  0.00     0.015 A 
ENDBRANCH   2  22
TORSDOF 6
ENDMDL
MODEL 9
REMARK VINA RESULT:      -7.2      2.647      4.409
REMARK  6 active torsions:
REMARK  status: ('A' for Active; 'I' for Inactive)
REMARK    1  A    between atoms: C_2  and  N_3 
REMARK    2  A    between atoms: C_5  and  C_6 
REMARK    3  A    between atoms: C_6  and  N_7 
REMARK       I    between atoms: N_7  and  C_8 
REMARK    4  A    between atoms: C_8  and  C_9 
REMARK    5  A    between atoms: C_9  and  C_10 
REMARK    6  A    between atoms: C_11  and  C_12 
ROOT
HETATM    1  C   UNL     1     -40.558  53.643 -53.896  1.00  0.00     0.005 A 
HETATM    2  C   UNL     1     -40.728  54.315 -52.682  1.00  0.00     0.069 A 
HETATM    3  N   UNL     1     -40.593  53.334 -51.725  1.00  0.00    -0.277 N 
HETATM    4  H   UNL     1     -40.663  53.437 -50.719  1.00  0.00     0.189 HD
HETATM    5  N   UNL     1     -40.357  52.113 -52.210  1.00  0.00    -0.179 NA
HETATM    6  C   UNL     1     -40.246  52.298 -53.524  1.00  0.00     0.059 A 
HETATM    7  C   UNL     1     -39.854  51.148 -54.381  1.00  0.00     0.073 C 
ENDROOT
BRANCH   1   8
HETATM    8  C   UNL     1     -40.624  54.165 -55.297  1.00  0.00     0.146 C 
BRANCH   8   9
HETATM    9  C   UNL     1     -42.034  54.638 -55.631  1.00  0.00     0.222 C 
HETATM   10  N   UNL     1     -42.137  55.735 -56.455  1.00  0.00    -0.359 N 
HETATM   11  H   UNL     1     -41.300  56.285 -56.618  1.00  0.00     0.162 HD
HETATM   12  O   UNL     1     -43.053  54.044 -55.274  1.00  0.00    -0.273 OA
BRANCH  10  13
HETATM   13  C   UNL     1     -43.420  56.327 -56.822  1.00  0.00     0.155 C 
BRANCH  13  14
HETATM   14  C   UNL     1     -43.597  56.720 -58.317  1.00  0.00     0.206 C 
HETATM   15  N   UNL     1     -45.071  56.829 -58.711  1.00  0.00    -0.066 N 
HETATM   16  H   UNL     1     -45.616  56.413 -57.925  1.00  0.00     0.280 HD
HETATM   17  C   UNL     1     -45.298  55.934 -59.903  1.00  0.00     0.235 C 
HETATM   18  C   UNL     1     -44.194  54.906 -59.802  1.00  0.00     0.030 C 
HETATM   19  C   UNL     1     -43.010  55.710 -59.304  1.00  0.00     0.036 C 
BRANCH  15  20
HETATM   20  C   UNL     1     -45.580  58.233 -58.852  1.00  0.00     0.231 C 
HETATM   21  C   UNL     1     -46.959  58.240 -59.486  1.00  0.00     0.034 C 
ENDBRANCH  15  20
ENDBRANCH  13  14
ENDBRANCH  10  13
ENDBRANCH   8   9
ENDBRANCH   1   8
BRANCH   2  22
HETATM   22  C   UNL     1     -40.980  55.713 -52.302  1.00  0.00    -0.007 A 
HETATM   23  C   UNL     1     -41.273  56.083 -50.985  1.00  0.00     0.015 A 
HETATM   24  C   UNL     1     -41.486  57.422 -50.633  1.00  0.00     0.024 A 
HETATM   25  C   UNL     1     -41.402  58.415 -51.602  1.00  0.00     0.034 A 
HETATM   26 CL   UNL     1     -41.646  60.059 -51.168  1.00  0.00    -0.084 Cl
HETATM   27  C   UNL     1     -41.120  58.076 -52.920  1.00  0.00     0.024 A 
HETATM   28  C   UNL     1     -40.917  56.735 -53.267  1.00  0.00     0.015 A 
ENDBRANCH   2  22
TORSDOF 6
ENDMDL
MODEL 10
REMARK VINA RESULT:      -7.2      1.587      2.262
REMARK  6 active torsions:
REMARK  status: ('A' for Active; 'I' for Inactive)
REMARK    1  A    between atoms: C_2  and  N_3 
REMARK    2  A    between atoms: C_5  and  C_6 
REMARK    3  A    between atoms: C_6  and  N_7 
REMARK       I    between atoms: N_7  and  C_8 
REMARK    4  A    between atoms: C_8  and  C_9 
REMARK    5  A    between atoms: C_9  and  C_10 
REMARK    6  A    between atoms: C_11  and  C_12 
ROOT
HETATM    1  C   UNL     1     -41.324  57.552 -52.625  1.00  0.00     0.005 A 
HETATM    2  C   UNL     1     -41.356  56.800 -51.448  1.00  0.00     0.069 A 
HETATM    3  N   UNL     1     -41.788  57.686 -50.486  1.00  0.00    -0.277 N 
HETATM    4  H   UNL     1     -41.927  57.509 -49.498  1.00  0.00     0.189 HD
HETATM    5  N   UNL     1     -42.032  58.920 -50.936  1.00  0.00    -0.179 NA
HETATM    6  C   UNL     1     -41.839  58.833 -52.251  1.00  0.00     0.059 A 
HETATM    7  C   UNL     1     -42.146  60.012 -53.102  1.00  0.00     0.073 C 
ENDROOT
BRANCH   1   8
HETATM    8  C   UNL     1     -40.907  57.152 -54.006  1.00  0.00     0.146 C 
BRANCH   8   9
HETATM    9  C   UNL     1     -42.095  56.606 -54.792  1.00  0.00     0.222 C 
HETATM   10  N   UNL     1     -41.830  56.124 -56.053  1.00  0.00    -0.359 N 
HETATM   11  H   UNL     1     -40.929  56.345 -56.464  1.00  0.00     0.162 HD
HETATM   12  O   UNL     1     -43.230  56.505 -54.324  1.00  0.00    -0.273 OA
BRANCH  10  13
HETATM   13  C   UNL     1     -42.873  55.613 -56.936  1.00  0.00     0.155 C 
BRANCH  13  14
HETATM   14  C   UNL     1     -43.210  56.480 -58.182  1.00  0.00     0.206 C 
HETATM   15  N   UNL     1     -44.706  56.785 -58.282  1.00  0.00    -0.066 N 
HETATM   16  H   UNL     1     -45.179  56.163 -57.591  1.00  0.00     0.280 HD
HETATM   17  C   UNL     1     -45.178  56.341 -59.644  1.00  0.00     0.235 C 
HETATM   18  C   UNL     1     -44.177  55.283 -60.049  1.00  0.00     0.030 C 
HETATM   19  C   UNL     1     -42.864  55.821 -59.518  1.00  0.00     0.036 C 
BRANCH  15  20
HETATM   20  C   UNL     1     -45.088  58.181 -57.889  1.00  0.00     0.231 C 
HETATM   21  C   UNL     1     -45.490  58.234 -56.426  1.00  0.00     0.034 C 
ENDBRANCH  15  20
ENDBRANCH  13  14
ENDBRANCH  10  13
ENDBRANCH   8   9
ENDBRANCH   1   8
BRANCH   2  22
HETATM   22  C   UNL     1     -41.056  55.401 -51.107  1.00  0.00    -0.007 A 
HETATM   23  C   UNL     1     -40.654  55.020 -49.822  1.00  0.00     0.015 A 
HETATM   24  C   UNL     1     -40.398  53.680 -49.506  1.00  0.00     0.024 A 
HETATM   25  C   UNL     1     -40.546  52.697 -50.478  1.00  0.00     0.034 A 
HETATM   26 CL   UNL     1     -40.248  51.052 -50.085  1.00  0.00    -0.084 Cl
HETATM   27  C   UNL     1     -40.937  53.048 -51.765  1.00  0.00     0.024 A 
HETATM   28  C   UNL     1     -41.184  54.390 -52.077  1.00  0.00     0.015 A 
ENDBRANCH   2  22
TORSDOF 6
ENDMDL
