MODEL 1
REMARK VINA RESULT:      -9.1      0.000      0.000
REMARK  5 active torsions:
REMARK  status: ('A' for Active; 'I' for Inactive)
REMARK       I    between atoms: C_2  and  N_3 
REMARK    1  A    between atoms: N_3  and  C_4 
REMARK    2  A    between atoms: C_7  and  C_8 
REMARK    3  A    between atoms: C_8  and  N_9 
REMARK    4  A    between atoms: C_12  and  C_13 
REMARK    5  A    between atoms: C_14  and  O_15 
ROOT
HETATM    1  N   UNL     1     -42.558  55.346 -55.340  1.00  0.00    -0.060 N 
HETATM    2  H   UNL     1     -41.776  56.003 -55.441  1.00  0.00     0.280 HD
HETATM    3  C   UNL     1     -41.994  53.965 -54.964  1.00  0.00     0.272 C 
HETATM    4  C   UNL     1     -41.214  53.912 -53.630  1.00  0.00     0.190 C 
HETATM    5  O   UNL     1     -42.104  54.156 -52.527  1.00  0.00    -0.339 OA
HETATM    6  C   UNL     1     -42.093  55.487 -52.217  1.00  0.00     0.077 A 
HETATM    7  C   UNL     1     -42.721  56.404 -53.063  1.00  0.00     0.001 A 
HETATM    8  C   UNL     1     -43.466  55.923 -54.274  1.00  0.00     0.276 C 
HETATM    9  C   UNL     1     -41.445  55.889 -51.052  1.00  0.00     0.037 A 
HETATM   10  C   UNL     1     -41.381  57.243 -50.740  1.00  0.00     0.003 A 
HETATM   11  C   UNL     1     -41.974  58.181 -51.586  1.00  0.00     0.001 A 
HETATM   12  C   UNL     1     -42.646  57.766 -52.740  1.00  0.00     0.012 A 
ENDROOT
BRANCH   1  13
HETATM   13  C   UNL     1     -43.226  55.221 -56.696  1.00  0.00     0.273 C 
BRANCH  13  14
HETATM   14  C   UNL     1     -42.797  56.188 -57.765  1.00  0.00    -0.032 A 
HETATM   15  C   UNL     1     -42.835  55.849 -59.122  1.00  0.00     0.011 A 
HETATM   16  C   UNL     1     -42.502  56.797 -60.101  1.00  0.00     0.030 A 
HETATM   17  C   UNL     1     -42.134  58.097 -59.746  1.00  0.00     0.034 A 
HETATM   18  C   UNL     1     -42.072  58.428 -58.389  1.00  0.00     0.030 A 
HETATM   19  C   UNL     1     -42.400  57.486 -57.409  1.00  0.00     0.011 A 
BRANCH  17  20
HETATM   20  N   UNL     1     -41.846  59.122 -60.669  1.00  0.00    -0.328 N 
HETATM   21  C   UNL     1     -42.725  60.057 -61.188  1.00  0.00     0.218 C 
HETATM   22  C   UNL     1     -42.043  61.078 -62.067  1.00  0.00     0.117 C 
HETATM   23  O   UNL     1     -43.930  60.122 -60.968  1.00  0.00    -0.274 OA
HETATM   24  H   UNL     1     -40.879  59.208 -60.957  1.00  0.00     0.169 HD
ENDBRANCH  17  20
ENDBRANCH  13  14
ENDBRANCH   1  13
BRANCH   4  25
HETATM   25  C   UNL     1     -40.620  52.525 -53.418  1.00  0.00     0.006 A 
HETATM   26  C   UNL     1     -39.954  52.199 -52.222  1.00  0.00     0.077 A 
HETATM   27  C   UNL     1     -39.374  50.935 -52.064  1.00  0.00     0.037 A 
HETATM   28  C   UNL     1     -39.486  49.975 -53.070  1.00  0.00     0.003 A 
HETATM   29  C   UNL     1     -40.186  50.267 -54.235  1.00  0.00     0.001 A 
HETATM   30  C   UNL     1     -40.756  51.529 -54.405  1.00  0.00     0.012 A 
BRANCH  26  31
HETATM   31  O   UNL     1     -39.877  53.180 -51.268  1.00  0.00    -0.355 OA
HETATM   32  C   UNL     1     -40.314  52.793 -49.965  1.00  0.00     0.210 C 
ENDBRANCH  26  31
ENDBRANCH   4  25
TORSDOF 5
ENDMDL
MODEL 2
REMARK VINA RESULT:      -8.8      2.396      2.825
REMARK  5 active torsions:
REMARK  status: ('A' for Active; 'I' for Inactive)
REMARK       I    between atoms: C_2  and  N_3 
REMARK    1  A    between atoms: N_3  and  C_4 
REMARK    2  A    between atoms: C_7  and  C_8 
REMARK    3  A    between atoms: C_8  and  N_9 
REMARK    4  A    between atoms: C_12  and  C_13 
REMARK    5  A    between atoms: C_14  and  O_15 
ROOT
HETATM    1  N   UNL     1     -42.345  56.368 -55.593  1.00  0.00    -0.060 N 
HETATM    2  H   UNL     1     -41.820  57.109 -55.113  1.00  0.00     0.280 HD
HETATM    3  C   UNL     1     -41.706  55.012 -55.250  1.00  0.00     0.272 C 
HETATM    4  C   UNL     1     -41.712  54.640 -53.750  1.00  0.00     0.190 C 
HETATM    5  O   UNL     1     -43.062  54.430 -53.298  1.00  0.00    -0.339 OA
HETATM    6  C   UNL     1     -43.555  55.593 -52.777  1.00  0.00     0.077 A 
HETATM    7  C   UNL     1     -43.892  56.649 -53.628  1.00  0.00     0.001 A 
HETATM    8  C   UNL     1     -43.778  56.483 -55.116  1.00  0.00     0.276 C 
HETATM    9  C   UNL     1     -43.706  55.688 -51.396  1.00  0.00     0.037 A 
HETATM   10  C   UNL     1     -44.163  56.879 -50.840  1.00  0.00     0.003 A 
HETATM   11  C   UNL     1     -44.476  57.957 -51.668  1.00  0.00     0.001 A 
HETATM   12  C   UNL     1     -44.347  57.844 -53.055  1.00  0.00     0.012 A 
ENDROOT
BRANCH   1  13
HETATM   13  C   UNL     1     -42.189  56.592 -57.085  1.00  0.00     0.273 C 
BRANCH  13  14
HETATM   14  C   UNL     1     -43.430  56.487 -57.928  1.00  0.00    -0.032 A 
HETATM   15  C   UNL     1     -44.390  57.504 -57.952  1.00  0.00     0.011 A 
HETATM   16  C   UNL     1     -45.500  57.414 -58.806  1.00  0.00     0.030 A 
HETATM   17  C   UNL     1     -45.666  56.316 -59.654  1.00  0.00     0.034 A 
HETATM   18  C   UNL     1     -44.718  55.289 -59.612  1.00  0.00     0.030 A 
HETATM   19  C   UNL     1     -43.612  55.373 -58.760  1.00  0.00     0.011 A 
BRANCH  17  20
HETATM   20  N   UNL     1     -46.716  56.181 -60.585  1.00  0.00    -0.328 N 
HETATM   21  C   UNL     1     -47.429  57.194 -61.201  1.00  0.00     0.218 C 
HETATM   22  C   UNL     1     -48.409  56.680 -62.229  1.00  0.00     0.117 C 
HETATM   23  O   UNL     1     -47.300  58.397 -61.003  1.00  0.00    -0.274 OA
HETATM   24  H   UNL     1     -46.950  55.235 -60.861  1.00  0.00     0.169 HD
ENDBRANCH  17  20
ENDBRANCH  13  14
ENDBRANCH   1  13
BRANCH   4  25
HETATM   25  C   UNL     1     -40.964  53.332 -53.524  1.00  0.00     0.006 A 
HETATM   26  C   UNL     1     -40.316  53.071 -52.303  1.00  0.00     0.077 A 
HETATM   27  C   UNL     1     -39.595  51.884 -52.131  1.00  0.00     0.037 A 
HETATM   28  C   UNL     1     -39.546  50.932 -53.149  1.00  0.00     0.003 A 
HETATM   29  C   UNL     1     -40.225  51.155 -54.342  1.00  0.00     0.001 A 
HETATM   30  C   UNL     1     -40.935  52.341 -54.525  1.00  0.00     0.012 A 
BRANCH  26  31
HETATM   31  O   UNL     1     -40.400  54.040 -51.336  1.00  0.00    -0.355 OA
HETATM   32  C   UNL     1     -40.845  53.584 -50.058  1.00  0.00     0.210 C 
ENDBRANCH  26  31
ENDBRANCH   4  25
TORSDOF 5
ENDMDL
MODEL 3
REMARK VINA RESULT:      -8.7      2.554      8.492
REMARK  5 active torsions:
REMARK  status: ('A' for Active; 'I' for Inactive)
REMARK       I    between atoms: C_2  and  N_3 
REMARK    1  A    between atoms: N_3  and  C_4 
REMARK    2  A    between atoms: C_7  and  C_8 
REMARK    3  A    between atoms: C_8  and  N_9 
REMARK    4  A    between atoms: C_12  and  C_13 
REMARK    5  A    between atoms: C_14  and  O_15 
ROOT
HETATM    1  N   UNL     1     -42.619  55.860 -56.296  1.00  0.00    -0.060 N 
HETATM    2  H   UNL     1     -41.623  55.983 -56.510  1.00  0.00     0.280 HD
HETATM    3  C   UNL     1     -43.037  56.928 -55.272  1.00  0.00     0.272 C 
HETATM    4  C   UNL     1     -42.878  58.392 -55.741  1.00  0.00     0.190 C 
HETATM    5  O   UNL     1     -43.793  58.669 -56.816  1.00  0.00    -0.339 OA
HETATM    6  C   UNL     1     -43.169  58.456 -58.013  1.00  0.00     0.077 A 
HETATM    7  C   UNL     1     -42.901  57.152 -58.437  1.00  0.00     0.001 A 
HETATM    8  C   UNL     1     -43.358  55.984 -57.612  1.00  0.00     0.276 C 
HETATM    9  C   UNL     1     -42.815  59.563 -58.780  1.00  0.00     0.037 A 
HETATM   10  C   UNL     1     -42.139  59.373 -59.981  1.00  0.00     0.003 A 
HETATM   11  C   UNL     1     -41.832  58.081 -60.409  1.00  0.00     0.001 A 
HETATM   12  C   UNL     1     -42.214  56.974 -59.646  1.00  0.00     0.012 A 
ENDROOT
BRANCH   1  13
HETATM   13  C   UNL     1     -42.779  54.500 -55.643  1.00  0.00     0.273 C 
BRANCH  13  14
HETATM   14  C   UNL     1     -42.351  54.373 -54.207  1.00  0.00    -0.032 A 
HETATM   15  C   UNL     1     -43.282  54.300 -53.166  1.00  0.00     0.011 A 
HETATM   16  C   UNL     1     -42.855  54.104 -51.843  1.00  0.00     0.030 A 
HETATM   17  C   UNL     1     -41.499  53.972 -51.538  1.00  0.00     0.034 A 
HETATM   18  C   UNL     1     -40.568  54.070 -52.576  1.00  0.00     0.030 A 
HETATM   19  C   UNL     1     -40.987  54.267 -53.896  1.00  0.00     0.011 A 
BRANCH  17  20
HETATM   20  N   UNL     1     -40.995  53.711 -50.248  1.00  0.00    -0.328 N 
HETATM   21  C   UNL     1     -40.889  54.598 -49.192  1.00  0.00     0.218 C 
HETATM   22  C   UNL     1     -40.406  53.941 -47.921  1.00  0.00     0.117 C 
HETATM   23  O   UNL     1     -41.174  55.790 -49.213  1.00  0.00    -0.274 OA
HETATM   24  H   UNL     1     -40.713  52.756 -50.062  1.00  0.00     0.169 HD
ENDBRANCH  17  20
ENDBRANCH  13  14
ENDBRANCH   1  13
BRANCH   4  25
HETATM   25  C   UNL     1     -43.223  59.353 -54.611  1.00  0.00     0.006 A 
HETATM   26  C   UNL     1     -42.217  59.894 -53.789  1.00  0.00     0.077 A 
HETATM   27  C   UNL     1     -42.558  60.738 -52.726  1.00  0.00     0.037 A 
HETATM   28  C   UNL     1     -43.889  61.085 -52.498  1.00  0.00     0.003 A 
HETATM   29  C   UNL     1     -44.887  60.599 -53.334  1.00  0.00     0.001 A 
HETATM   30  C   UNL     1     -44.557  59.747 -54.387  1.00  0.00     0.012 A 
BRANCH  26  31
HETATM   31  O   UNL     1     -40.926  59.521 -54.062  1.00  0.00    -0.355 OA
HETATM   32  C   UNL     1     -40.285  58.764 -53.035  1.00  0.00     0.210 C 
ENDBRANCH  26  31
ENDBRANCH   4  25
TORSDOF 5
ENDMDL
MODEL 4
REMARK VINA RESULT:      -8.5      2.030      2.653
REMARK  5 active torsions:
REMARK  status: ('A' for Active; 'I' for Inactive)
REMARK       I    between atoms: C_2  and  N_3 
REMARK    1  A    between atoms: N_3  and  C_4 
REMARK    2  A    between atoms: C_7  and  C_8 
REMARK    3  A    between atoms: C_8  and  N_9 
REMARK    4  A    between atoms: C_12  and  C_13 
REMARK    5  A    between atoms: C_14  and  O_15 
ROOT
HETATM    1  N   UNL     1     -42.635  56.897 -55.915  1.00  0.00    -0.060 N 
HETATM    2  H   UNL     1     -42.112  57.700 -55.546  1.00  0.00     0.280 HD
HETATM    3  C   UNL     1     -41.993  55.606 -55.381  1.00  0.00     0.272 C 
HETATM    4  C   UNL     1     -41.999  55.452 -53.843  1.00  0.00     0.190 C 
HETATM    5  O   UNL     1     -43.348  55.305 -53.366  1.00  0.00    -0.339 OA
HETATM    6  C   UNL     1     -43.844  56.530 -53.016  1.00  0.00     0.077 A 
HETATM    7  C   UNL     1     -44.184  57.452 -54.010  1.00  0.00     0.001 A 
HETATM    8  C   UNL     1     -44.069  57.075 -55.458  1.00  0.00     0.276 C 
HETATM    9  C   UNL     1     -43.995  56.821 -51.664  1.00  0.00     0.037 A 
HETATM   10  C   UNL     1     -44.455  58.078 -51.283  1.00  0.00     0.003 A 
HETATM   11  C   UNL     1     -44.770  59.026 -52.256  1.00  0.00     0.001 A 
HETATM   12  C   UNL     1     -44.641  58.717 -53.614  1.00  0.00     0.012 A 
ENDROOT
BRANCH   1  13
HETATM   13  C   UNL     1     -42.480  56.906 -57.423  1.00  0.00     0.273 C 
BRANCH  13  14
HETATM   14  C   UNL     1     -42.289  58.242 -58.086  1.00  0.00    -0.032 A 
HETATM   15  C   UNL     1     -42.026  59.400 -57.345  1.00  0.00     0.011 A 
HETATM   16  C   UNL     1     -41.776  60.618 -57.995  1.00  0.00     0.030 A 
HETATM   17  C   UNL     1     -41.776  60.701 -59.389  1.00  0.00     0.034 A 
HETATM   18  C   UNL     1     -42.063  59.550 -60.128  1.00  0.00     0.030 A 
HETATM   19  C   UNL     1     -42.315  58.334 -59.485  1.00  0.00     0.011 A 
BRANCH  17  20
HETATM   20  N   UNL     1     -41.473  61.870 -60.116  1.00  0.00    -0.328 N 
HETATM   21  C   UNL     1     -40.344  62.662 -60.002  1.00  0.00     0.218 C 
HETATM   22  C   UNL     1     -40.303  63.774 -61.023  1.00  0.00     0.117 C 
HETATM   23  O   UNL     1     -39.426  62.508 -59.204  1.00  0.00    -0.274 OA
HETATM   24  H   UNL     1     -42.140  62.139 -60.830  1.00  0.00     0.169 HD
ENDBRANCH  17  20
ENDBRANCH  13  14
ENDBRANCH   1  13
BRANCH   4  25
HETATM   25  C   UNL     1     -41.248  54.192 -53.433  1.00  0.00     0.006 A 
HETATM   26  C   UNL     1     -40.753  54.038 -52.125  1.00  0.00     0.077 A 
HETATM   27  C   UNL     1     -40.025  52.893 -51.780  1.00  0.00     0.037 A 
HETATM   28  C   UNL     1     -39.820  51.877 -52.714  1.00  0.00     0.003 A 
HETATM   29  C   UNL     1     -40.348  51.994 -53.994  1.00  0.00     0.001 A 
HETATM   30  C   UNL     1     -41.063  53.137 -54.349  1.00  0.00     0.012 A 
BRANCH  26  31
HETATM   31  O   UNL     1     -40.986  55.066 -51.248  1.00  0.00    -0.355 OA
HETATM   32  C   UNL     1     -41.536  54.675 -49.990  1.00  0.00     0.210 C 
ENDBRANCH  26  31
ENDBRANCH   4  25
TORSDOF 5
ENDMDL
MODEL 5
REMARK VINA RESULT:      -8.2      1.797      2.840
REMARK  5 active torsions:
REMARK  status: ('A' for Active; 'I' for Inactive)
REMARK       I    between atoms: C_2  and  N_3 
REMARK    1  A    between atoms: N_3  and  C_4 
REMARK    2  A    between atoms: C_7  and  C_8 
REMARK    3  A    between atoms: C_8  and  N_9 
REMARK    4  A    between atoms: C_12  and  C_13 
REMARK    5  A    between atoms: C_14  and  O_15 
ROOT
HETATM    1  N   UNL     1     -43.115  56.559 -55.312  1.00  0.00    -0.060 N 
HETATM    2  H   UNL     1     -42.635  57.465 -55.355  1.00  0.00     0.280 HD
HETATM    3  C   UNL     1     -42.392  55.670 -54.286  1.00  0.00     0.272 C 
HETATM    4  C   UNL     1     -42.370  56.214 -52.839  1.00  0.00     0.190 C 
HETATM    5  O   UNL     1     -43.702  56.232 -52.297  1.00  0.00    -0.339 OA
HETATM    6  C   UNL     1     -44.264  57.460 -52.508  1.00  0.00     0.077 A 
HETATM    7  C   UNL     1     -44.669  57.829 -53.793  1.00  0.00     0.001 A 
HETATM    8  C   UNL     1     -44.551  56.854 -54.929  1.00  0.00     0.276 C 
HETATM    9  C   UNL     1     -44.415  58.313 -51.418  1.00  0.00     0.037 A 
HETATM   10  C   UNL     1     -44.943  59.585 -51.617  1.00  0.00     0.003 A 
HETATM   11  C   UNL     1     -45.325  59.988 -52.896  1.00  0.00     0.001 A 
HETATM   12  C   UNL     1     -45.195  59.114 -53.980  1.00  0.00     0.012 A 
ENDROOT
BRANCH   1  13
HETATM   13  C   UNL     1     -42.979  55.905 -56.673  1.00  0.00     0.273 C 
BRANCH  13  14
HETATM   14  C   UNL     1     -42.628  56.797 -57.832  1.00  0.00    -0.032 A 
HETATM   15  C   UNL     1     -42.711  56.350 -59.155  1.00  0.00     0.011 A 
HETATM   16  C   UNL     1     -42.452  57.227 -60.219  1.00  0.00     0.030 A 
HETATM   17  C   UNL     1     -42.114  58.562 -59.983  1.00  0.00     0.034 A 
HETATM   18  C   UNL     1     -42.008  59.001 -58.661  1.00  0.00     0.030 A 
HETATM   19  C   UNL     1     -42.262  58.130 -57.596  1.00  0.00     0.011 A 
BRANCH  17  20
HETATM   20  N   UNL     1     -41.902  59.519 -60.995  1.00  0.00    -0.328 N 
HETATM   21  C   UNL     1     -42.834  60.378 -61.549  1.00  0.00     0.218 C 
HETATM   22  C   UNL     1     -42.225  61.349 -62.533  1.00  0.00     0.117 C 
HETATM   23  O   UNL     1     -44.031  60.420 -61.285  1.00  0.00    -0.274 OA
HETATM   24  H   UNL     1     -40.950  59.615 -61.329  1.00  0.00     0.169 HD
ENDBRANCH  17  20
ENDBRANCH  13  14
ENDBRANCH   1  13
BRANCH   4  25
HETATM   25  C   UNL     1     -41.541  55.303 -51.942  1.00  0.00     0.006 A 
HETATM   26  C   UNL     1     -41.076  55.748 -50.691  1.00  0.00     0.077 A 
HETATM   27  C   UNL     1     -40.278  54.914 -49.901  1.00  0.00     0.037 A 
HETATM   28  C   UNL     1     -39.971  53.620 -50.325  1.00  0.00     0.003 A 
HETATM   29  C   UNL     1     -40.468  53.150 -51.536  1.00  0.00     0.001 A 
HETATM   30  C   UNL     1     -41.253  53.981 -52.334  1.00  0.00     0.012 A 
BRANCH  26  31
HETATM   31  O   UNL     1     -41.411  57.027 -50.324  1.00  0.00    -0.355 OA
HETATM   32  C   UNL     1     -40.471  58.032 -50.706  1.00  0.00     0.210 C 
ENDBRANCH  26  31
ENDBRANCH   4  25
TORSDOF 5
ENDMDL
MODEL 6
REMARK VINA RESULT:      -8.1      2.774      9.466
REMARK  5 active torsions:
REMARK  status: ('A' for Active; 'I' for Inactive)
REMARK       I    between atoms: C_2  and  N_3 
REMARK    1  A    between atoms: N_3  and  C_4 
REMARK    2  A    between atoms: C_7  and  C_8 
REMARK    3  A    between atoms: C_8  and  N_9 
REMARK    4  A    between atoms: C_12  and  C_13 
REMARK    5  A    between atoms: C_14  and  O_15 
ROOT
HETATM    1  N   UNL     1     -42.123  57.513 -55.632  1.00  0.00    -0.060 N 
HETATM    2  H   UNL     1     -41.342  57.278 -56.255  1.00  0.00     0.280 HD
HETATM    3  C   UNL     1     -42.323  59.038 -55.649  1.00  0.00     0.272 C 
HETATM    4  C   UNL     1     -42.676  59.643 -57.027  1.00  0.00     0.190 C 
HETATM    5  O   UNL     1     -43.976  59.191 -57.448  1.00  0.00    -0.339 OA
HETATM    6  C   UNL     1     -43.841  58.075 -58.226  1.00  0.00     0.077 A 
HETATM    7  C   UNL     1     -43.490  56.856 -57.641  1.00  0.00     0.001 A 
HETATM    8  C   UNL     1     -43.327  56.754 -56.152  1.00  0.00     0.276 C 
HETATM    9  C   UNL     1     -44.061  58.195 -59.596  1.00  0.00     0.037 A 
HETATM   10  C   UNL     1     -43.885  57.083 -60.414  1.00  0.00     0.003 A 
HETATM   11  C   UNL     1     -43.503  55.863 -59.857  1.00  0.00     0.001 A 
HETATM   12  C   UNL     1     -43.311  55.745 -58.477  1.00  0.00     0.012 A 
ENDROOT
BRANCH   1  13
HETATM   13  C   UNL     1     -41.722  57.112 -54.226  1.00  0.00     0.273 C 
BRANCH  13  14
HETATM   14  C   UNL     1     -41.292  55.686 -54.015  1.00  0.00    -0.032 A 
HETATM   15  C   UNL     1     -41.744  54.936 -52.924  1.00  0.00     0.011 A 
HETATM   16  C   UNL     1     -41.388  53.585 -52.794  1.00  0.00     0.030 A 
HETATM   17  C   UNL     1     -40.584  52.959 -53.750  1.00  0.00     0.034 A 
HETATM   18  C   UNL     1     -40.112  53.716 -54.826  1.00  0.00     0.030 A 
HETATM   19  C   UNL     1     -40.462  55.064 -54.959  1.00  0.00     0.011 A 
BRANCH  17  20
HETATM   20  N   UNL     1     -40.235  51.594 -53.725  1.00  0.00    -0.328 N 
HETATM   21  C   UNL     1     -39.631  50.899 -52.692  1.00  0.00     0.218 C 
HETATM   22  C   UNL     1     -39.509  49.420 -52.973  1.00  0.00     0.117 C 
HETATM   23  O   UNL     1     -39.248  51.369 -51.627  1.00  0.00    -0.274 OA
HETATM   24  H   UNL     1     -40.488  51.052 -54.542  1.00  0.00     0.169 HD
ENDBRANCH  17  20
ENDBRANCH  13  14
ENDBRANCH   1  13
BRANCH   4  25
HETATM   25  C   UNL     1     -42.747  61.162 -56.938  1.00  0.00     0.006 A 
HETATM   26  C   UNL     1     -42.214  61.972 -57.958  1.00  0.00     0.077 A 
HETATM   27  C   UNL     1     -42.247  63.365 -57.836  1.00  0.00     0.037 A 
HETATM   28  C   UNL     1     -42.843  63.965 -56.727  1.00  0.00     0.003 A 
HETATM   29  C   UNL     1     -43.419  63.176 -55.737  1.00  0.00     0.001 A 
HETATM   30  C   UNL     1     -43.379  61.787 -55.845  1.00  0.00     0.012 A 
BRANCH  26  31
HETATM   31  O   UNL     1     -41.643  61.329 -59.026  1.00  0.00    -0.355 OA
HETATM   32  C   UNL     1     -40.811  62.146 -59.850  1.00  0.00     0.210 C 
ENDBRANCH  26  31
ENDBRANCH   4  25
TORSDOF 5
ENDMDL
MODEL 7
REMARK VINA RESULT:      -8.0     15.931     17.703
REMARK  5 active torsions:
REMARK  status: ('A' for Active; 'I' for Inactive)
REMARK       I    between atoms: C_2  and  N_3 
REMARK    1  A    between atoms: N_3  and  C_4 
REMARK    2  A    between atoms: C_7  and  C_8 
REMARK    3  A    between atoms: C_8  and  N_9 
REMARK    4  A    between atoms: C_12  and  C_13 
REMARK    5  A    between atoms: C_14  and  O_15 
ROOT
HETATM    1  N   UNL     1     -35.685  40.617 -55.560  1.00  0.00    -0.060 N 
HETATM    2  H   UNL     1     -35.568  39.691 -55.986  1.00  0.00     0.280 HD
HETATM    3  C   UNL     1     -35.957  40.435 -54.058  1.00  0.00     0.272 C 
HETATM    4  C   UNL     1     -34.831  39.737 -53.262  1.00  0.00     0.190 C 
HETATM    5  O   UNL     1     -33.658  40.570 -53.230  1.00  0.00    -0.339 OA
HETATM    6  C   UNL     1     -32.829  40.230 -54.263  1.00  0.00     0.077 A 
HETATM    7  C   UNL     1     -33.169  40.577 -55.573  1.00  0.00     0.001 A 
HETATM    8  C   UNL     1     -34.408  41.382 -55.840  1.00  0.00     0.276 C 
HETATM    9  C   UNL     1     -31.657  39.538 -53.969  1.00  0.00     0.037 A 
HETATM   10  C   UNL     1     -30.820  39.141 -55.007  1.00  0.00     0.003 A 
HETATM   11  C   UNL     1     -31.155  39.449 -56.326  1.00  0.00     0.001 A 
HETATM   12  C   UNL     1     -32.320  40.167 -56.610  1.00  0.00     0.012 A 
ENDROOT
BRANCH   1  13
HETATM   13  C   UNL     1     -36.914  41.253 -56.182  1.00  0.00     0.273 C 
BRANCH  13  14
HETATM   14  C   UNL     1     -37.318  40.773 -57.549  1.00  0.00    -0.032 A 
HETATM   15  C   UNL     1     -37.020  41.505 -58.703  1.00  0.00     0.011 A 
HETATM   16  C   UNL     1     -37.341  40.996 -59.970  1.00  0.00     0.030 A 
HETATM   17  C   UNL     1     -37.957  39.749 -60.109  1.00  0.00     0.034 A 
HETATM   18  C   UNL     1     -38.277  39.030 -58.954  1.00  0.00     0.030 A 
HETATM   19  C   UNL     1     -37.961  39.534 -57.688  1.00  0.00     0.011 A 
BRANCH  17  20
HETATM   20  N   UNL     1     -38.254  39.141 -61.345  1.00  0.00    -0.328 N 
HETATM   21  C   UNL     1     -37.367  38.541 -62.221  1.00  0.00     0.218 C 
HETATM   22  C   UNL     1     -38.055  37.893 -63.399  1.00  0.00     0.117 C 
HETATM   23  O   UNL     1     -36.149  38.477 -62.093  1.00  0.00    -0.274 OA
HETATM   24  H   UNL     1     -39.232  39.107 -61.604  1.00  0.00     0.169 HD
ENDBRANCH  17  20
ENDBRANCH  13  14
ENDBRANCH   1  13
BRANCH   4  25
HETATM   25  C   UNL     1     -35.257  39.522 -51.816  1.00  0.00     0.006 A 
HETATM   26  C   UNL     1     -34.687  38.497 -51.038  1.00  0.00     0.077 A 
HETATM   27  C   UNL     1     -35.125  38.285 -49.726  1.00  0.00     0.037 A 
HETATM   28  C   UNL     1     -36.096  39.112 -49.162  1.00  0.00     0.003 A 
HETATM   29  C   UNL     1     -36.630  40.161 -49.903  1.00  0.00     0.001 A 
HETATM   30  C   UNL     1     -36.208  40.371 -51.215  1.00  0.00     0.012 A 
BRANCH  26  31
HETATM   31  O   UNL     1     -33.735  37.717 -51.643  1.00  0.00    -0.355 OA
HETATM   32  C   UNL     1     -32.503  37.604 -50.929  1.00  0.00     0.210 C 
ENDBRANCH  26  31
ENDBRANCH   4  25
TORSDOF 5
ENDMDL
MODEL 8
REMARK VINA RESULT:      -7.9      2.475      8.368
REMARK  5 active torsions:
REMARK  status: ('A' for Active; 'I' for Inactive)
REMARK       I    between atoms: C_2  and  N_3 
REMARK    1  A    between atoms: N_3  and  C_4 
REMARK    2  A    between atoms: C_7  and  C_8 
REMARK    3  A    between atoms: C_8  and  N_9 
REMARK    4  A    between atoms: C_12  and  C_13 
REMARK    5  A    between atoms: C_14  and  O_15 
ROOT
HETATM    1  N   UNL     1     -43.623  58.845 -55.769  1.00  0.00    -0.060 N 
HETATM    2  H   UNL     1     -44.211  59.664 -55.963  1.00  0.00     0.280 HD
HETATM    3  C   UNL     1     -44.061  57.697 -56.693  1.00  0.00     0.272 C 
HETATM    4  C   UNL     1     -43.922  57.977 -58.207  1.00  0.00     0.190 C 
HETATM    5  O   UNL     1     -42.534  58.100 -58.562  1.00  0.00    -0.339 OA
HETATM    6  C   UNL     1     -42.166  59.416 -58.516  1.00  0.00     0.077 A 
HETATM    7  C   UNL     1     -42.016  60.054 -57.283  1.00  0.00     0.001 A 
HETATM    8  C   UNL     1     -42.191  59.281 -56.008  1.00  0.00     0.276 C 
HETATM    9  C   UNL     1     -41.951  60.084 -59.719  1.00  0.00     0.037 A 
HETATM   10  C   UNL     1     -41.621  61.435 -59.698  1.00  0.00     0.003 A 
HETATM   11  C   UNL     1     -41.497  62.102 -58.480  1.00  0.00     0.001 A 
HETATM   12  C   UNL     1     -41.688  61.417 -57.276  1.00  0.00     0.012 A 
ENDROOT
BRANCH   1  13
HETATM   13  C   UNL     1     -43.890  58.420 -54.338  1.00  0.00     0.273 C 
BRANCH  13  14
HETATM   14  C   UNL     1     -43.269  57.130 -53.878  1.00  0.00    -0.032 A 
HETATM   15  C   UNL     1     -43.862  55.892 -54.146  1.00  0.00     0.011 A 
HETATM   16  C   UNL     1     -43.221  54.700 -53.772  1.00  0.00     0.030 A 
HETATM   17  C   UNL     1     -41.980  54.724 -53.132  1.00  0.00     0.034 A 
HETATM   18  C   UNL     1     -41.399  55.962 -52.843  1.00  0.00     0.030 A 
HETATM   19  C   UNL     1     -42.035  57.152 -53.212  1.00  0.00     0.011 A 
BRANCH  17  20
HETATM   20  N   UNL     1     -41.244  53.574 -52.782  1.00  0.00    -0.328 N 
HETATM   21  C   UNL     1     -40.422  52.820 -53.600  1.00  0.00     0.218 C 
HETATM   22  C   UNL     1     -39.702  51.720 -52.856  1.00  0.00     0.117 C 
HETATM   23  O   UNL     1     -40.229  52.997 -54.798  1.00  0.00    -0.274 OA
HETATM   24  H   UNL     1     -41.293  53.289 -51.811  1.00  0.00     0.169 HD
ENDBRANCH  17  20
ENDBRANCH  13  14
ENDBRANCH   1  13
BRANCH   4  25
HETATM   25  C   UNL     1     -44.482  56.813 -59.015  1.00  0.00     0.006 A 
HETATM   26  C   UNL     1     -45.699  56.934 -59.710  1.00  0.00     0.077 A 
HETATM   27  C   UNL     1     -46.220  55.840 -60.409  1.00  0.00     0.037 A 
HETATM   28  C   UNL     1     -45.520  54.635 -60.461  1.00  0.00     0.003 A 
HETATM   29  C   UNL     1     -44.290  54.518 -59.822  1.00  0.00     0.001 A 
HETATM   30  C   UNL     1     -43.771  55.600 -59.112  1.00  0.00     0.012 A 
BRANCH  26  31
HETATM   31  O   UNL     1     -46.343  58.142 -59.627  1.00  0.00    -0.355 OA
HETATM   32  C   UNL     1     -47.193  58.452 -60.733  1.00  0.00     0.210 C 
ENDBRANCH  26  31
ENDBRANCH   4  25
TORSDOF 5
ENDMDL
MODEL 9
REMARK VINA RESULT:      -7.7      2.068      4.850
REMARK  5 active torsions:
REMARK  status: ('A' for Active; 'I' for Inactive)
REMARK       I    between atoms: C_2  and  N_3 
REMARK    1  A    between atoms: N_3  and  C_4 
REMARK    2  A    between atoms: C_7  and  C_8 
REMARK    3  A    between atoms: C_8  and  N_9 
REMARK    4  A    between atoms: C_12  and  C_13 
REMARK    5  A    between atoms: C_14  and  O_15 
ROOT
HETATM    1  N   UNL     1     -43.092  55.189 -56.171  1.00  0.00    -0.060 N 
HETATM    2  H   UNL     1     -43.503  54.293 -55.886  1.00  0.00     0.280 HD
HETATM    3  C   UNL     1     -43.666  56.300 -55.275  1.00  0.00     0.272 C 
HETATM    4  C   UNL     1     -43.369  56.151 -53.766  1.00  0.00     0.190 C 
HETATM    5  O   UNL     1     -41.960  56.303 -53.521  1.00  0.00    -0.339 OA
HETATM    6  C   UNL     1     -41.361  55.074 -53.528  1.00  0.00     0.077 A 
HETATM    7  C   UNL     1     -41.185  54.391 -54.735  1.00  0.00     0.001 A 
HETATM    8  C   UNL     1     -41.591  55.034 -56.029  1.00  0.00     0.276 C 
HETATM    9  C   UNL     1     -40.941  54.537 -52.314  1.00  0.00     0.037 A 
HETATM   10  C   UNL     1     -40.370  53.268 -52.291  1.00  0.00     0.003 A 
HETATM   11  C   UNL     1     -40.213  52.554 -53.479  1.00  0.00     0.001 A 
HETATM   12  C   UNL     1     -40.613  53.112 -54.697  1.00  0.00     0.012 A 
ENDROOT
BRANCH   1  13
HETATM   13  C   UNL     1     -43.535  55.464 -57.595  1.00  0.00     0.273 C 
BRANCH  13  14
HETATM   14  C   UNL     1     -43.217  56.818 -58.165  1.00  0.00    -0.032 A 
HETATM   15  C   UNL     1     -43.832  57.980 -57.686  1.00  0.00     0.011 A 
HETATM   16  C   UNL     1     -43.459  59.238 -58.183  1.00  0.00     0.030 A 
HETATM   17  C   UNL     1     -42.465  59.359 -59.157  1.00  0.00     0.034 A 
HETATM   18  C   UNL     1     -41.868  58.196 -59.652  1.00  0.00     0.030 A 
HETATM   19  C   UNL     1     -42.238  56.940 -59.162  1.00  0.00     0.011 A 
BRANCH  17  20
HETATM   20  N   UNL     1     -41.990  60.587 -59.661  1.00  0.00    -0.328 N 
HETATM   21  C   UNL     1     -41.107  61.461 -59.052  1.00  0.00     0.218 C 
HETATM   22  C   UNL     1     -40.734  62.628 -59.935  1.00  0.00     0.117 C 
HETATM   23  O   UNL     1     -40.619  61.338 -57.934  1.00  0.00    -0.274 OA
HETATM   24  H   UNL     1     -42.302  60.841 -60.591  1.00  0.00     0.169 HD
ENDBRANCH  17  20
ENDBRANCH  13  14
ENDBRANCH   1  13
BRANCH   4  25
HETATM   25  C   UNL     1     -44.074  57.246 -52.976  1.00  0.00     0.006 A 
HETATM   26  C   UNL     1     -44.114  57.212 -51.570  1.00  0.00     0.077 A 
HETATM   27  C   UNL     1     -44.806  58.203 -50.863  1.00  0.00     0.037 A 
HETATM   28  C   UNL     1     -45.423  59.254 -51.540  1.00  0.00     0.003 A 
HETATM   29  C   UNL     1     -45.346  59.328 -52.927  1.00  0.00     0.001 A 
HETATM   30  C   UNL     1     -44.670  58.338 -53.638  1.00  0.00     0.012 A 
BRANCH  26  31
HETATM   31  O   UNL     1     -43.488  56.158 -50.956  1.00  0.00    -0.355 OA
HETATM   32  C   UNL     1     -44.361  55.154 -50.436  1.00  0.00     0.210 C 
ENDBRANCH  26  31
ENDBRANCH   4  25
TORSDOF 5
ENDMDL
MODEL 10
REMARK VINA RESULT:      -7.6      2.893      8.092
REMARK  5 active torsions:
REMARK  status: ('A' for Active; 'I' for Inactive)
REMARK       I    between atoms: C_2  and  N_3 
REMARK    1  A    between atoms: N_3  and  C_4 
REMARK    2  A    between atoms: C_7  and  C_8 
REMARK    3  A    between atoms: C_8  and  N_9 
REMARK    4  A    between atoms: C_12  and  C_13 
REMARK    5  A    between atoms: C_14  and  O_15 
ROOT
HETATM    1  N   UNL     1     -42.420  58.586 -53.759  1.00  0.00    -0.060 N 
HETATM    2  H   UNL     1     -43.279  58.047 -53.604  1.00  0.00     0.280 HD
HETATM    3  C   UNL     1     -42.115  58.603 -55.266  1.00  0.00     0.272 C 
HETATM    4  C   UNL     1     -43.198  59.259 -56.152  1.00  0.00     0.190 C 
HETATM    5  O   UNL     1     -43.279  60.667 -55.873  1.00  0.00    -0.339 OA
HETATM    6  C   UNL     1     -44.241  60.891 -54.927  1.00  0.00     0.077 A 
HETATM    7  C   UNL     1     -44.006  60.533 -53.597  1.00  0.00     0.001 A 
HETATM    8  C   UNL     1     -42.676  59.968 -53.193  1.00  0.00     0.276 C 
HETATM    9  C   UNL     1     -45.440  61.474 -55.329  1.00  0.00     0.037 A 
HETATM   10  C   UNL     1     -46.451  61.669 -54.393  1.00  0.00     0.003 A 
HETATM   11  C   UNL     1     -46.251  61.290 -53.065  1.00  0.00     0.001 A 
HETATM   12  C   UNL     1     -45.035  60.730 -52.665  1.00  0.00     0.012 A 
ENDROOT
BRANCH   1  13
HETATM   13  C   UNL     1     -41.290  57.852 -53.063  1.00  0.00     0.273 C 
BRANCH  13  14
HETATM   14  C   UNL     1     -41.178  56.372 -53.308  1.00  0.00    -0.032 A 
HETATM   15  C   UNL     1     -41.814  55.441 -52.479  1.00  0.00     0.011 A 
HETATM   16  C   UNL     1     -41.756  54.070 -52.777  1.00  0.00     0.030 A 
HETATM   17  C   UNL     1     -41.073  53.608 -53.904  1.00  0.00     0.034 A 
HETATM   18  C   UNL     1     -40.418  54.538 -54.717  1.00  0.00     0.030 A 
HETATM   19  C   UNL     1     -40.470  55.904 -54.424  1.00  0.00     0.011 A 
BRANCH  17  20
HETATM   20  N   UNL     1     -41.021  52.258 -54.305  1.00  0.00    -0.328 N 
HETATM   21  C   UNL     1     -40.079  51.310 -53.948  1.00  0.00     0.218 C 
HETATM   22  C   UNL     1     -40.403  49.933 -54.477  1.00  0.00     0.117 C 
HETATM   23  O   UNL     1     -39.087  51.498 -53.251  1.00  0.00    -0.274 OA
HETATM   24  H   UNL     1     -41.781  51.936 -54.892  1.00  0.00     0.169 HD
ENDBRANCH  17  20
ENDBRANCH  13  14
ENDBRANCH   1  13
BRANCH   4  25
HETATM   25  C   UNL     1     -42.833  59.123 -57.625  1.00  0.00     0.006 A 
HETATM   26  C   UNL     1     -43.065  57.921 -58.319  1.00  0.00     0.077 A 
HETATM   27  C   UNL     1     -42.681  57.800 -59.659  1.00  0.00     0.037 A 
HETATM   28  C   UNL     1     -42.105  58.878 -60.330  1.00  0.00     0.003 A 
HETATM   29  C   UNL     1     -41.917  60.087 -59.670  1.00  0.00     0.001 A 
HETATM   30  C   UNL     1     -42.286  60.212 -58.331  1.00  0.00     0.012 A 
BRANCH  26  31
HETATM   31  O   UNL     1     -43.637  56.896 -57.611  1.00  0.00    -0.355 OA
HETATM   32  C   UNL     1     -43.036  55.615 -57.808  1.00  0.00     0.210 C 
ENDBRANCH  26  31
ENDBRANCH   4  25
TORSDOF 5
ENDMDL
