MODEL 1
REMARK VINA RESULT:      -8.4      0.000      0.000
REMARK  4 active torsions:
REMARK  status: ('A' for Active; 'I' for Inactive)
REMARK    1  A    between atoms: C_6  and  C_7 
REMARK    2  A    between atoms: C_8  and  C_9 
REMARK       I    between atoms: C_9  and  N_10 
REMARK    3  A    between atoms: N_10  and  C_11 
REMARK    4  A    between atoms: C_18  and  C_19 
REMARK       I    between atoms: C_19  and  N_20 
ROOT
HETATM    1  C   UNL     1     -42.693  54.914 -55.502  1.00  0.00     0.035 A 
HETATM    2  C   UNL     1     -42.644  55.242 -56.864  1.00  0.00     0.046 A 
HETATM    3  C   UNL     1     -43.207  56.460 -57.308  1.00  0.00     0.030 A 
HETATM    4  C   UNL     1     -43.803  57.302 -56.378  1.00  0.00     0.063 A 
HETATM    5  N   UNL     1     -44.248  58.377 -57.095  1.00  0.00    -0.277 N 
HETATM    6  H   UNL     1     -44.736  59.191 -56.740  1.00  0.00     0.189 HD
HETATM    7  N   UNL     1     -43.986  58.317 -58.411  1.00  0.00    -0.168 NA
HETATM    8  C   UNL     1     -43.340  57.138 -58.559  1.00  0.00     0.156 A 
HETATM    9  C   UNL     1     -43.872  57.006 -55.016  1.00  0.00     0.034 A 
HETATM   10  C   UNL     1     -43.299  55.797 -54.599  1.00  0.00     0.032 A 
ENDROOT
BRANCH   1  11
HETATM   11  N   UNL     1     -42.131  53.738 -54.959  1.00  0.00    -0.327 N 
HETATM   12  C   UNL     1     -40.806  53.498 -54.669  1.00  0.00     0.227 C 
HETATM   13  O   UNL     1     -39.860  54.229 -54.924  1.00  0.00    -0.273 OA
HETATM   14  H   UNL     1     -42.768  52.966 -54.831  1.00  0.00     0.169 HD
BRANCH  12  15
HETATM   15  C   UNL     1     -40.503  52.207 -53.982  1.00  0.00     0.087 A 
HETATM   16  C   UNL     1     -40.641  52.045 -52.479  1.00  0.00     0.032 A 
HETATM   17  C   UNL     1     -39.292  51.897 -53.147  1.00  0.00     0.025 A 
BRANCH  16  18
HETATM   18  C   UNL     1     -40.885  53.206 -51.544  1.00  0.00    -0.051 A 
HETATM   19  C   UNL     1     -42.117  53.883 -51.532  1.00  0.00     0.031 A 
HETATM   20  C   UNL     1     -42.336  54.971 -50.685  1.00  0.00     0.034 A 
HETATM   21  C   UNL     1     -41.331  55.417 -49.833  1.00  0.00     0.024 A 
HETATM   22 CL   UNL     1     -43.864  55.765 -50.697  1.00  0.00    -0.084 Cl
HETATM   23  C   UNL     1     -40.098  54.772 -49.837  1.00  0.00     0.002 A 
HETATM   24  C   UNL     1     -39.878  53.685 -50.688  1.00  0.00     0.007 A 
ENDBRANCH  16  18
ENDBRANCH  12  15
ENDBRANCH   1  11
BRANCH   8  25
HETATM   25  C   UNL     1     -42.862  56.694 -59.876  1.00  0.00     0.270 C 
HETATM   26  N   UNL     1     -41.523  56.889 -60.078  1.00  0.00    -0.365 N 
HETATM   27  H   UNL     1     -40.974  57.300 -59.332  1.00  0.00     0.159 HD
HETATM   28  H   UNL     1     -41.103  56.604 -60.949  1.00  0.00     0.159 HD
HETATM   29  O   UNL     1     -43.566  56.186 -60.742  1.00  0.00    -0.266 OA
ENDBRANCH   8  25
TORSDOF 4
ENDMDL
MODEL 2
REMARK VINA RESULT:      -8.2      2.748      4.081
REMARK  4 active torsions:
REMARK  status: ('A' for Active; 'I' for Inactive)
REMARK    1  A    between atoms: C_6  and  C_7 
REMARK    2  A    between atoms: C_8  and  C_9 
REMARK       I    between atoms: C_9  and  N_10 
REMARK    3  A    between atoms: N_10  and  C_11 
REMARK    4  A    between atoms: C_18  and  C_19 
REMARK       I    between atoms: C_19  and  N_20 
ROOT
HETATM    1  C   UNL     1     -42.862  56.956 -52.120  1.00  0.00     0.035 A 
HETATM    2  C   UNL     1     -42.788  56.731 -53.502  1.00  0.00     0.046 A 
HETATM    3  C   UNL     1     -43.740  57.329 -54.358  1.00  0.00     0.030 A 
HETATM    4  C   UNL     1     -44.733  58.125 -53.803  1.00  0.00     0.063 A 
HETATM    5  N   UNL     1     -45.488  58.553 -54.859  1.00  0.00    -0.277 N 
HETATM    6  H   UNL     1     -46.303  59.153 -54.828  1.00  0.00     0.189 HD
HETATM    7  N   UNL     1     -45.068  58.115 -56.058  1.00  0.00    -0.168 NA
HETATM    8  C   UNL     1     -43.986  57.358 -55.765  1.00  0.00     0.156 A 
HETATM    9  C   UNL     1     -44.838  58.370 -52.433  1.00  0.00     0.034 A 
HETATM   10  C   UNL     1     -43.879  57.772 -51.606  1.00  0.00     0.032 A 
ENDROOT
BRANCH   1  11
HETATM   11  N   UNL     1     -41.940  56.428 -51.190  1.00  0.00    -0.327 N 
HETATM   12  C   UNL     1     -42.078  55.288 -50.429  1.00  0.00     0.227 C 
HETATM   13  O   UNL     1     -43.072  54.581 -50.348  1.00  0.00    -0.273 OA
HETATM   14  H   UNL     1     -41.117  56.986 -51.022  1.00  0.00     0.169 HD
BRANCH  12  15
HETATM   15  C   UNL     1     -40.891  54.889 -49.615  1.00  0.00     0.087 A 
HETATM   16  C   UNL     1     -39.826  53.949 -50.153  1.00  0.00     0.032 A 
HETATM   17  C   UNL     1     -40.662  53.559 -48.953  1.00  0.00     0.025 A 
BRANCH  16  18
HETATM   18  C   UNL     1     -39.981  53.184 -51.446  1.00  0.00    -0.051 A 
HETATM   19  C   UNL     1     -39.738  51.801 -51.506  1.00  0.00     0.031 A 
HETATM   20  C   UNL     1     -39.858  51.096 -52.704  1.00  0.00     0.034 A 
HETATM   21  C   UNL     1     -40.215  51.753 -53.877  1.00  0.00     0.024 A 
HETATM   22 CL   UNL     1     -39.559  49.401 -52.729  1.00  0.00    -0.084 Cl
HETATM   23  C   UNL     1     -40.447  53.125 -53.847  1.00  0.00     0.002 A 
HETATM   24  C   UNL     1     -40.323  53.830 -52.647  1.00  0.00     0.007 A 
ENDBRANCH  16  18
ENDBRANCH  12  15
ENDBRANCH   1  11
BRANCH   8  25
HETATM   25  C   UNL     1     -43.215  56.693 -56.825  1.00  0.00     0.270 C 
HETATM   26  N   UNL     1     -43.395  55.337 -56.879  1.00  0.00    -0.365 N 
HETATM   27  H   UNL     1     -44.029  54.905 -56.218  1.00  0.00     0.159 HD
HETATM   28  H   UNL     1     -42.915  54.798 -57.582  1.00  0.00     0.159 HD
HETATM   29  O   UNL     1     -42.470  57.265 -57.613  1.00  0.00    -0.266 OA
ENDBRANCH   8  25
TORSDOF 4
ENDMDL
MODEL 3
REMARK VINA RESULT:      -8.0      3.414      4.928
REMARK  4 active torsions:
REMARK  status: ('A' for Active; 'I' for Inactive)
REMARK    1  A    between atoms: C_6  and  C_7 
REMARK    2  A    between atoms: C_8  and  C_9 
REMARK       I    between atoms: C_9  and  N_10 
REMARK    3  A    between atoms: N_10  and  C_11 
REMARK    4  A    between atoms: C_18  and  C_19 
REMARK       I    between atoms: C_19  and  N_20 
ROOT
HETATM    1  C   UNL     1     -44.033  57.176 -54.868  1.00  0.00     0.035 A 
HETATM    2  C   UNL     1     -44.334  57.660 -53.587  1.00  0.00     0.046 A 
HETATM    3  C   UNL     1     -45.020  58.888 -53.449  1.00  0.00     0.030 A 
HETATM    4  C   UNL     1     -45.375  59.590 -54.593  1.00  0.00     0.063 A 
HETATM    5  N   UNL     1     -46.010  60.714 -54.146  1.00  0.00    -0.277 N 
HETATM    6  H   UNL     1     -46.405  61.460 -54.707  1.00  0.00     0.189 HD
HETATM    7  N   UNL     1     -46.113  60.803 -52.810  1.00  0.00    -0.168 NA
HETATM    8  C   UNL     1     -45.506  59.679 -52.363  1.00  0.00     0.156 A 
HETATM    9  C   UNL     1     -45.089  59.140 -55.883  1.00  0.00     0.034 A 
HETATM   10  C   UNL     1     -44.416  57.917 -55.994  1.00  0.00     0.032 A 
ENDROOT
BRANCH   1  11
HETATM   11  N   UNL     1     -43.379  55.948 -55.108  1.00  0.00    -0.327 N 
HETATM   12  C   UNL     1     -42.026  55.694 -55.056  1.00  0.00     0.227 C 
HETATM   13  O   UNL     1     -41.136  56.516 -54.891  1.00  0.00    -0.273 OA
HETATM   14  H   UNL     1     -43.969  55.189 -55.412  1.00  0.00     0.169 HD
BRANCH  12  15
HETATM   15  C   UNL     1     -41.613  54.270 -55.231  1.00  0.00     0.087 A 
HETATM   16  C   UNL     1     -41.566  53.298 -54.065  1.00  0.00     0.032 A 
HETATM   17  C   UNL     1     -40.304  53.657 -54.818  1.00  0.00     0.025 A 
BRANCH  16  18
HETATM   18  C   UNL     1     -41.721  53.730 -52.626  1.00  0.00    -0.051 A 
HETATM   19  C   UNL     1     -40.611  53.812 -51.768  1.00  0.00     0.031 A 
HETATM   20  C   UNL     1     -40.755  54.189 -50.432  1.00  0.00     0.034 A 
HETATM   21  C   UNL     1     -42.011  54.486 -49.913  1.00  0.00     0.024 A 
HETATM   22 CL   UNL     1     -39.366  54.285 -49.419  1.00  0.00    -0.084 Cl
HETATM   23  C   UNL     1     -43.128  54.398 -50.739  1.00  0.00     0.002 A 
HETATM   24  C   UNL     1     -42.983  54.017 -52.076  1.00  0.00     0.007 A 
ENDBRANCH  16  18
ENDBRANCH  12  15
ENDBRANCH   1  11
BRANCH   8  25
HETATM   25  C   UNL     1     -45.413  59.387 -50.926  1.00  0.00     0.270 C 
HETATM   26  N   UNL     1     -44.223  59.752 -50.358  1.00  0.00    -0.365 N 
HETATM   27  H   UNL     1     -43.522  60.191 -50.942  1.00  0.00     0.159 HD
HETATM   28  H   UNL     1     -44.074  59.601 -49.373  1.00  0.00     0.159 HD
HETATM   29  O   UNL     1     -46.300  58.867 -50.259  1.00  0.00    -0.266 OA
ENDBRANCH   8  25
TORSDOF 4
ENDMDL
MODEL 4
REMARK VINA RESULT:      -8.0      3.460      7.230
REMARK  4 active torsions:
REMARK  status: ('A' for Active; 'I' for Inactive)
REMARK    1  A    between atoms: C_6  and  C_7 
REMARK    2  A    between atoms: C_8  and  C_9 
REMARK       I    between atoms: C_9  and  N_10 
REMARK    3  A    between atoms: N_10  and  C_11 
REMARK    4  A    between atoms: C_18  and  C_19 
REMARK       I    between atoms: C_19  and  N_20 
ROOT
HETATM    1  C   UNL     1     -40.829  54.659 -54.060  1.00  0.00     0.035 A 
HETATM    2  C   UNL     1     -40.961  54.650 -52.664  1.00  0.00     0.046 A 
HETATM    3  C   UNL     1     -40.605  53.491 -51.937  1.00  0.00     0.030 A 
HETATM    4  C   UNL     1     -40.138  52.383 -52.630  1.00  0.00     0.063 A 
HETATM    5  N   UNL     1     -39.884  51.438 -51.676  1.00  0.00    -0.277 N 
HETATM    6  H   UNL     1     -39.531  50.499 -51.820  1.00  0.00     0.189 HD
HETATM    7  N   UNL     1     -40.134  51.836 -50.417  1.00  0.00    -0.168 NA
HETATM    8  C   UNL     1     -40.580  53.105 -50.562  1.00  0.00     0.156 A 
HETATM    9  C   UNL     1     -39.996  52.355 -54.019  1.00  0.00     0.034 A 
HETATM   10  C   UNL     1     -40.347  53.518 -54.716  1.00  0.00     0.032 A 
ENDROOT
BRANCH   1  11
HETATM   11  N   UNL     1     -41.129  55.777 -54.867  1.00  0.00    -0.327 N 
HETATM   12  C   UNL     1     -42.371  56.303 -55.144  1.00  0.00     0.227 C 
HETATM   13  O   UNL     1     -43.452  55.832 -54.818  1.00  0.00    -0.273 OA
HETATM   14  H   UNL     1     -40.345  56.197 -55.344  1.00  0.00     0.169 HD
BRANCH  12  15
HETATM   15  C   UNL     1     -42.393  57.573 -55.930  1.00  0.00     0.087 A 
HETATM   16  C   UNL     1     -42.139  58.923 -55.284  1.00  0.00     0.032 A 
HETATM   17  C   UNL     1     -43.476  58.615 -55.923  1.00  0.00     0.025 A 
BRANCH  16  18
HETATM   18  C   UNL     1     -42.058  59.118 -53.788  1.00  0.00    -0.051 A 
HETATM   19  C   UNL     1     -40.823  59.087 -53.117  1.00  0.00     0.031 A 
HETATM   20  C   UNL     1     -40.748  59.245 -51.732  1.00  0.00     0.034 A 
HETATM   21  C   UNL     1     -41.902  59.429 -50.978  1.00  0.00     0.024 A 
HETATM   22 CL   UNL     1     -39.213  59.208 -50.953  1.00  0.00    -0.084 Cl
HETATM   23  C   UNL     1     -43.139  59.449 -51.618  1.00  0.00     0.002 A 
HETATM   24  C   UNL     1     -43.213  59.287 -53.004  1.00  0.00     0.007 A 
ENDBRANCH  16  18
ENDBRANCH  12  15
ENDBRANCH   1  11
BRANCH   8  25
HETATM   25  C   UNL     1     -40.958  53.915 -49.395  1.00  0.00     0.270 C 
HETATM   26  N   UNL     1     -39.973  54.029 -48.453  1.00  0.00    -0.365 N 
HETATM   27  H   UNL     1     -39.083  53.575 -48.623  1.00  0.00     0.159 HD
HETATM   28  H   UNL     1     -40.138  54.576 -47.622  1.00  0.00     0.159 HD
HETATM   29  O   UNL     1     -42.046  54.458 -49.243  1.00  0.00    -0.266 OA
ENDBRANCH   8  25
TORSDOF 4
ENDMDL
MODEL 5
REMARK VINA RESULT:      -7.8      3.438      6.852
REMARK  4 active torsions:
REMARK  status: ('A' for Active; 'I' for Inactive)
REMARK    1  A    between atoms: C_6  and  C_7 
REMARK    2  A    between atoms: C_8  and  C_9 
REMARK       I    between atoms: C_9  and  N_10 
REMARK    3  A    between atoms: N_10  and  C_11 
REMARK    4  A    between atoms: C_18  and  C_19 
REMARK       I    between atoms: C_19  and  N_20 
ROOT
HETATM    1  C   UNL     1     -40.703  54.518 -53.189  1.00  0.00     0.035 A 
HETATM    2  C   UNL     1     -40.454  53.222 -53.664  1.00  0.00     0.046 A 
HETATM    3  C   UNL     1     -40.178  52.184 -52.746  1.00  0.00     0.030 A 
HETATM    4  C   UNL     1     -40.154  52.478 -51.389  1.00  0.00     0.063 A 
HETATM    5  N   UNL     1     -39.864  51.297 -50.767  1.00  0.00    -0.277 N 
HETATM    6  H   UNL     1     -39.765  51.135 -49.771  1.00  0.00     0.189 HD
HETATM    7  N   UNL     1     -39.707  50.253 -51.598  1.00  0.00    -0.168 NA
HETATM    8  C   UNL     1     -39.900  50.785 -52.826  1.00  0.00     0.156 A 
HETATM    9  C   UNL     1     -40.395  53.756 -50.881  1.00  0.00     0.034 A 
HETATM   10  C   UNL     1     -40.674  54.766 -51.811  1.00  0.00     0.032 A 
ENDROOT
BRANCH   1  11
HETATM   11  N   UNL     1     -41.018  55.611 -54.025  1.00  0.00    -0.327 N 
HETATM   12  C   UNL     1     -42.204  56.310 -54.080  1.00  0.00     0.227 C 
HETATM   13  O   UNL     1     -43.236  56.044 -53.480  1.00  0.00    -0.273 OA
HETATM   14  H   UNL     1     -40.314  55.864 -54.702  1.00  0.00     0.169 HD
BRANCH  12  15
HETATM   15  C   UNL     1     -42.225  57.509 -54.971  1.00  0.00     0.087 A 
HETATM   16  C   UNL     1     -41.739  58.868 -54.501  1.00  0.00     0.032 A 
HETATM   17  C   UNL     1     -43.184  58.664 -54.900  1.00  0.00     0.025 A 
BRANCH  16  18
HETATM   18  C   UNL     1     -41.402  59.170 -53.060  1.00  0.00    -0.051 A 
HETATM   19  C   UNL     1     -42.317  59.830 -52.222  1.00  0.00     0.031 A 
HETATM   20  C   UNL     1     -41.999  60.130 -50.896  1.00  0.00     0.034 A 
HETATM   21  C   UNL     1     -40.757  59.786 -50.373  1.00  0.00     0.024 A 
HETATM   22 CL   UNL     1     -43.153  60.933 -49.903  1.00  0.00    -0.084 Cl
HETATM   23  C   UNL     1     -39.827  59.144 -51.187  1.00  0.00     0.002 A 
HETATM   24  C   UNL     1     -40.146  58.848 -52.515  1.00  0.00     0.007 A 
ENDBRANCH  16  18
ENDBRANCH  12  15
ENDBRANCH   1  11
BRANCH   8  25
HETATM   25  C   UNL     1     -39.824  49.952 -54.035  1.00  0.00     0.270 C 
HETATM   26  N   UNL     1     -41.003  49.861 -54.724  1.00  0.00    -0.365 N 
HETATM   27  H   UNL     1     -41.810  50.362 -54.373  1.00  0.00     0.159 HD
HETATM   28  H   UNL     1     -41.043  49.320 -55.573  1.00  0.00     0.159 HD
HETATM   29  O   UNL     1     -38.815  49.378 -54.427  1.00  0.00    -0.266 OA
ENDBRANCH   8  25
TORSDOF 4
ENDMDL
MODEL 6
REMARK VINA RESULT:      -7.7      2.748      7.041
REMARK  4 active torsions:
REMARK  status: ('A' for Active; 'I' for Inactive)
REMARK    1  A    between atoms: C_6  and  C_7 
REMARK    2  A    between atoms: C_8  and  C_9 
REMARK       I    between atoms: C_9  and  N_10 
REMARK    3  A    between atoms: N_10  and  C_11 
REMARK    4  A    between atoms: C_18  and  C_19 
REMARK       I    between atoms: C_19  and  N_20 
ROOT
HETATM    1  C   UNL     1     -40.945  54.492 -54.407  1.00  0.00     0.035 A 
HETATM    2  C   UNL     1     -40.529  53.158 -54.296  1.00  0.00     0.046 A 
HETATM    3  C   UNL     1     -40.269  52.612 -53.019  1.00  0.00     0.030 A 
HETATM    4  C   UNL     1     -40.427  53.418 -51.901  1.00  0.00     0.063 A 
HETATM    5  N   UNL     1     -40.106  52.627 -50.834  1.00  0.00    -0.277 N 
HETATM    6  H   UNL     1     -40.109  52.886 -49.854  1.00  0.00     0.189 HD
HETATM    7  N   UNL     1     -39.763  51.369 -51.156  1.00  0.00    -0.168 NA
HETATM    8  C   UNL     1     -39.860  51.343 -52.505  1.00  0.00     0.156 A 
HETATM    9  C   UNL     1     -40.838  54.751 -51.973  1.00  0.00     0.034 A 
HETATM   10  C   UNL     1     -41.097  55.267 -53.249  1.00  0.00     0.032 A 
ENDROOT
BRANCH   1  11
HETATM   11  N   UNL     1     -41.259  55.116 -55.634  1.00  0.00    -0.327 N 
HETATM   12  C   UNL     1     -42.448  55.055 -56.326  1.00  0.00     0.227 C 
HETATM   13  O   UNL     1     -43.418  54.364 -56.049  1.00  0.00    -0.273 OA
HETATM   14  H   UNL     1     -40.501  55.609 -56.082  1.00  0.00     0.169 HD
BRANCH  12  15
HETATM   15  C   UNL     1     -42.552  55.916 -57.541  1.00  0.00     0.087 A 
HETATM   16  C   UNL     1     -42.879  57.396 -57.453  1.00  0.00     0.032 A 
HETATM   17  C   UNL     1     -43.814  56.442 -58.164  1.00  0.00     0.025 A 
BRANCH  16  18
HETATM   18  C   UNL     1     -43.330  58.064 -56.176  1.00  0.00    -0.051 A 
HETATM   19  C   UNL     1     -42.399  58.578 -55.257  1.00  0.00     0.031 A 
HETATM   20  C   UNL     1     -42.813  59.177 -54.065  1.00  0.00     0.034 A 
HETATM   21  C   UNL     1     -44.165  59.271 -53.755  1.00  0.00     0.024 A 
HETATM   22 CL   UNL     1     -41.638  59.801 -52.973  1.00  0.00    -0.084 Cl
HETATM   23  C   UNL     1     -45.107  58.757 -54.643  1.00  0.00     0.002 A 
HETATM   24  C   UNL     1     -44.690  58.155 -55.833  1.00  0.00     0.007 A 
ENDBRANCH  16  18
ENDBRANCH  12  15
ENDBRANCH   1  11
BRANCH   8  25
HETATM   25  C   UNL     1     -39.571  50.117 -53.264  1.00  0.00     0.270 C 
HETATM   26  N   UNL     1     -39.362  49.014 -52.482  1.00  0.00    -0.365 N 
HETATM   27  H   UNL     1     -39.428  49.113 -51.476  1.00  0.00     0.159 HD
HETATM   28  H   UNL     1     -39.169  48.125 -52.915  1.00  0.00     0.159 HD
HETATM   29  O   UNL     1     -39.518  50.047 -54.486  1.00  0.00    -0.266 OA
ENDBRANCH   8  25
TORSDOF 4
ENDMDL
MODEL 7
REMARK VINA RESULT:      -7.6      3.394      7.946
REMARK  4 active torsions:
REMARK  status: ('A' for Active; 'I' for Inactive)
REMARK    1  A    between atoms: C_6  and  C_7 
REMARK    2  A    between atoms: C_8  and  C_9 
REMARK       I    between atoms: C_9  and  N_10 
REMARK    3  A    between atoms: N_10  and  C_11 
REMARK    4  A    between atoms: C_18  and  C_19 
REMARK       I    between atoms: C_19  and  N_20 
ROOT
HETATM    1  C   UNL     1     -43.081  54.942 -53.675  1.00  0.00     0.035 A 
HETATM    2  C   UNL     1     -42.537  54.811 -52.389  1.00  0.00     0.046 A 
HETATM    3  C   UNL     1     -41.513  53.865 -52.158  1.00  0.00     0.030 A 
HETATM    4  C   UNL     1     -41.075  53.080 -53.216  1.00  0.00     0.063 A 
HETATM    5  N   UNL     1     -40.101  52.277 -52.693  1.00  0.00    -0.277 N 
HETATM    6  H   UNL     1     -39.559  51.573 -53.180  1.00  0.00     0.189 HD
HETATM    7  N   UNL     1     -39.857  52.475 -51.387  1.00  0.00    -0.168 NA
HETATM    8  C   UNL     1     -40.721  53.456 -51.041  1.00  0.00     0.156 A 
HETATM    9  C   UNL     1     -41.594  53.182 -54.507  1.00  0.00     0.034 A 
HETATM   10  C   UNL     1     -42.602  54.132 -54.713  1.00  0.00     0.032 A 
ENDROOT
BRANCH   1  11
HETATM   11  N   UNL     1     -44.083  55.879 -54.009  1.00  0.00    -0.327 N 
HETATM   12  C   UNL     1     -43.971  57.252 -54.038  1.00  0.00     0.227 C 
HETATM   13  O   UNL     1     -43.007  57.913 -53.680  1.00  0.00    -0.273 OA
HETATM   14  H   UNL     1     -45.000  55.497 -54.185  1.00  0.00     0.169 HD
BRANCH  12  15
HETATM   15  C   UNL     1     -45.156  58.001 -54.551  1.00  0.00     0.087 A 
HETATM   16  C   UNL     1     -45.257  58.453 -55.997  1.00  0.00     0.032 A 
HETATM   17  C   UNL     1     -45.220  59.468 -54.876  1.00  0.00     0.025 A 
BRANCH  16  18
HETATM   18  C   UNL     1     -44.102  58.375 -56.967  1.00  0.00    -0.051 A 
HETATM   19  C   UNL     1     -43.943  57.270 -57.821  1.00  0.00     0.031 A 
HETATM   20  C   UNL     1     -42.864  57.185 -58.702  1.00  0.00     0.034 A 
HETATM   21  C   UNL     1     -41.909  58.196 -58.749  1.00  0.00     0.024 A 
HETATM   22 CL   UNL     1     -42.713  55.817 -59.736  1.00  0.00    -0.084 Cl
HETATM   23  C   UNL     1     -42.037  59.295 -57.904  1.00  0.00     0.002 A 
HETATM   24  C   UNL     1     -43.116  59.376 -57.019  1.00  0.00     0.007 A 
ENDBRANCH  16  18
ENDBRANCH  12  15
ENDBRANCH   1  11
BRANCH   8  25
HETATM   25  C   UNL     1     -40.765  53.981 -49.669  1.00  0.00     0.270 C 
HETATM   26  N   UNL     1     -39.532  54.216 -49.123  1.00  0.00    -0.365 N 
HETATM   27  H   UNL     1     -38.710  54.029 -49.683  1.00  0.00     0.159 HD
HETATM   28  H   UNL     1     -39.464  54.588 -48.189  1.00  0.00     0.159 HD
HETATM   29  O   UNL     1     -41.791  54.207 -49.038  1.00  0.00    -0.266 OA
ENDBRANCH   8  25
TORSDOF 4
ENDMDL
MODEL 8
REMARK VINA RESULT:      -7.5      2.237      3.398
REMARK  4 active torsions:
REMARK  status: ('A' for Active; 'I' for Inactive)
REMARK    1  A    between atoms: C_6  and  C_7 
REMARK    2  A    between atoms: C_8  and  C_9 
REMARK       I    between atoms: C_9  and  N_10 
REMARK    3  A    between atoms: N_10  and  C_11 
REMARK    4  A    between atoms: C_18  and  C_19 
REMARK       I    between atoms: C_19  and  N_20 
ROOT
HETATM    1  C   UNL     1     -42.220  56.138 -55.808  1.00  0.00     0.035 A 
HETATM    2  C   UNL     1     -42.095  57.247 -54.960  1.00  0.00     0.046 A 
HETATM    3  C   UNL     1     -42.377  58.540 -55.456  1.00  0.00     0.030 A 
HETATM    4  C   UNL     1     -42.767  58.678 -56.782  1.00  0.00     0.063 A 
HETATM    5  N   UNL     1     -42.963  60.018 -56.965  1.00  0.00    -0.277 N 
HETATM    6  H   UNL     1     -43.252  60.486 -57.816  1.00  0.00     0.189 HD
HETATM    7  N   UNL     1     -42.746  60.768 -55.871  1.00  0.00    -0.168 NA
HETATM    8  C   UNL     1     -42.385  59.867 -54.928  1.00  0.00     0.156 A 
HETATM    9  C   UNL     1     -42.899  57.597 -57.655  1.00  0.00     0.034 A 
HETATM   10  C   UNL     1     -42.622  56.326 -57.137  1.00  0.00     0.032 A 
ENDROOT
BRANCH   1  11
HETATM   11  N   UNL     1     -41.991  54.807 -55.395  1.00  0.00    -0.327 N 
HETATM   12  C   UNL     1     -40.796  54.246 -55.002  1.00  0.00     0.227 C 
HETATM   13  O   UNL     1     -39.695  54.776 -55.035  1.00  0.00    -0.273 OA
HETATM   14  H   UNL     1     -42.782  54.185 -55.459  1.00  0.00     0.169 HD
BRANCH  12  15
HETATM   15  C   UNL     1     -40.860  52.843 -54.493  1.00  0.00     0.087 A 
HETATM   16  C   UNL     1     -41.235  52.525 -53.056  1.00  0.00     0.032 A 
HETATM   17  C   UNL     1     -39.865  52.169 -53.590  1.00  0.00     0.025 A 
BRANCH  16  18
HETATM   18  C   UNL     1     -41.362  53.583 -51.985  1.00  0.00    -0.051 A 
HETATM   19  C   UNL     1     -42.520  54.372 -51.878  1.00  0.00     0.031 A 
HETATM   20  C   UNL     1     -42.631  55.365 -50.903  1.00  0.00     0.034 A 
HETATM   21  C   UNL     1     -41.588  55.603 -50.015  1.00  0.00     0.024 A 
HETATM   22 CL   UNL     1     -44.072  56.303 -50.802  1.00  0.00    -0.084 Cl
HETATM   23  C   UNL     1     -40.424  54.844 -50.110  1.00  0.00     0.002 A 
HETATM   24  C   UNL     1     -40.313  53.853 -51.089  1.00  0.00     0.007 A 
ENDBRANCH  16  18
ENDBRANCH  12  15
ENDBRANCH   1  11
BRANCH   8  25
HETATM   25  C   UNL     1     -42.067  60.290 -53.556  1.00  0.00     0.270 C 
HETATM   26  N   UNL     1     -42.945  61.202 -53.037  1.00  0.00    -0.365 N 
HETATM   27  H   UNL     1     -43.727  61.503 -53.607  1.00  0.00     0.159 HD
HETATM   28  H   UNL     1     -42.814  61.541 -52.097  1.00  0.00     0.159 HD
HETATM   29  O   UNL     1     -41.115  59.883 -52.901  1.00  0.00    -0.266 OA
ENDBRANCH   8  25
TORSDOF 4
ENDMDL
MODEL 9
REMARK VINA RESULT:      -7.3      3.657      5.170
REMARK  4 active torsions:
REMARK  status: ('A' for Active; 'I' for Inactive)
REMARK    1  A    between atoms: C_6  and  C_7 
REMARK    2  A    between atoms: C_8  and  C_9 
REMARK       I    between atoms: C_9  and  N_10 
REMARK    3  A    between atoms: N_10  and  C_11 
REMARK    4  A    between atoms: C_18  and  C_19 
REMARK       I    between atoms: C_19  and  N_20 
ROOT
HETATM    1  C   UNL     1     -41.794  57.994 -54.475  1.00  0.00     0.035 A 
HETATM    2  C   UNL     1     -41.982  58.532 -53.194  1.00  0.00     0.046 A 
HETATM    3  C   UNL     1     -42.345  59.890 -53.054  1.00  0.00     0.030 A 
HETATM    4  C   UNL     1     -42.501  60.664 -54.196  1.00  0.00     0.063 A 
HETATM    5  N   UNL     1     -42.844  61.908 -53.748  1.00  0.00    -0.277 N 
HETATM    6  H   UNL     1     -43.035  62.731 -54.307  1.00  0.00     0.189 HD
HETATM    7  N   UNL     1     -42.937  62.013 -52.412  1.00  0.00    -0.168 NA
HETATM    8  C   UNL     1     -42.633  60.772 -51.967  1.00  0.00     0.156 A 
HETATM    9  C   UNL     1     -42.320  60.163 -55.486  1.00  0.00     0.034 A 
HETATM   10  C   UNL     1     -41.968  58.812 -55.600  1.00  0.00     0.032 A 
ENDROOT
BRANCH   1  11
HETATM   11  N   UNL     1     -41.462  56.644 -54.717  1.00  0.00    -0.327 N 
HETATM   12  C   UNL     1     -42.308  55.631 -55.114  1.00  0.00     0.227 C 
HETATM   13  O   UNL     1     -43.523  55.699 -55.231  1.00  0.00    -0.273 OA
HETATM   14  H   UNL     1     -40.510  56.383 -54.514  1.00  0.00     0.169 HD
BRANCH  12  15
HETATM   15  C   UNL     1     -41.667  54.317 -55.420  1.00  0.00     0.087 A 
HETATM   16  C   UNL     1     -41.358  53.301 -54.336  1.00  0.00     0.032 A 
HETATM   17  C   UNL     1     -40.243  53.926 -55.144  1.00  0.00     0.025 A 
BRANCH  16  18
HETATM   18  C   UNL     1     -41.470  53.609 -52.862  1.00  0.00    -0.051 A 
HETATM   19  C   UNL     1     -42.718  53.865 -52.265  1.00  0.00     0.031 A 
HETATM   20  C   UNL     1     -42.821  54.173 -50.908  1.00  0.00     0.034 A 
HETATM   21  C   UNL     1     -41.684  54.242 -50.110  1.00  0.00     0.024 A 
HETATM   22 CL   UNL     1     -44.370  54.470 -50.218  1.00  0.00    -0.084 Cl
HETATM   23  C   UNL     1     -40.436  54.007 -50.680  1.00  0.00     0.002 A 
HETATM   24  C   UNL     1     -40.333  53.703 -52.041  1.00  0.00     0.007 A 
ENDBRANCH  16  18
ENDBRANCH  12  15
ENDBRANCH   1  11
BRANCH   8  25
HETATM   25  C   UNL     1     -42.634  60.459 -50.531  1.00  0.00     0.270 C 
HETATM   26  N   UNL     1     -43.873  60.497 -49.953  1.00  0.00    -0.365 N 
HETATM   27  H   UNL     1     -44.673  60.720 -50.533  1.00  0.00     0.159 HD
HETATM   28  H   UNL     1     -43.972  60.284 -48.973  1.00  0.00     0.159 HD
HETATM   29  O   UNL     1     -41.637  60.178 -49.876  1.00  0.00    -0.266 OA
ENDBRANCH   8  25
TORSDOF 4
ENDMDL
MODEL 10
REMARK VINA RESULT:      -7.3      3.812      7.274
REMARK  4 active torsions:
REMARK  status: ('A' for Active; 'I' for Inactive)
REMARK    1  A    between atoms: C_6  and  C_7 
REMARK    2  A    between atoms: C_8  and  C_9 
REMARK       I    between atoms: C_9  and  N_10 
REMARK    3  A    between atoms: N_10  and  C_11 
REMARK    4  A    between atoms: C_18  and  C_19 
REMARK       I    between atoms: C_19  and  N_20 
ROOT
HETATM    1  C   UNL     1     -41.416  55.586 -50.424  1.00  0.00     0.035 A 
HETATM    2  C   UNL     1     -41.132  54.833 -51.572  1.00  0.00     0.046 A 
HETATM    3  C   UNL     1     -40.603  53.530 -51.437  1.00  0.00     0.030 A 
HETATM    4  C   UNL     1     -40.371  53.029 -50.164  1.00  0.00     0.063 A 
HETATM    5  N   UNL     1     -39.866  51.773 -50.354  1.00  0.00    -0.277 N 
HETATM    6  H   UNL     1     -39.581  51.112 -49.641  1.00  0.00     0.189 HD
HETATM    7  N   UNL     1     -39.758  51.405 -51.641  1.00  0.00    -0.168 NA
HETATM    8  C   UNL     1     -40.211  52.481 -52.324  1.00  0.00     0.156 A 
HETATM    9  C   UNL     1     -40.640  53.751 -48.999  1.00  0.00     0.034 A 
HETATM   10  C   UNL     1     -41.172  55.037 -49.159  1.00  0.00     0.032 A 
ENDROOT
BRANCH   1  11
HETATM   11  N   UNL     1     -41.975  56.883 -50.456  1.00  0.00    -0.327 N 
HETATM   12  C   UNL     1     -41.385  58.038 -50.919  1.00  0.00     0.227 C 
HETATM   13  O   UNL     1     -40.228  58.167 -51.295  1.00  0.00    -0.273 OA
HETATM   14  H   UNL     1     -42.885  56.980 -50.033  1.00  0.00     0.169 HD
BRANCH  12  15
HETATM   15  C   UNL     1     -42.250  59.255 -50.954  1.00  0.00     0.087 A 
HETATM   16  C   UNL     1     -43.313  59.456 -52.019  1.00  0.00     0.032 A 
HETATM   17  C   UNL     1     -42.141  60.407 -51.913  1.00  0.00     0.025 A 
BRANCH  16  18
HETATM   18  C   UNL     1     -43.440  58.567 -53.233  1.00  0.00    -0.051 A 
HETATM   19  C   UNL     1     -42.815  58.900 -54.447  1.00  0.00     0.031 A 
HETATM   20  C   UNL     1     -42.949  58.092 -55.577  1.00  0.00     0.034 A 
HETATM   21  C   UNL     1     -43.718  56.934 -55.529  1.00  0.00     0.024 A 
HETATM   22 CL   UNL     1     -42.159  58.535 -57.041  1.00  0.00    -0.084 Cl
HETATM   23  C   UNL     1     -44.359  56.589 -54.343  1.00  0.00     0.002 A 
HETATM   24  C   UNL     1     -44.226  57.402 -53.213  1.00  0.00     0.007 A 
ENDBRANCH  16  18
ENDBRANCH  12  15
ENDBRANCH   1  11
BRANCH   8  25
HETATM   25  C   UNL     1     -40.268  52.478 -53.793  1.00  0.00     0.270 C 
HETATM   26  N   UNL     1     -40.363  51.230 -54.345  1.00  0.00    -0.365 N 
HETATM   27  H   UNL     1     -40.397  50.427 -53.728  1.00  0.00     0.159 HD
HETATM   28  H   UNL     1     -40.420  51.130 -55.347  1.00  0.00     0.159 HD
HETATM   29  O   UNL     1     -40.240  53.481 -54.497  1.00  0.00    -0.266 OA
ENDBRANCH   8  25
TORSDOF 4
ENDMDL
