MODEL 1
REMARK VINA RESULT:      -8.0      0.000      0.000
REMARK  3 active torsions:
REMARK  status: ('A' for Active; 'I' for Inactive)
REMARK    1  A    between atoms: C_7  and  C_8 
REMARK       I    between atoms: C_8  and  N_9 
REMARK    2  A    between atoms: N_9  and  N_10 
REMARK    3  A    between atoms: C_11  and  C_12 
ROOT
HETATM    1  N   UNL     1     -43.952  57.256 -54.324  1.00  0.00    -0.184 NA
HETATM    2  C   UNL     1     -43.941  55.963 -54.373  1.00  0.00     0.148 C 
ENDROOT
BRANCH   1   3
HETATM    3  N   UNL     1     -42.976  57.885 -53.610  1.00  0.00    -0.243 N 
HETATM    4  C   UNL     1     -43.233  58.432 -52.357  1.00  0.00     0.280 C 
HETATM    5  O   UNL     1     -44.346  58.419 -51.838  1.00  0.00    -0.265 OA
HETATM    6  H   UNL     1     -42.038  57.950 -53.988  1.00  0.00     0.192 HD
BRANCH   4   7
HETATM    7  C   UNL     1     -42.065  58.992 -51.692  1.00  0.00     0.102 A 
HETATM    8  C   UNL     1     -42.018  60.003 -50.744  1.00  0.00     0.056 A 
HETATM    9  C   UNL     1     -43.170  60.764 -50.187  1.00  0.00     0.072 C 
HETATM   10  N   UNL     1     -40.748  60.305 -50.272  1.00  0.00    -0.228 NA
HETATM   11  C   UNL     1     -39.854  59.540 -50.843  1.00  0.00     0.165 A 
HETATM   12  N   UNL     1     -38.544  59.615 -50.568  1.00  0.00    -0.378 N 
HETATM   13  S   UNL     1     -40.467  58.431 -51.994  1.00  0.00    -0.045 SA
HETATM   14  H   UNL     1     -38.254  60.451 -50.073  1.00  0.00     0.158 HD
HETATM   15  H   UNL     1     -37.884  59.296 -51.266  1.00  0.00     0.158 HD
ENDBRANCH   4   7
ENDBRANCH   1   3
BRANCH   2  16
HETATM   16  C   UNL     1     -43.059  54.990 -53.679  1.00  0.00    -0.014 C 
HETATM   17  C   UNL     1     -43.043  55.028 -52.183  1.00  0.00     0.216 C 
HETATM   18  O   UNL     1     -41.896  54.419 -51.567  1.00  0.00    -0.344 OA
HETATM   19  C   UNL     1     -41.280  53.407 -52.257  1.00  0.00     0.101 A 
HETATM   20  C   UNL     1     -41.425  53.254 -53.643  1.00  0.00     0.001 A 
HETATM   21  C   UNL     1     -40.440  52.535 -51.550  1.00  0.00     0.069 A 
HETATM   22  C   UNL     1     -40.753  52.222 -54.305  1.00  0.00     0.038 A 
HETATM   23  C   UNL     1     -42.260  54.187 -54.390  1.00  0.00     0.025 C 
HETATM   24  C   UNL     1     -39.939  51.349 -53.584  1.00  0.00     0.036 A 
HETATM   25  C   UNL     1     -39.775  51.501 -52.210  1.00  0.00     0.050 A 
HETATM   26 CL   UNL     1     -39.129  50.071 -54.403  1.00  0.00    -0.084 Cl
HETATM   27 CL   UNL     1     -40.210  52.697 -49.845  1.00  0.00    -0.081 Cl
ENDBRANCH   2  16
TORSDOF 3
ENDMDL
MODEL 2
REMARK VINA RESULT:      -7.9      4.079      6.515
REMARK  3 active torsions:
REMARK  status: ('A' for Active; 'I' for Inactive)
REMARK    1  A    between atoms: C_7  and  C_8 
REMARK       I    between atoms: C_8  and  N_9 
REMARK    2  A    between atoms: N_9  and  N_10 
REMARK    3  A    between atoms: C_11  and  C_12 
ROOT
HETATM    1  N   UNL     1     -42.571  54.612 -55.927  1.00  0.00    -0.184 NA
HETATM    2  C   UNL     1     -42.926  55.842 -55.742  1.00  0.00     0.148 C 
ENDROOT
BRANCH   1   3
HETATM    3  N   UNL     1     -42.125  53.899 -54.854  1.00  0.00    -0.243 N 
HETATM    4  C   UNL     1     -40.766  53.700 -54.630  1.00  0.00     0.280 C 
HETATM    5  O   UNL     1     -39.896  54.111 -55.393  1.00  0.00    -0.265 OA
HETATM    6  H   UNL     1     -42.789  53.512 -54.195  1.00  0.00     0.192 HD
BRANCH   4   7
HETATM    7  C   UNL     1     -40.455  52.991 -53.398  1.00  0.00     0.102 A 
HETATM    8  C   UNL     1     -40.638  53.418 -52.090  1.00  0.00     0.056 A 
HETATM    9  C   UNL     1     -41.195  54.724 -51.644  1.00  0.00     0.072 C 
HETATM   10  N   UNL     1     -40.265  52.501 -51.117  1.00  0.00    -0.228 NA
HETATM   11  C   UNL     1     -39.816  51.405 -51.670  1.00  0.00     0.165 A 
HETATM   12  N   UNL     1     -39.391  50.349 -50.960  1.00  0.00    -0.378 N 
HETATM   13  S   UNL     1     -39.786  51.405 -53.381  1.00  0.00    -0.045 SA
HETATM   14  H   UNL     1     -39.215  50.532 -49.979  1.00  0.00     0.158 HD
HETATM   15  H   UNL     1     -38.733  49.712 -51.389  1.00  0.00     0.158 HD
ENDBRANCH   4   7
ENDBRANCH   1   3
BRANCH   2  16
HETATM   16  C   UNL     1     -42.847  56.684 -54.521  1.00  0.00    -0.014 C 
HETATM   17  C   UNL     1     -44.126  56.949 -53.789  1.00  0.00     0.216 C 
HETATM   18  O   UNL     1     -44.104  58.086 -52.911  1.00  0.00    -0.344 OA
HETATM   19  C   UNL     1     -42.894  58.438 -52.372  1.00  0.00     0.101 A 
HETATM   20  C   UNL     1     -41.678  58.050 -52.955  1.00  0.00     0.001 A 
HETATM   21  C   UNL     1     -42.884  59.255 -51.233  1.00  0.00     0.069 A 
HETATM   22  C   UNL     1     -40.469  58.457 -52.382  1.00  0.00     0.038 A 
HETATM   23  C   UNL     1     -41.683  57.240 -54.167  1.00  0.00     0.025 C 
HETATM   24  C   UNL     1     -40.477  59.251 -51.235  1.00  0.00     0.036 A 
HETATM   25  C   UNL     1     -41.677  59.655 -50.659  1.00  0.00     0.050 A 
HETATM   26 CL   UNL     1     -38.985  59.734 -50.528  1.00  0.00    -0.084 Cl
HETATM   27 CL   UNL     1     -44.354  59.779 -50.493  1.00  0.00    -0.081 Cl
ENDBRANCH   2  16
TORSDOF 3
ENDMDL
MODEL 3
REMARK VINA RESULT:      -7.9      1.831      2.316
REMARK  3 active torsions:
REMARK  status: ('A' for Active; 'I' for Inactive)
REMARK    1  A    between atoms: C_7  and  C_8 
REMARK       I    between atoms: C_8  and  N_9 
REMARK    2  A    between atoms: N_9  and  N_10 
REMARK    3  A    between atoms: C_11  and  C_12 
ROOT
HETATM    1  N   UNL     1     -42.603  57.521 -55.670  1.00  0.00    -0.184 NA
HETATM    2  C   UNL     1     -42.114  56.330 -55.801  1.00  0.00     0.148 C 
ENDROOT
BRANCH   1   3
HETATM    3  N   UNL     1     -42.627  58.078 -54.426  1.00  0.00    -0.243 N 
HETATM    4  C   UNL     1     -42.054  59.321 -54.177  1.00  0.00     0.280 C 
HETATM    5  O   UNL     1     -41.464  59.969 -55.038  1.00  0.00    -0.265 OA
HETATM    6  H   UNL     1     -43.079  57.588 -53.663  1.00  0.00     0.192 HD
BRANCH   4   7
HETATM    7  C   UNL     1     -42.239  59.810 -52.819  1.00  0.00     0.102 A 
HETATM    8  C   UNL     1     -41.399  59.652 -51.726  1.00  0.00     0.056 A 
HETATM    9  C   UNL     1     -40.100  58.927 -51.692  1.00  0.00     0.072 C 
HETATM   10  N   UNL     1     -41.839  60.259 -50.557  1.00  0.00    -0.228 NA
HETATM   11  C   UNL     1     -42.979  60.865 -50.758  1.00  0.00     0.165 A 
HETATM   12  N   UNL     1     -43.628  61.539 -49.797  1.00  0.00    -0.378 N 
HETATM   13  S   UNL     1     -43.612  60.732 -52.343  1.00  0.00    -0.045 SA
HETATM   14  H   UNL     1     -43.311  61.356 -48.852  1.00  0.00     0.158 HD
HETATM   15  H   UNL     1     -44.629  61.659 -49.883  1.00  0.00     0.158 HD
ENDBRANCH   4   7
ENDBRANCH   1   3
BRANCH   2  16
HETATM   16  C   UNL     1     -41.630  55.379 -54.767  1.00  0.00    -0.014 C 
HETATM   17  C   UNL     1     -41.748  55.807 -53.337  1.00  0.00     0.216 C 
HETATM   18  O   UNL     1     -40.899  55.103 -52.416  1.00  0.00    -0.344 OA
HETATM   19  C   UNL     1     -40.546  53.820 -52.746  1.00  0.00     0.101 A 
HETATM   20  C   UNL     1     -40.595  53.350 -54.066  1.00  0.00     0.001 A 
HETATM   21  C   UNL     1     -40.074  52.977 -51.729  1.00  0.00     0.069 A 
HETATM   22  C   UNL     1     -40.198  52.040 -54.355  1.00  0.00     0.038 A 
HETATM   23  C   UNL     1     -41.040  54.237 -55.134  1.00  0.00     0.025 C 
HETATM   24  C   UNL     1     -39.753  51.207 -53.329  1.00  0.00     0.036 A 
HETATM   25  C   UNL     1     -39.684  51.669 -52.018  1.00  0.00     0.050 A 
HETATM   26 CL   UNL     1     -39.282  49.592 -53.690  1.00  0.00    -0.084 Cl
HETATM   27 CL   UNL     1     -39.973  53.518 -50.092  1.00  0.00    -0.081 Cl
ENDBRANCH   2  16
TORSDOF 3
ENDMDL
MODEL 4
REMARK VINA RESULT:      -7.7      4.020      6.148
REMARK  3 active torsions:
REMARK  status: ('A' for Active; 'I' for Inactive)
REMARK    1  A    between atoms: C_7  and  C_8 
REMARK       I    between atoms: C_8  and  N_9 
REMARK    2  A    between atoms: N_9  and  N_10 
REMARK    3  A    between atoms: C_11  and  C_12 
ROOT
HETATM    1  N   UNL     1     -42.036  59.711 -55.856  1.00  0.00    -0.184 NA
HETATM    2  C   UNL     1     -41.776  59.364 -54.637  1.00  0.00     0.148 C 
ENDROOT
BRANCH   1   3
HETATM    3  N   UNL     1     -42.686  58.820 -56.658  1.00  0.00    -0.243 N 
HETATM    4  C   UNL     1     -42.281  58.598 -57.971  1.00  0.00     0.280 C 
HETATM    5  O   UNL     1     -41.353  59.208 -58.497  1.00  0.00    -0.265 OA
HETATM    6  H   UNL     1     -43.474  58.297 -56.296  1.00  0.00     0.192 HD
BRANCH   4   7
HETATM    7  C   UNL     1     -43.026  57.556 -58.663  1.00  0.00     0.102 A 
HETATM    8  C   UNL     1     -43.248  56.247 -58.262  1.00  0.00     0.056 A 
HETATM    9  C   UNL     1     -42.760  55.596 -57.016  1.00  0.00     0.072 C 
HETATM   10  N   UNL     1     -44.024  55.492 -59.131  1.00  0.00    -0.228 NA
HETATM   11  C   UNL     1     -44.386  56.210 -60.162  1.00  0.00     0.165 A 
HETATM   12  N   UNL     1     -45.148  55.730 -61.156  1.00  0.00    -0.378 N 
HETATM   13  S   UNL     1     -43.806  57.820 -60.174  1.00  0.00    -0.045 SA
HETATM   14  H   UNL     1     -45.231  54.720 -61.187  1.00  0.00     0.158 HD
HETATM   15  H   UNL     1     -45.088  56.170 -62.065  1.00  0.00     0.158 HD
ENDBRANCH   4   7
ENDBRANCH   1   3
BRANCH   2  16
HETATM   16  C   UNL     1     -41.992  58.066 -53.949  1.00  0.00    -0.014 C 
HETATM   17  C   UNL     1     -43.197  57.952 -53.067  1.00  0.00     0.216 C 
HETATM   18  O   UNL     1     -43.148  56.894 -52.097  1.00  0.00    -0.344 OA
HETATM   19  C   UNL     1     -42.392  55.793 -52.409  1.00  0.00     0.101 A 
HETATM   20  C   UNL     1     -41.366  55.841 -53.363  1.00  0.00     0.001 A 
HETATM   21  C   UNL     1     -42.628  54.603 -51.707  1.00  0.00     0.069 A 
HETATM   22  C   UNL     1     -40.604  54.698 -53.627  1.00  0.00     0.038 A 
HETATM   23  C   UNL     1     -41.086  57.089 -54.062  1.00  0.00     0.025 C 
HETATM   24  C   UNL     1     -40.867  53.515 -52.936  1.00  0.00     0.036 A 
HETATM   25  C   UNL     1     -41.872  53.462 -51.975  1.00  0.00     0.050 A 
HETATM   26 CL   UNL     1     -39.936  52.109 -53.277  1.00  0.00    -0.084 Cl
HETATM   27 CL   UNL     1     -43.864  54.501 -50.505  1.00  0.00    -0.081 Cl
ENDBRANCH   2  16
TORSDOF 3
ENDMDL
MODEL 5
REMARK VINA RESULT:      -7.6      2.655      4.603
REMARK  3 active torsions:
REMARK  status: ('A' for Active; 'I' for Inactive)
REMARK    1  A    between atoms: C_7  and  C_8 
REMARK       I    between atoms: C_8  and  N_9 
REMARK    2  A    between atoms: N_9  and  N_10 
REMARK    3  A    between atoms: C_11  and  C_12 
ROOT
HETATM    1  N   UNL     1     -41.641  57.174 -51.945  1.00  0.00    -0.184 NA
HETATM    2  C   UNL     1     -41.361  56.305 -51.027  1.00  0.00     0.148 C 
ENDROOT
BRANCH   1   3
HETATM    3  N   UNL     1     -41.760  56.740 -53.232  1.00  0.00    -0.243 N 
HETATM    4  C   UNL     1     -42.908  56.991 -53.977  1.00  0.00     0.280 C 
HETATM    5  O   UNL     1     -43.888  57.573 -53.519  1.00  0.00    -0.265 OA
HETATM    6  H   UNL     1     -40.998  56.234 -53.666  1.00  0.00     0.192 HD
BRANCH   4   7
HETATM    7  C   UNL     1     -42.842  56.536 -55.358  1.00  0.00     0.102 A 
HETATM    8  C   UNL     1     -42.964  55.242 -55.843  1.00  0.00     0.056 A 
HETATM    9  C   UNL     1     -43.185  54.003 -55.049  1.00  0.00     0.072 C 
HETATM   10  N   UNL     1     -42.880  55.125 -57.224  1.00  0.00    -0.228 NA
HETATM   11  C   UNL     1     -42.704  56.298 -57.773  1.00  0.00     0.165 A 
HETATM   12  N   UNL     1     -42.595  56.477 -59.098  1.00  0.00    -0.378 N 
HETATM   13  S   UNL     1     -42.604  57.611 -56.680  1.00  0.00    -0.045 SA
HETATM   14  H   UNL     1     -42.419  55.635 -59.634  1.00  0.00     0.158 HD
HETATM   15  H   UNL     1     -42.105  57.295 -59.436  1.00  0.00     0.158 HD
ENDBRANCH   4   7
ENDBRANCH   1   3
BRANCH   2  16
HETATM   16  C   UNL     1     -41.043  54.859 -51.149  1.00  0.00    -0.014 C 
HETATM   17  C   UNL     1     -41.127  54.034 -49.903  1.00  0.00     0.216 C 
HETATM   18  O   UNL     1     -40.409  52.790 -49.943  1.00  0.00    -0.344 OA
HETATM   19  C   UNL     1     -40.240  52.204 -51.171  1.00  0.00     0.101 A 
HETATM   20  C   UNL     1     -40.329  52.936 -52.363  1.00  0.00     0.001 A 
HETATM   21  C   UNL     1     -39.917  50.840 -51.219  1.00  0.00     0.069 A 
HETATM   22  C   UNL     1     -40.122  52.297 -53.591  1.00  0.00     0.038 A 
HETATM   23  C   UNL     1     -40.618  54.364 -52.316  1.00  0.00     0.025 C 
HETATM   24  C   UNL     1     -39.824  50.935 -53.622  1.00  0.00     0.036 A 
HETATM   25  C   UNL     1     -39.717  50.203 -52.444  1.00  0.00     0.050 A 
HETATM   26 CL   UNL     1     -39.586  50.154 -55.137  1.00  0.00    -0.084 Cl
HETATM   27 CL   UNL     1     -39.773  49.902 -49.776  1.00  0.00    -0.081 Cl
ENDBRANCH   2  16
TORSDOF 3
ENDMDL
MODEL 6
REMARK VINA RESULT:      -7.4      4.518      6.850
REMARK  3 active torsions:
REMARK  status: ('A' for Active; 'I' for Inactive)
REMARK    1  A    between atoms: C_7  and  C_8 
REMARK       I    between atoms: C_8  and  N_9 
REMARK    2  A    between atoms: N_9  and  N_10 
REMARK    3  A    between atoms: C_11  and  C_12 
ROOT
HETATM    1  N   UNL     1     -42.438  57.220 -51.415  1.00  0.00    -0.184 NA
HETATM    2  C   UNL     1     -42.652  58.262 -52.152  1.00  0.00     0.148 C 
ENDROOT
BRANCH   1   3
HETATM    3  N   UNL     1     -41.817  56.145 -51.979  1.00  0.00    -0.243 N 
HETATM    4  C   UNL     1     -42.354  54.865 -51.881  1.00  0.00     0.280 C 
HETATM    5  O   UNL     1     -43.382  54.618 -51.257  1.00  0.00    -0.265 OA
HETATM    6  H   UNL     1     -40.953  56.274 -52.491  1.00  0.00     0.192 HD
BRANCH   4   7
HETATM    7  C   UNL     1     -41.614  53.844 -52.608  1.00  0.00     0.102 A 
HETATM    8  C   UNL     1     -41.787  53.428 -53.921  1.00  0.00     0.056 A 
HETATM    9  C   UNL     1     -42.790  53.934 -54.896  1.00  0.00     0.072 C 
HETATM   10  N   UNL     1     -40.904  52.443 -54.343  1.00  0.00    -0.228 NA
HETATM   11  C   UNL     1     -40.081  52.123 -53.380  1.00  0.00     0.165 A 
HETATM   12  N   UNL     1     -39.118  51.199 -53.518  1.00  0.00    -0.378 N 
HETATM   13  S   UNL     1     -40.319  52.956 -51.904  1.00  0.00    -0.045 SA
HETATM   14  H   UNL     1     -39.213  50.595 -54.326  1.00  0.00     0.158 HD
HETATM   15  H   UNL     1     -38.774  50.733 -52.688  1.00  0.00     0.158 HD
ENDBRANCH   4   7
ENDBRANCH   1   3
BRANCH   2  16
HETATM   16  C   UNL     1     -42.408  58.471 -53.602  1.00  0.00    -0.014 C 
HETATM   17  C   UNL     1     -41.639  59.694 -53.997  1.00  0.00     0.216 C 
HETATM   18  O   UNL     1     -41.797  60.100 -55.366  1.00  0.00    -0.344 OA
HETATM   19  C   UNL     1     -42.089  59.122 -56.280  1.00  0.00     0.101 A 
HETATM   20  C   UNL     1     -42.655  57.895 -55.903  1.00  0.00     0.001 A 
HETATM   21  C   UNL     1     -41.859  59.388 -57.637  1.00  0.00     0.069 A 
HETATM   22  C   UNL     1     -42.960  56.939 -56.876  1.00  0.00     0.038 A 
HETATM   23  C   UNL     1     -42.940  57.632 -54.497  1.00  0.00     0.025 C 
HETATM   24  C   UNL     1     -42.703  57.210 -58.220  1.00  0.00     0.036 A 
HETATM   25  C   UNL     1     -42.158  58.431 -58.607  1.00  0.00     0.050 A 
HETATM   26 CL   UNL     1     -43.067  56.022 -59.410  1.00  0.00    -0.084 Cl
HETATM   27 CL   UNL     1     -41.186  60.892 -58.154  1.00  0.00    -0.081 Cl
ENDBRANCH   2  16
TORSDOF 3
ENDMDL
MODEL 7
REMARK VINA RESULT:      -7.3      4.731      6.896
REMARK  3 active torsions:
REMARK  status: ('A' for Active; 'I' for Inactive)
REMARK    1  A    between atoms: C_7  and  C_8 
REMARK       I    between atoms: C_8  and  N_9 
REMARK    2  A    between atoms: N_9  and  N_10 
REMARK    3  A    between atoms: C_11  and  C_12 
ROOT
HETATM    1  N   UNL     1     -42.143  57.835 -52.598  1.00  0.00    -0.184 NA
HETATM    2  C   UNL     1     -42.679  58.430 -53.615  1.00  0.00     0.148 C 
ENDROOT
BRANCH   1   3
HETATM    3  N   UNL     1     -41.546  56.626 -52.798  1.00  0.00    -0.243 N 
HETATM    4  C   UNL     1     -41.997  55.479 -52.151  1.00  0.00     0.280 C 
HETATM    5  O   UNL     1     -42.921  55.488 -51.341  1.00  0.00    -0.265 OA
HETATM    6  H   UNL     1     -40.764  56.549 -53.436  1.00  0.00     0.192 HD
BRANCH   4   7
HETATM    7  C   UNL     1     -41.306  54.258 -52.537  1.00  0.00     0.102 A 
HETATM    8  C   UNL     1     -40.403  53.510 -51.795  1.00  0.00     0.056 A 
HETATM    9  C   UNL     1     -39.921  53.796 -50.417  1.00  0.00     0.072 C 
HETATM   10  N   UNL     1     -39.927  52.370 -52.430  1.00  0.00    -0.228 NA
HETATM   11  C   UNL     1     -40.457  52.253 -53.619  1.00  0.00     0.165 A 
HETATM   12  N   UNL     1     -40.176  51.237 -54.448  1.00  0.00    -0.378 N 
HETATM   13  S   UNL     1     -41.537  53.503 -54.066  1.00  0.00    -0.045 SA
HETATM   14  H   UNL     1     -39.355  50.695 -54.203  1.00  0.00     0.158 HD
HETATM   15  H   UNL     1     -40.300  51.377 -55.443  1.00  0.00     0.158 HD
ENDBRANCH   4   7
ENDBRANCH   1   3
BRANCH   2  16
HETATM   16  C   UNL     1     -42.844  57.963 -55.015  1.00  0.00    -0.014 C 
HETATM   17  C   UNL     1     -43.646  56.717 -55.230  1.00  0.00     0.216 C 
HETATM   18  O   UNL     1     -43.424  56.056 -56.486  1.00  0.00    -0.344 OA
HETATM   19  C   UNL     1     -43.030  56.836 -57.543  1.00  0.00     0.101 A 
HETATM   20  C   UNL     1     -42.430  58.090 -57.359  1.00  0.00     0.001 A 
HETATM   21  C   UNL     1     -43.190  56.329 -58.840  1.00  0.00     0.069 A 
HETATM   22  C   UNL     1     -42.020  58.836 -58.469  1.00  0.00     0.038 A 
HETATM   23  C   UNL     1     -42.219  58.601 -56.010  1.00  0.00     0.025 C 
HETATM   24  C   UNL     1     -42.207  58.328 -59.754  1.00  0.00     0.036 A 
HETATM   25  C   UNL     1     -42.786  57.077 -59.947  1.00  0.00     0.050 A 
HETATM   26 CL   UNL     1     -41.715  59.259 -61.115  1.00  0.00    -0.084 Cl
HETATM   27 CL   UNL     1     -43.901  54.780 -59.116  1.00  0.00    -0.081 Cl
ENDBRANCH   2  16
TORSDOF 3
ENDMDL
MODEL 8
REMARK VINA RESULT:      -7.3     15.782     18.306
REMARK  3 active torsions:
REMARK  status: ('A' for Active; 'I' for Inactive)
REMARK    1  A    between atoms: C_7  and  C_8 
REMARK       I    between atoms: C_8  and  N_9 
REMARK    2  A    between atoms: N_9  and  N_10 
REMARK    3  A    between atoms: C_11  and  C_12 
ROOT
HETATM    1  N   UNL     1     -35.439  41.431 -52.822  1.00  0.00    -0.184 NA
HETATM    2  C   UNL     1     -36.503  41.600 -53.539  1.00  0.00     0.148 C 
ENDROOT
BRANCH   1   3
HETATM    3  N   UNL     1     -34.283  41.075 -53.452  1.00  0.00    -0.243 N 
HETATM    4  C   UNL     1     -33.975  39.742 -53.703  1.00  0.00     0.280 C 
HETATM    5  O   UNL     1     -34.693  38.811 -53.345  1.00  0.00    -0.265 OA
HETATM    6  H   UNL     1     -33.635  41.791 -53.756  1.00  0.00     0.192 HD
BRANCH   4   7
HETATM    7  C   UNL     1     -32.748  39.538 -54.458  1.00  0.00     0.102 A 
HETATM    8  C   UNL     1     -31.672  38.720 -54.145  1.00  0.00     0.056 A 
HETATM    9  C   UNL     1     -31.523  37.856 -52.942  1.00  0.00     0.072 C 
HETATM   10  N   UNL     1     -30.647  38.717 -55.081  1.00  0.00    -0.228 NA
HETATM   11  C   UNL     1     -30.938  39.508 -56.080  1.00  0.00     0.165 A 
HETATM   12  N   UNL     1     -30.124  39.690 -57.131  1.00  0.00    -0.378 N 
HETATM   13  S   UNL     1     -32.438  40.323 -55.958  1.00  0.00    -0.045 SA
HETATM   14  H   UNL     1     -29.171  39.369 -56.998  1.00  0.00     0.158 HD
HETATM   15  H   UNL     1     -30.203  40.549 -57.660  1.00  0.00     0.158 HD
ENDBRANCH   4   7
ENDBRANCH   1   3
BRANCH   2  16
HETATM   16  C   UNL     1     -36.718  41.378 -54.992  1.00  0.00    -0.014 C 
HETATM   17  C   UNL     1     -36.389  42.511 -55.913  1.00  0.00     0.216 C 
HETATM   18  O   UNL     1     -37.004  42.444 -57.210  1.00  0.00    -0.344 OA
HETATM   19  C   UNL     1     -37.300  41.197 -57.698  1.00  0.00     0.101 A 
HETATM   20  C   UNL     1     -37.443  40.083 -56.858  1.00  0.00     0.001 A 
HETATM   21  C   UNL     1     -37.516  41.056 -59.077  1.00  0.00     0.069 A 
HETATM   22  C   UNL     1     -37.773  38.838 -57.402  1.00  0.00     0.038 A 
HETATM   23  C   UNL     1     -37.265  40.235 -55.420  1.00  0.00     0.025 C 
HETATM   24  C   UNL     1     -37.962  38.710 -58.778  1.00  0.00     0.036 A 
HETATM   25  C   UNL     1     -37.839  39.812 -59.618  1.00  0.00     0.050 A 
HETATM   26 CL   UNL     1     -38.352  37.170 -59.441  1.00  0.00    -0.084 Cl
HETATM   27 CL   UNL     1     -37.376  42.403 -60.148  1.00  0.00    -0.081 Cl
ENDBRANCH   2  16
TORSDOF 3
ENDMDL
MODEL 9
REMARK VINA RESULT:      -7.2     16.202     18.537
REMARK  3 active torsions:
REMARK  status: ('A' for Active; 'I' for Inactive)
REMARK    1  A    between atoms: C_7  and  C_8 
REMARK       I    between atoms: C_8  and  N_9 
REMARK    2  A    between atoms: N_9  and  N_10 
REMARK    3  A    between atoms: C_11  and  C_12 
ROOT
HETATM    1  N   UNL     1     -34.701  41.584 -52.681  1.00  0.00    -0.184 NA
HETATM    2  C   UNL     1     -35.740  41.987 -53.341  1.00  0.00     0.148 C 
ENDROOT
BRANCH   1   3
HETATM    3  N   UNL     1     -33.909  40.628 -53.242  1.00  0.00    -0.243 N 
HETATM    4  C   UNL     1     -32.653  40.331 -52.722  1.00  0.00     0.280 C 
HETATM    5  O   UNL     1     -32.168  40.928 -51.765  1.00  0.00    -0.265 OA
HETATM    6  H   UNL     1     -34.237  40.110 -54.048  1.00  0.00     0.192 HD
BRANCH   4   7
HETATM    7  C   UNL     1     -31.971  39.229 -53.385  1.00  0.00     0.102 A 
HETATM    8  C   UNL     1     -31.711  37.958 -52.893  1.00  0.00     0.056 A 
HETATM    9  C   UNL     1     -32.068  37.427 -51.549  1.00  0.00     0.072 C 
HETATM   10  N   UNL     1     -31.058  37.110 -53.777  1.00  0.00    -0.228 NA
HETATM   11  C   UNL     1     -30.833  37.718 -54.912  1.00  0.00     0.165 A 
HETATM   12  N   UNL     1     -30.220  37.128 -55.949  1.00  0.00    -0.378 N 
HETATM   13  S   UNL     1     -31.362  39.344 -54.990  1.00  0.00    -0.045 SA
HETATM   14  H   UNL     1     -29.731  36.268 -55.728  1.00  0.00     0.158 HD
HETATM   15  H   UNL     1     -29.749  37.712 -56.628  1.00  0.00     0.158 HD
ENDBRANCH   4   7
ENDBRANCH   1   3
BRANCH   2  16
HETATM   16  C   UNL     1     -36.298  41.501 -54.628  1.00  0.00    -0.014 C 
HETATM   17  C   UNL     1     -36.964  40.160 -54.622  1.00  0.00     0.216 C 
HETATM   18  O   UNL     1     -37.089  39.533 -55.908  1.00  0.00    -0.344 OA
HETATM   19  C   UNL     1     -37.166  40.357 -57.002  1.00  0.00     0.101 A 
HETATM   20  C   UNL     1     -36.700  41.679 -56.971  1.00  0.00     0.001 A 
HETATM   21  C   UNL     1     -37.681  39.833 -58.196  1.00  0.00     0.069 A 
HETATM   22  C   UNL     1     -36.775  42.472 -58.121  1.00  0.00     0.038 A 
HETATM   23  C   UNL     1     -36.121  42.214 -55.745  1.00  0.00     0.025 C 
HETATM   24  C   UNL     1     -37.311  41.942 -59.295  1.00  0.00     0.036 A 
HETATM   25  C   UNL     1     -37.761  40.626 -59.340  1.00  0.00     0.050 A 
HETATM   26 CL   UNL     1     -37.415  42.928 -60.701  1.00  0.00    -0.084 Cl
HETATM   27 CL   UNL     1     -38.245  38.203 -58.290  1.00  0.00    -0.081 Cl
ENDBRANCH   2  16
TORSDOF 3
ENDMDL
MODEL 10
REMARK VINA RESULT:      -7.2      3.940      6.963
REMARK  3 active torsions:
REMARK  status: ('A' for Active; 'I' for Inactive)
REMARK    1  A    between atoms: C_7  and  C_8 
REMARK       I    between atoms: C_8  and  N_9 
REMARK    2  A    between atoms: N_9  and  N_10 
REMARK    3  A    between atoms: C_11  and  C_12 
ROOT
HETATM    1  N   UNL     1     -42.627  54.711 -55.671  1.00  0.00    -0.184 NA
HETATM    2  C   UNL     1     -42.942  55.966 -55.661  1.00  0.00     0.148 C 
ENDROOT
BRANCH   1   3
HETATM    3  N   UNL     1     -42.230  54.134 -54.501  1.00  0.00    -0.243 N 
HETATM    4  C   UNL     1     -40.889  53.865 -54.245  1.00  0.00     0.280 C 
HETATM    5  O   UNL     1     -39.995  54.089 -55.057  1.00  0.00    -0.265 OA
HETATM    6  H   UNL     1     -42.917  53.903 -53.795  1.00  0.00     0.192 HD
BRANCH   4   7
HETATM    7  C   UNL     1     -40.625  53.327 -52.919  1.00  0.00     0.102 A 
HETATM    8  C   UNL     1     -40.018  52.125 -52.584  1.00  0.00     0.056 A 
HETATM    9  C   UNL     1     -39.497  51.093 -53.520  1.00  0.00     0.072 C 
HETATM   10  N   UNL     1     -39.883  51.897 -51.221  1.00  0.00    -0.228 NA
HETATM   11  C   UNL     1     -40.371  52.900 -50.539  1.00  0.00     0.165 A 
HETATM   12  N   UNL     1     -40.366  52.945 -49.198  1.00  0.00    -0.378 N 
HETATM   13  S   UNL     1     -41.041  54.167 -51.475  1.00  0.00    -0.045 SA
HETATM   14  H   UNL     1     -40.181  52.060 -48.738  1.00  0.00     0.158 HD
HETATM   15  H   UNL     1     -41.055  53.520 -48.732  1.00  0.00     0.158 HD
ENDBRANCH   4   7
ENDBRANCH   1   3
BRANCH   2  16
HETATM   16  C   UNL     1     -42.859  56.961 -54.561  1.00  0.00    -0.014 C 
HETATM   17  C   UNL     1     -41.490  57.388 -54.128  1.00  0.00     0.216 C 
HETATM   18  O   UNL     1     -41.419  57.978 -52.821  1.00  0.00    -0.344 OA
HETATM   19  C   UNL     1     -42.539  58.620 -52.361  1.00  0.00     0.101 A 
HETATM   20  C   UNL     1     -43.815  58.354 -52.879  1.00  0.00     0.001 A 
HETATM   21  C   UNL     1     -42.399  59.531 -51.304  1.00  0.00     0.069 A 
HETATM   22  C   UNL     1     -44.932  59.016 -52.358  1.00  0.00     0.038 A 
HETATM   23  C   UNL     1     -43.972  57.373 -53.946  1.00  0.00     0.025 C 
HETATM   24  C   UNL     1     -44.771  59.936 -51.323  1.00  0.00     0.036 A 
HETATM   25  C   UNL     1     -43.512  60.195 -50.790  1.00  0.00     0.050 A 
HETATM   26 CL   UNL     1     -46.148  60.758 -50.698  1.00  0.00    -0.084 Cl
HETATM   27 CL   UNL     1     -40.852  59.874 -50.617  1.00  0.00    -0.081 Cl
ENDBRANCH   2  16
TORSDOF 3
ENDMDL
