MODEL 1
REMARK VINA RESULT:      -9.3      0.000      0.000
REMARK  5 active torsions:
REMARK  status: ('A' for Active; 'I' for Inactive)
REMARK    1  A    between atoms: C_7  and  C_8 
REMARK    2  A    between atoms: C_16  and  C_17 
REMARK    3  A    between atoms: C_20  and  O_21 
REMARK    4  A    between atoms: C_24  and  C_25 
REMARK       I    between atoms: C_25  and  N_26 
REMARK    5  A    between atoms: N_26  and  C_27 
ROOT
HETATM    1  C   UNL     1     -44.344  57.200 -58.718  1.00  0.00     0.070 C 
HETATM    2  C   UNL     1     -43.581  57.038 -57.428  1.00  0.00     0.037 C 
HETATM    3  N   UNL     1     -43.609  55.769 -56.856  1.00  0.00    -0.192 N 
HETATM    4  C   UNL     1     -42.814  55.414 -55.829  1.00  0.00     0.726 A 
HETATM    5  N   UNL     1     -42.103  56.377 -55.168  1.00  0.00    -0.083 N 
HETATM    6  N   UNL     1     -41.216  55.832 -54.312  1.00  0.00    -0.135 NA
HETATM    7  C   UNL     1     -41.514  54.523 -54.420  1.00  0.00     0.199 A 
HETATM    8  N   UNL     1     -42.504  54.241 -55.346  1.00  0.00    -0.041 NA
HETATM    9  C   UNL     1     -42.138  57.801 -55.516  1.00  0.00     0.202 C 
HETATM   10  C   UNL     1     -42.862  58.023 -56.836  1.00  0.00     0.062 C 
HETATM   11  H   UNL     1     -44.083  55.035 -57.378  1.00  0.00     0.184 HD
ENDROOT
BRANCH  10  12
HETATM   12  C   UNL     1     -42.787  59.381 -57.438  1.00  0.00     0.256 C 
HETATM   13  N   UNL     1     -41.665  59.552 -58.221  1.00  0.00    -0.323 N 
HETATM   14  H   UNL     1     -41.022  58.777 -58.308  1.00  0.00     0.169 HD
HETATM   15  O   UNL     1     -43.683  60.187 -57.226  1.00  0.00    -0.267 OA
BRANCH  13  16
HETATM   16  C   UNL     1     -41.318  60.695 -58.974  1.00  0.00     0.035 A 
HETATM   17  C   UNL     1     -40.611  61.783 -58.463  1.00  0.00     0.029 A 
HETATM   18  C   UNL     1     -40.330  62.889 -59.272  1.00  0.00     0.002 A 
HETATM   19  C   UNL     1     -40.743  62.910 -60.602  1.00  0.00     0.000 A 
HETATM   20  C   UNL     1     -41.442  61.826 -61.125  1.00  0.00     0.002 A 
HETATM   21  C   UNL     1     -41.735  60.726 -60.313  1.00  0.00     0.029 A 
ENDBRANCH  13  16
ENDBRANCH  10  12
BRANCH   9  22
HETATM   22  C   UNL     1     -42.728  58.615 -54.369  1.00  0.00    -0.028 A 
HETATM   23  C   UNL     1     -41.957  59.614 -53.749  1.00  0.00     0.012 A 
HETATM   24  C   UNL     1     -42.484  60.378 -52.704  1.00  0.00     0.037 A 
HETATM   25  C   UNL     1     -43.785  60.144 -52.274  1.00  0.00     0.065 A 
HETATM   26  C   UNL     1     -44.566  59.162 -52.870  1.00  0.00     0.037 A 
HETATM   27  C   UNL     1     -44.041  58.399 -53.915  1.00  0.00     0.012 A 
BRANCH  25  28
HETATM   28  O   UNL     1     -44.339  60.866 -51.258  1.00  0.00    -0.361 OA
HETATM   29  H   UNL     1     -44.266  61.810 -51.473  1.00  0.00     0.217 HD
ENDBRANCH  25  28
ENDBRANCH   9  22
BRANCH   7  30
HETATM   30  C   UNL     1     -40.814  53.467 -53.693  1.00  0.00     0.016 A 
HETATM   31  C   UNL     1     -40.463  52.267 -54.329  1.00  0.00     0.039 A 
HETATM   32  C   UNL     1     -39.823  51.256 -53.612  1.00  0.00     0.035 A 
HETATM   33 CL   UNL     1     -39.409  49.783 -54.400  1.00  0.00    -0.084 Cl
HETATM   34  C   UNL     1     -39.521  51.425 -52.262  1.00  0.00     0.024 A 
HETATM   35  C   UNL     1     -39.859  52.615 -51.622  1.00  0.00     0.003 A 
HETATM   36  C   UNL     1     -40.503  53.630 -52.334  1.00  0.00     0.015 A 
ENDBRANCH   7  30
TORSDOF 5
ENDMDL
MODEL 2
REMARK VINA RESULT:      -8.7      2.116      2.560
REMARK  5 active torsions:
REMARK  status: ('A' for Active; 'I' for Inactive)
REMARK    1  A    between atoms: C_7  and  C_8 
REMARK    2  A    between atoms: C_16  and  C_17 
REMARK    3  A    between atoms: C_20  and  O_21 
REMARK    4  A    between atoms: C_24  and  C_25 
REMARK       I    between atoms: C_25  and  N_26 
REMARK    5  A    between atoms: N_26  and  C_27 
ROOT
HETATM    1  C   UNL     1     -44.238  57.897 -57.682  1.00  0.00     0.070 C 
HETATM    2  C   UNL     1     -43.441  57.519 -56.459  1.00  0.00     0.037 C 
HETATM    3  N   UNL     1     -43.514  56.183 -56.072  1.00  0.00    -0.192 N 
HETATM    4  C   UNL     1     -42.703  55.650 -55.138  1.00  0.00     0.726 A 
HETATM    5  N   UNL     1     -41.925  56.476 -54.376  1.00  0.00    -0.083 N 
HETATM    6  N   UNL     1     -41.038  55.776 -53.641  1.00  0.00    -0.135 NA
HETATM    7  C   UNL     1     -41.403  54.510 -53.922  1.00  0.00     0.199 A 
HETATM    8  N   UNL     1     -42.436  54.408 -54.839  1.00  0.00    -0.041 NA
HETATM    9  C   UNL     1     -41.902  57.936 -54.517  1.00  0.00     0.202 C 
HETATM   10  C   UNL     1     -42.656  58.377 -55.762  1.00  0.00     0.062 C 
HETATM   11  H   UNL     1     -44.039  55.553 -56.673  1.00  0.00     0.184 HD
ENDROOT
BRANCH  10  12
HETATM   12  C   UNL     1     -42.535  59.802 -56.167  1.00  0.00     0.256 C 
HETATM   13  N   UNL     1     -43.577  60.576 -55.699  1.00  0.00    -0.323 N 
HETATM   14  H   UNL     1     -44.297  60.125 -55.151  1.00  0.00     0.169 HD
HETATM   15  O   UNL     1     -41.570  60.166 -56.825  1.00  0.00    -0.267 OA
BRANCH  13  16
HETATM   16  C   UNL     1     -43.741  61.969 -55.857  1.00  0.00     0.035 A 
HETATM   17  C   UNL     1     -44.151  62.578 -57.043  1.00  0.00     0.029 A 
HETATM   18  C   UNL     1     -44.264  63.971 -57.121  1.00  0.00     0.002 A 
HETATM   19  C   UNL     1     -43.980  64.763 -56.012  1.00  0.00     0.000 A 
HETATM   20  C   UNL     1     -43.577  64.165 -54.821  1.00  0.00     0.002 A 
HETATM   21  C   UNL     1     -43.452  62.775 -54.746  1.00  0.00     0.029 A 
ENDBRANCH  13  16
ENDBRANCH  10  12
BRANCH   9  22
HETATM   22  C   UNL     1     -42.413  58.602 -53.244  1.00  0.00    -0.028 A 
HETATM   23  C   UNL     1     -41.599  59.520 -52.557  1.00  0.00     0.012 A 
HETATM   24  C   UNL     1     -42.054  60.148 -51.394  1.00  0.00     0.037 A 
HETATM   25  C   UNL     1     -43.326  59.860 -50.913  1.00  0.00     0.065 A 
HETATM   26  C   UNL     1     -44.148  58.956 -51.574  1.00  0.00     0.037 A 
HETATM   27  C   UNL     1     -43.695  58.328 -52.736  1.00  0.00     0.012 A 
BRANCH  25  28
HETATM   28  O   UNL     1     -43.811  60.451 -49.784  1.00  0.00    -0.361 OA
HETATM   29  H   UNL     1     -43.692  59.840 -49.039  1.00  0.00     0.217 HD
ENDBRANCH  25  28
ENDBRANCH   9  22
BRANCH   7  30
HETATM   30  C   UNL     1     -40.732  53.331 -53.381  1.00  0.00     0.016 A 
HETATM   31  C   UNL     1     -40.472  52.216 -54.191  1.00  0.00     0.039 A 
HETATM   32  C   UNL     1     -39.859  51.086 -53.650  1.00  0.00     0.035 A 
HETATM   33 CL   UNL     1     -39.557  49.718 -54.651  1.00  0.00    -0.084 Cl
HETATM   34  C   UNL     1     -39.494  51.050 -52.306  1.00  0.00     0.024 A 
HETATM   35  C   UNL     1     -39.742  52.155 -51.493  1.00  0.00     0.003 A 
HETATM   36  C   UNL     1     -40.358  53.288 -52.029  1.00  0.00     0.015 A 
ENDBRANCH   7  30
TORSDOF 5
ENDMDL
MODEL 3
REMARK VINA RESULT:      -8.4      4.457      5.447
REMARK  5 active torsions:
REMARK  status: ('A' for Active; 'I' for Inactive)
REMARK    1  A    between atoms: C_7  and  C_8 
REMARK    2  A    between atoms: C_16  and  C_17 
REMARK    3  A    between atoms: C_20  and  O_21 
REMARK    4  A    between atoms: C_24  and  C_25 
REMARK       I    between atoms: C_25  and  N_26 
REMARK    5  A    between atoms: N_26  and  C_27 
ROOT
HETATM    1  C   UNL     1     -45.710  58.034 -51.228  1.00  0.00     0.070 C 
HETATM    2  C   UNL     1     -44.342  57.524 -51.606  1.00  0.00     0.037 C 
HETATM    3  N   UNL     1     -44.063  56.206 -51.255  1.00  0.00    -0.192 N 
HETATM    4  C   UNL     1     -42.978  55.546 -51.705  1.00  0.00     0.726 A 
HETATM    5  N   UNL     1     -41.992  56.238 -52.350  1.00  0.00    -0.083 N 
HETATM    6  N   UNL     1     -41.088  55.406 -52.904  1.00  0.00    -0.135 NA
HETATM    7  C   UNL     1     -41.526  54.211 -52.464  1.00  0.00     0.199 A 
HETATM    8  N   UNL     1     -42.688  54.273 -51.714  1.00  0.00    -0.041 NA
HETATM    9  C   UNL     1     -42.041  57.682 -52.604  1.00  0.00     0.202 C 
HETATM   10  C   UNL     1     -43.415  58.248 -52.280  1.00  0.00     0.062 C 
HETATM   11  H   UNL     1     -44.816  55.668 -50.833  1.00  0.00     0.184 HD
ENDROOT
BRANCH  10  12
HETATM   12  C   UNL     1     -43.694  59.649 -52.694  1.00  0.00     0.256 C 
HETATM   13  N   UNL     1     -43.804  60.506 -51.620  1.00  0.00    -0.323 N 
HETATM   14  H   UNL     1     -43.695  60.123 -50.690  1.00  0.00     0.169 HD
HETATM   15  O   UNL     1     -43.776  59.924 -53.883  1.00  0.00    -0.267 OA
BRANCH  13  16
HETATM   16  C   UNL     1     -44.012  61.902 -51.662  1.00  0.00     0.035 A 
HETATM   17  C   UNL     1     -45.090  62.513 -52.302  1.00  0.00     0.029 A 
HETATM   18  C   UNL     1     -45.207  63.907 -52.318  1.00  0.00     0.002 A 
HETATM   19  C   UNL     1     -44.254  64.700 -51.683  1.00  0.00     0.000 A 
HETATM   20  C   UNL     1     -43.178  64.101 -51.034  1.00  0.00     0.002 A 
HETATM   21  C   UNL     1     -43.054  62.708 -51.029  1.00  0.00     0.029 A 
ENDBRANCH  13  16
ENDBRANCH  10  12
BRANCH   9  22
HETATM   22  C   UNL     1     -40.914  58.391 -51.861  1.00  0.00    -0.028 A 
HETATM   23  C   UNL     1     -41.066  58.716 -50.501  1.00  0.00     0.012 A 
HETATM   24  C   UNL     1     -40.039  59.356 -49.800  1.00  0.00     0.037 A 
HETATM   25  C   UNL     1     -38.856  59.674 -50.457  1.00  0.00     0.065 A 
HETATM   26  C   UNL     1     -38.683  59.364 -51.800  1.00  0.00     0.037 A 
HETATM   27  C   UNL     1     -39.707  58.724 -52.501  1.00  0.00     0.012 A 
BRANCH  25  28
HETATM   28  O   UNL     1     -37.830  60.297 -49.811  1.00  0.00    -0.361 OA
HETATM   29  H   UNL     1     -37.152  59.636 -49.596  1.00  0.00     0.217 HD
ENDBRANCH  25  28
ENDBRANCH   9  22
BRANCH   7  30
HETATM   30  C   UNL     1     -40.892  52.938 -52.800  1.00  0.00     0.016 A 
HETATM   31  C   UNL     1     -40.382  52.102 -51.797  1.00  0.00     0.039 A 
HETATM   32  C   UNL     1     -39.752  50.904 -52.138  1.00  0.00     0.035 A 
HETATM   33 CL   UNL     1     -39.117  49.892 -50.898  1.00  0.00    -0.084 Cl
HETATM   34  C   UNL     1     -39.626  50.522 -53.472  1.00  0.00     0.024 A 
HETATM   35  C   UNL     1     -40.135  51.343 -54.477  1.00  0.00     0.003 A 
HETATM   36  C   UNL     1     -40.764  52.544 -54.141  1.00  0.00     0.015 A 
ENDBRANCH   7  30
TORSDOF 5
ENDMDL
MODEL 4
REMARK VINA RESULT:      -8.3      2.724      4.767
REMARK  5 active torsions:
REMARK  status: ('A' for Active; 'I' for Inactive)
REMARK    1  A    between atoms: C_7  and  C_8 
REMARK    2  A    between atoms: C_16  and  C_17 
REMARK    3  A    between atoms: C_20  and  O_21 
REMARK    4  A    between atoms: C_24  and  C_25 
REMARK       I    between atoms: C_25  and  N_26 
REMARK    5  A    between atoms: N_26  and  C_27 
ROOT
HETATM    1  C   UNL     1     -45.097  59.518 -53.653  1.00  0.00     0.070 C 
HETATM    2  C   UNL     1     -44.370  58.330 -54.232  1.00  0.00     0.037 C 
HETATM    3  N   UNL     1     -43.292  57.855 -53.492  1.00  0.00    -0.192 N 
HETATM    4  C   UNL     1     -42.680  56.686 -53.765  1.00  0.00     0.726 A 
HETATM    5  N   UNL     1     -42.968  56.034 -54.931  1.00  0.00    -0.083 N 
HETATM    6  N   UNL     1     -42.429  54.799 -54.950  1.00  0.00    -0.135 NA
HETATM    7  C   UNL     1     -41.727  54.799 -53.801  1.00  0.00     0.199 A 
HETATM    8  N   UNL     1     -41.860  55.958 -53.055  1.00  0.00    -0.041 NA
HETATM    9  C   UNL     1     -43.930  56.525 -55.924  1.00  0.00     0.202 C 
HETATM   10  C   UNL     1     -44.726  57.701 -55.379  1.00  0.00     0.062 C 
HETATM   11  H   UNL     1     -43.114  58.295 -52.593  1.00  0.00     0.184 HD
ENDROOT
BRANCH  10  12
HETATM   12  C   UNL     1     -45.891  58.168 -56.177  1.00  0.00     0.256 C 
HETATM   13  N   UNL     1     -45.652  59.370 -56.809  1.00  0.00    -0.323 N 
HETATM   14  H   UNL     1     -44.750  59.808 -56.677  1.00  0.00     0.169 HD
HETATM   15  O   UNL     1     -46.903  57.483 -56.228  1.00  0.00    -0.267 OA
BRANCH  13  16
HETATM   16  C   UNL     1     -46.522  60.062 -57.681  1.00  0.00     0.035 A 
HETATM   17  C   UNL     1     -47.337  61.123 -57.290  1.00  0.00     0.029 A 
HETATM   18  C   UNL     1     -48.191  61.737 -58.213  1.00  0.00     0.002 A 
HETATM   19  C   UNL     1     -48.225  61.304 -59.535  1.00  0.00     0.000 A 
HETATM   20  C   UNL     1     -47.410  60.250 -59.938  1.00  0.00     0.002 A 
HETATM   21  C   UNL     1     -46.566  59.627 -59.013  1.00  0.00     0.029 A 
ENDBRANCH  13  16
ENDBRANCH  10  12
BRANCH   9  22
HETATM   22  C   UNL     1     -43.223  56.842 -57.238  1.00  0.00    -0.028 A 
HETATM   23  C   UNL     1     -43.349  55.966 -58.331  1.00  0.00     0.012 A 
HETATM   24  C   UNL     1     -42.718  56.245 -59.546  1.00  0.00     0.037 A 
HETATM   25  C   UNL     1     -41.956  57.401 -59.673  1.00  0.00     0.065 A 
HETATM   26  C   UNL     1     -41.816  58.281 -58.607  1.00  0.00     0.037 A 
HETATM   27  C   UNL     1     -42.446  58.004 -57.393  1.00  0.00     0.012 A 
BRANCH  25  28
HETATM   28  O   UNL     1     -41.324  57.712 -60.840  1.00  0.00    -0.361 OA
HETATM   29  H   UNL     1     -41.988  58.019 -61.480  1.00  0.00     0.217 HD
ENDBRANCH  25  28
ENDBRANCH   9  22
BRANCH   7  30
HETATM   30  C   UNL     1     -40.949  53.659 -53.323  1.00  0.00     0.016 A 
HETATM   31  C   UNL     1     -40.725  52.545 -54.146  1.00  0.00     0.039 A 
HETATM   32  C   UNL     1     -40.006  51.452 -53.662  1.00  0.00     0.035 A 
HETATM   33 CL   UNL     1     -39.749  50.085 -54.677  1.00  0.00    -0.084 Cl
HETATM   34  C   UNL     1     -39.499  51.453 -52.365  1.00  0.00     0.024 A 
HETATM   35  C   UNL     1     -39.710  52.557 -51.540  1.00  0.00     0.003 A 
HETATM   36  C   UNL     1     -40.432  53.653 -52.018  1.00  0.00     0.015 A 
ENDBRANCH   7  30
TORSDOF 5
ENDMDL
MODEL 5
REMARK VINA RESULT:      -8.3      3.639      8.257
REMARK  5 active torsions:
REMARK  status: ('A' for Active; 'I' for Inactive)
REMARK    1  A    between atoms: C_7  and  C_8 
REMARK    2  A    between atoms: C_16  and  C_17 
REMARK    3  A    between atoms: C_20  and  O_21 
REMARK    4  A    between atoms: C_24  and  C_25 
REMARK       I    between atoms: C_25  and  N_26 
REMARK    5  A    between atoms: N_26  and  C_27 
ROOT
HETATM    1  C   UNL     1     -40.654  53.923 -55.178  1.00  0.00     0.070 C 
HETATM    2  C   UNL     1     -41.704  54.998 -55.306  1.00  0.00     0.037 C 
HETATM    3  N   UNL     1     -41.788  55.624 -56.547  1.00  0.00    -0.192 N 
HETATM    4  C   UNL     1     -42.801  56.447 -56.881  1.00  0.00     0.726 A 
HETATM    5  N   UNL     1     -43.670  56.867 -55.913  1.00  0.00    -0.083 N 
HETATM    6  N   UNL     1     -44.727  57.511 -56.448  1.00  0.00    -0.135 NA
HETATM    7  C   UNL     1     -44.385  57.545 -57.750  1.00  0.00     0.199 A 
HETATM    8  N   UNL     1     -43.194  56.900 -58.040  1.00  0.00    -0.041 NA
HETATM    9  C   UNL     1     -43.581  56.465 -54.505  1.00  0.00     0.202 C 
HETATM   10  C   UNL     1     -42.565  55.349 -54.319  1.00  0.00     0.062 C 
HETATM   11  H   UNL     1     -41.188  55.270 -57.288  1.00  0.00     0.184 HD
ENDROOT
BRANCH  10  12
HETATM   12  C   UNL     1     -42.519  54.678 -52.993  1.00  0.00     0.256 C 
HETATM   13  N   UNL     1     -41.382  54.994 -52.279  1.00  0.00    -0.323 N 
HETATM   14  H   UNL     1     -40.711  55.620 -52.703  1.00  0.00     0.169 HD
HETATM   15  O   UNL     1     -43.446  53.960 -52.644  1.00  0.00    -0.267 OA
BRANCH  13  16
HETATM   16  C   UNL     1     -41.052  54.574 -50.972  1.00  0.00     0.035 A 
HETATM   17  C   UNL     1     -40.528  53.319 -50.664  1.00  0.00     0.029 A 
HETATM   18  C   UNL     1     -40.253  52.972 -49.336  1.00  0.00     0.002 A 
HETATM   19  C   UNL     1     -40.488  53.883 -48.309  1.00  0.00     0.000 A 
HETATM   20  C   UNL     1     -41.003  55.142 -48.606  1.00  0.00     0.002 A 
HETATM   21  C   UNL     1     -41.290  55.483 -49.931  1.00  0.00     0.029 A 
ENDBRANCH  13  16
ENDBRANCH  10  12
BRANCH   9  22
HETATM   22  C   UNL     1     -43.303  57.677 -53.623  1.00  0.00    -0.028 A 
HETATM   23  C   UNL     1     -44.249  58.076 -52.662  1.00  0.00     0.012 A 
HETATM   24  C   UNL     1     -44.007  59.178 -51.836  1.00  0.00     0.037 A 
HETATM   25  C   UNL     1     -42.818  59.885 -51.969  1.00  0.00     0.065 A 
HETATM   26  C   UNL     1     -41.869  59.511 -52.911  1.00  0.00     0.037 A 
HETATM   27  C   UNL     1     -42.109  58.410 -53.736  1.00  0.00     0.012 A 
BRANCH  25  28
HETATM   28  O   UNL     1     -42.541  60.965 -51.183  1.00  0.00    -0.361 OA
HETATM   29  H   UNL     1     -41.663  60.844 -50.788  1.00  0.00     0.217 HD
ENDBRANCH  25  28
ENDBRANCH   9  22
BRANCH   7  30
HETATM   30  C   UNL     1     -45.217  58.135 -58.795  1.00  0.00     0.016 A 
HETATM   31  C   UNL     1     -46.089  57.340 -59.554  1.00  0.00     0.039 A 
HETATM   32  C   UNL     1     -46.854  57.915 -60.570  1.00  0.00     0.035 A 
HETATM   33 CL   UNL     1     -47.909  56.928 -61.505  1.00  0.00    -0.084 Cl
HETATM   34  C   UNL     1     -46.768  59.280 -60.838  1.00  0.00     0.024 A 
HETATM   35  C   UNL     1     -45.910  60.080 -60.085  1.00  0.00     0.003 A 
HETATM   36  C   UNL     1     -45.139  59.509 -59.070  1.00  0.00     0.015 A 
ENDBRANCH   7  30
TORSDOF 5
ENDMDL
MODEL 6
REMARK VINA RESULT:      -8.3      3.322      4.492
REMARK  5 active torsions:
REMARK  status: ('A' for Active; 'I' for Inactive)
REMARK    1  A    between atoms: C_7  and  C_8 
REMARK    2  A    between atoms: C_16  and  C_17 
REMARK    3  A    between atoms: C_20  and  O_21 
REMARK    4  A    between atoms: C_24  and  C_25 
REMARK       I    between atoms: C_25  and  N_26 
REMARK    5  A    between atoms: N_26  and  C_27 
ROOT
HETATM    1  C   UNL     1     -45.680  58.014 -51.336  1.00  0.00     0.070 C 
HETATM    2  C   UNL     1     -44.309  57.492 -51.686  1.00  0.00     0.037 C 
HETATM    3  N   UNL     1     -44.046  56.174 -51.322  1.00  0.00    -0.192 N 
HETATM    4  C   UNL     1     -42.957  55.504 -51.747  1.00  0.00     0.726 A 
HETATM    5  N   UNL     1     -41.955  56.186 -52.380  1.00  0.00    -0.083 N 
HETATM    6  N   UNL     1     -41.048  55.343 -52.912  1.00  0.00    -0.135 NA
HETATM    7  C   UNL     1     -41.501  54.154 -52.472  1.00  0.00     0.199 A 
HETATM    8  N   UNL     1     -42.676  54.229 -51.743  1.00  0.00    -0.041 NA
HETATM    9  C   UNL     1     -41.989  57.628 -52.644  1.00  0.00     0.202 C 
HETATM   10  C   UNL     1     -43.365  58.205 -52.348  1.00  0.00     0.062 C 
HETATM   11  H   UNL     1     -44.810  55.645 -50.910  1.00  0.00     0.184 HD
ENDROOT
BRANCH  10  12
HETATM   12  C   UNL     1     -43.627  59.605 -52.777  1.00  0.00     0.256 C 
HETATM   13  N   UNL     1     -43.932  59.699 -54.118  1.00  0.00    -0.323 N 
HETATM   14  H   UNL     1     -43.945  58.849 -54.666  1.00  0.00     0.169 HD
HETATM   15  O   UNL     1     -43.579  60.509 -51.955  1.00  0.00    -0.267 OA
BRANCH  13  16
HETATM   16  C   UNL     1     -44.283  60.866 -54.832  1.00  0.00     0.035 A 
HETATM   17  C   UNL     1     -43.371  61.659 -55.530  1.00  0.00     0.029 A 
HETATM   18  C   UNL     1     -43.799  62.816 -56.190  1.00  0.00     0.002 A 
HETATM   19  C   UNL     1     -45.143  63.181 -56.169  1.00  0.00     0.000 A 
HETATM   20  C   UNL     1     -46.062  62.393 -55.484  1.00  0.00     0.002 A 
HETATM   21  C   UNL     1     -45.633  61.244 -54.812  1.00  0.00     0.029 A 
ENDBRANCH  13  16
ENDBRANCH  10  12
BRANCH   9  22
HETATM   22  C   UNL     1     -40.871  58.334 -51.885  1.00  0.00    -0.028 A 
HETATM   23  C   UNL     1     -39.688  58.695 -52.555  1.00  0.00     0.012 A 
HETATM   24  C   UNL     1     -38.657  59.354 -51.879  1.00  0.00     0.037 A 
HETATM   25  C   UNL     1     -38.804  59.653 -50.529  1.00  0.00     0.065 A 
HETATM   26  C   UNL     1     -39.963  59.305 -49.846  1.00  0.00     0.037 A 
HETATM   27  C   UNL     1     -40.994  58.649 -50.520  1.00  0.00     0.012 A 
BRANCH  25  28
HETATM   28  O   UNL     1     -37.824  60.294 -49.832  1.00  0.00    -0.361 OA
HETATM   29  H   UNL     1     -37.800  61.223 -50.114  1.00  0.00     0.217 HD
ENDBRANCH  25  28
ENDBRANCH   9  22
BRANCH   7  30
HETATM   30  C   UNL     1     -40.871  52.875 -52.788  1.00  0.00     0.016 A 
HETATM   31  C   UNL     1     -40.356  52.056 -51.773  1.00  0.00     0.039 A 
HETATM   32  C   UNL     1     -39.729  50.852 -52.095  1.00  0.00     0.035 A 
HETATM   33 CL   UNL     1     -39.090  49.861 -50.841  1.00  0.00    -0.084 Cl
HETATM   34  C   UNL     1     -39.610  50.446 -53.423  1.00  0.00     0.024 A 
HETATM   35  C   UNL     1     -40.123  51.249 -54.440  1.00  0.00     0.003 A 
HETATM   36  C   UNL     1     -40.749  52.457 -54.123  1.00  0.00     0.015 A 
ENDBRANCH   7  30
TORSDOF 5
ENDMDL
MODEL 7
REMARK VINA RESULT:      -8.1      4.494      8.622
REMARK  5 active torsions:
REMARK  status: ('A' for Active; 'I' for Inactive)
REMARK    1  A    between atoms: C_7  and  C_8 
REMARK    2  A    between atoms: C_16  and  C_17 
REMARK    3  A    between atoms: C_20  and  O_21 
REMARK    4  A    between atoms: C_24  and  C_25 
REMARK       I    between atoms: C_25  and  N_26 
REMARK    5  A    between atoms: N_26  and  C_27 
ROOT
HETATM    1  C   UNL     1     -42.931  55.260 -56.663  1.00  0.00     0.070 C 
HETATM    2  C   UNL     1     -43.225  56.393 -55.711  1.00  0.00     0.037 C 
HETATM    3  N   UNL     1     -43.630  57.590 -56.294  1.00  0.00    -0.192 N 
HETATM    4  C   UNL     1     -44.126  58.618 -55.579  1.00  0.00     0.726 A 
HETATM    5  N   UNL     1     -44.036  58.590 -54.215  1.00  0.00    -0.083 N 
HETATM    6  N   UNL     1     -44.753  59.585 -53.655  1.00  0.00    -0.135 NA
HETATM    7  C   UNL     1     -45.172  60.255 -54.746  1.00  0.00     0.199 A 
HETATM    8  N   UNL     1     -44.789  59.680 -55.946  1.00  0.00    -0.041 NA
HETATM    9  C   UNL     1     -43.434  57.487 -53.459  1.00  0.00     0.202 C 
HETATM   10  C   UNL     1     -43.153  56.295 -54.361  1.00  0.00     0.062 C 
HETATM   11  H   UNL     1     -43.759  57.595 -57.303  1.00  0.00     0.184 HD
ENDROOT
BRANCH  10  12
HETATM   12  C   UNL     1     -42.752  55.021 -53.707  1.00  0.00     0.256 C 
HETATM   13  N   UNL     1     -41.412  54.741 -53.871  1.00  0.00    -0.323 N 
HETATM   14  H   UNL     1     -40.849  55.394 -54.400  1.00  0.00     0.169 HD
HETATM   15  O   UNL     1     -43.583  54.368 -53.091  1.00  0.00    -0.267 OA
BRANCH  13  16
HETATM   16  C   UNL     1     -40.699  53.645 -53.338  1.00  0.00     0.035 A 
HETATM   17  C   UNL     1     -40.258  52.558 -54.092  1.00  0.00     0.029 A 
HETATM   18  C   UNL     1     -39.580  51.499 -53.479  1.00  0.00     0.002 A 
HETATM   19  C   UNL     1     -39.326  51.525 -52.110  1.00  0.00     0.000 A 
HETATM   20  C   UNL     1     -39.754  52.609 -51.349  1.00  0.00     0.002 A 
HETATM   21  C   UNL     1     -40.444  53.661 -51.959  1.00  0.00     0.029 A 
ENDBRANCH  13  16
ENDBRANCH  10  12
BRANCH   9  22
HETATM   22  C   UNL     1     -42.198  57.970 -52.707  1.00  0.00    -0.028 A 
HETATM   23  C   UNL     1     -41.084  58.445 -53.421  1.00  0.00     0.012 A 
HETATM   24  C   UNL     1     -39.947  58.902 -52.749  1.00  0.00     0.037 A 
HETATM   25  C   UNL     1     -39.919  58.886 -51.360  1.00  0.00     0.065 A 
HETATM   26  C   UNL     1     -41.007  58.421 -50.632  1.00  0.00     0.037 A 
HETATM   27  C   UNL     1     -42.145  57.964 -51.302  1.00  0.00     0.012 A 
BRANCH  25  28
HETATM   28  O   UNL     1     -38.831  59.324 -50.664  1.00  0.00    -0.361 OA
HETATM   29  H   UNL     1     -39.046  60.180 -50.260  1.00  0.00     0.217 HD
ENDBRANCH  25  28
ENDBRANCH   9  22
BRANCH   7  30
HETATM   30  C   UNL     1     -46.021  61.442 -54.695  1.00  0.00     0.016 A 
HETATM   31  C   UNL     1     -46.696  61.793 -53.517  1.00  0.00     0.039 A 
HETATM   32  C   UNL     1     -47.529  62.913 -53.495  1.00  0.00     0.035 A 
HETATM   33 CL   UNL     1     -48.363  63.327 -52.047  1.00  0.00    -0.084 Cl
HETATM   34  C   UNL     1     -47.696  63.697 -54.635  1.00  0.00     0.024 A 
HETATM   35  C   UNL     1     -47.025  63.361 -55.809  1.00  0.00     0.003 A 
HETATM   36  C   UNL     1     -46.193  62.239 -55.838  1.00  0.00     0.015 A 
ENDBRANCH   7  30
TORSDOF 5
ENDMDL
MODEL 8
REMARK VINA RESULT:      -8.1      1.897      2.070
REMARK  5 active torsions:
REMARK  status: ('A' for Active; 'I' for Inactive)
REMARK    1  A    between atoms: C_7  and  C_8 
REMARK    2  A    between atoms: C_16  and  C_17 
REMARK    3  A    between atoms: C_20  and  O_21 
REMARK    4  A    between atoms: C_24  and  C_25 
REMARK       I    between atoms: C_25  and  N_26 
REMARK    5  A    between atoms: N_26  and  C_27 
ROOT
HETATM    1  C   UNL     1     -43.992  56.395 -59.176  1.00  0.00     0.070 C 
HETATM    2  C   UNL     1     -43.338  56.429 -57.817  1.00  0.00     0.037 C 
HETATM    3  N   UNL     1     -43.412  55.254 -57.074  1.00  0.00    -0.192 N 
HETATM    4  C   UNL     1     -42.704  55.061 -55.945  1.00  0.00     0.726 A 
HETATM    5  N   UNL     1     -42.052  56.117 -55.373  1.00  0.00    -0.083 N 
HETATM    6  N   UNL     1     -41.238  55.712 -54.377  1.00  0.00    -0.135 NA
HETATM    7  C   UNL     1     -41.524  54.397 -54.321  1.00  0.00     0.199 A 
HETATM    8  N   UNL     1     -42.433  53.973 -55.275  1.00  0.00    -0.041 NA
HETATM    9  C   UNL     1     -42.060  57.477 -55.923  1.00  0.00     0.202 C 
HETATM   10  C   UNL     1     -42.672  57.499 -57.315  1.00  0.00     0.062 C 
HETATM   11  H   UNL     1     -43.839  54.448 -57.522  1.00  0.00     0.184 HD
ENDROOT
BRANCH  10  12
HETATM   12  C   UNL     1     -42.550  58.758 -58.097  1.00  0.00     0.256 C 
HETATM   13  N   UNL     1     -43.650  59.578 -57.953  1.00  0.00    -0.323 N 
HETATM   14  H   UNL     1     -44.406  59.263 -57.361  1.00  0.00     0.169 HD
HETATM   15  O   UNL     1     -41.538  58.970 -58.750  1.00  0.00    -0.267 OA
BRANCH  13  16
HETATM   16  C   UNL     1     -43.834  60.862 -58.512  1.00  0.00     0.035 A 
HETATM   17  C   UNL     1     -43.528  62.052 -57.854  1.00  0.00     0.029 A 
HETATM   18  C   UNL     1     -43.767  63.285 -58.472  1.00  0.00     0.002 A 
HETATM   19  C   UNL     1     -44.301  63.335 -59.757  1.00  0.00     0.000 A 
HETATM   20  C   UNL     1     -44.602  62.153 -60.426  1.00  0.00     0.002 A 
HETATM   21  C   UNL     1     -44.376  60.922 -59.804  1.00  0.00     0.029 A 
ENDBRANCH  13  16
ENDBRANCH  10  12
BRANCH   9  22
HETATM   22  C   UNL     1     -42.744  58.437 -54.956  1.00  0.00    -0.028 A 
HETATM   23  C   UNL     1     -42.031  59.529 -54.430  1.00  0.00     0.012 A 
HETATM   24  C   UNL     1     -42.645  60.427 -53.552  1.00  0.00     0.037 A 
HETATM   25  C   UNL     1     -43.974  60.235 -53.195  1.00  0.00     0.065 A 
HETATM   26  C   UNL     1     -44.699  59.164 -53.700  1.00  0.00     0.037 A 
HETATM   27  C   UNL     1     -44.088  58.267 -54.579  1.00  0.00     0.012 A 
BRANCH  25  28
HETATM   28  O   UNL     1     -44.612  61.087 -52.342  1.00  0.00    -0.361 OA
HETATM   29  H   UNL     1     -44.844  60.601 -51.534  1.00  0.00     0.217 HD
ENDBRANCH  25  28
ENDBRANCH   9  22
BRANCH   7  30
HETATM   30  C   UNL     1     -40.885  53.464 -53.396  1.00  0.00     0.016 A 
HETATM   31  C   UNL     1     -40.945  53.672 -52.010  1.00  0.00     0.039 A 
HETATM   32  C   UNL     1     -40.303  52.788 -51.142  1.00  0.00     0.035 A 
HETATM   33 CL   UNL     1     -40.371  53.060 -49.444  1.00  0.00    -0.084 Cl
HETATM   34  C   UNL     1     -39.601  51.691 -51.637  1.00  0.00     0.024 A 
HETATM   35  C   UNL     1     -39.540  51.471 -53.012  1.00  0.00     0.003 A 
HETATM   36  C   UNL     1     -40.179  52.354 -53.885  1.00  0.00     0.015 A 
ENDBRANCH   7  30
TORSDOF 5
ENDMDL
MODEL 9
REMARK VINA RESULT:      -7.9      4.512      9.227
REMARK  5 active torsions:
REMARK  status: ('A' for Active; 'I' for Inactive)
REMARK    1  A    between atoms: C_7  and  C_8 
REMARK    2  A    between atoms: C_16  and  C_17 
REMARK    3  A    between atoms: C_20  and  O_21 
REMARK    4  A    between atoms: C_24  and  C_25 
REMARK       I    between atoms: C_25  and  N_26 
REMARK    5  A    between atoms: N_26  and  C_27 
ROOT
HETATM    1  C   UNL     1     -44.107  54.673 -50.321  1.00  0.00     0.070 C 
HETATM    2  C   UNL     1     -44.049  56.073 -50.878  1.00  0.00     0.037 C 
HETATM    3  N   UNL     1     -45.147  56.885 -50.606  1.00  0.00    -0.192 N 
HETATM    4  C   UNL     1     -45.152  58.210 -50.851  1.00  0.00     0.726 A 
HETATM    5  N   UNL     1     -44.141  58.759 -51.588  1.00  0.00    -0.083 N 
HETATM    6  N   UNL     1     -44.192  60.106 -51.566  1.00  0.00    -0.135 NA
HETATM    7  C   UNL     1     -45.331  60.316 -50.879  1.00  0.00     0.199 A 
HETATM    8  N   UNL     1     -45.947  59.158 -50.434  1.00  0.00    -0.041 NA
HETATM    9  C   UNL     1     -43.018  57.990 -52.135  1.00  0.00     0.202 C 
HETATM   10  C   UNL     1     -43.000  56.576 -51.575  1.00  0.00     0.062 C 
HETATM   11  H   UNL     1     -45.870  56.501 -50.004  1.00  0.00     0.184 HD
ENDROOT
BRANCH  10  12
HETATM   12  C   UNL     1     -41.800  55.743 -51.856  1.00  0.00     0.256 C 
HETATM   13  N   UNL     1     -42.124  54.511 -52.385  1.00  0.00    -0.323 N 
HETATM   14  H   UNL     1     -43.101  54.293 -52.523  1.00  0.00     0.169 HD
HETATM   15  O   UNL     1     -40.685  56.193 -51.634  1.00  0.00    -0.267 OA
BRANCH  13  16
HETATM   16  C   UNL     1     -41.229  53.505 -52.810  1.00  0.00     0.035 A 
HETATM   17  C   UNL     1     -41.072  53.110 -54.139  1.00  0.00     0.029 A 
HETATM   18  C   UNL     1     -40.180  52.084 -54.472  1.00  0.00     0.002 A 
HETATM   19  C   UNL     1     -39.430  51.456 -53.481  1.00  0.00     0.000 A 
HETATM   20  C   UNL     1     -39.572  51.849 -52.154  1.00  0.00     0.002 A 
HETATM   21  C   UNL     1     -40.473  52.864 -51.818  1.00  0.00     0.029 A 
ENDBRANCH  13  16
ENDBRANCH  10  12
BRANCH   9  22
HETATM   22  C   UNL     1     -43.040  58.027 -53.659  1.00  0.00    -0.028 A 
HETATM   23  C   UNL     1     -44.006  57.287 -54.365  1.00  0.00     0.012 A 
HETATM   24  C   UNL     1     -44.050  57.318 -55.762  1.00  0.00     0.037 A 
HETATM   25  C   UNL     1     -43.126  58.088 -56.459  1.00  0.00     0.065 A 
HETATM   26  C   UNL     1     -42.162  58.826 -55.784  1.00  0.00     0.037 A 
HETATM   27  C   UNL     1     -42.118  58.798 -54.389  1.00  0.00     0.012 A 
BRANCH  25  28
HETATM   28  O   UNL     1     -43.133  58.147 -57.821  1.00  0.00    -0.361 OA
HETATM   29  H   UNL     1     -43.218  59.076 -58.091  1.00  0.00     0.217 HD
ENDBRANCH  25  28
ENDBRANCH   9  22
BRANCH   7  30
HETATM   30  C   UNL     1     -45.852  61.640 -50.552  1.00  0.00     0.016 A 
HETATM   31  C   UNL     1     -46.288  61.941 -49.253  1.00  0.00     0.039 A 
HETATM   32  C   UNL     1     -46.812  63.202 -48.965  1.00  0.00     0.035 A 
HETATM   33 CL   UNL     1     -47.357  63.556 -47.371  1.00  0.00    -0.084 Cl
HETATM   34  C   UNL     1     -46.904  64.177 -49.957  1.00  0.00     0.024 A 
HETATM   35  C   UNL     1     -46.467  63.891 -51.250  1.00  0.00     0.003 A 
HETATM   36  C   UNL     1     -45.945  62.629 -51.544  1.00  0.00     0.015 A 
ENDBRANCH   7  30
TORSDOF 5
ENDMDL
MODEL 10
REMARK VINA RESULT:      -7.8      4.588      9.001
REMARK  5 active torsions:
REMARK  status: ('A' for Active; 'I' for Inactive)
REMARK    1  A    between atoms: C_7  and  C_8 
REMARK    2  A    between atoms: C_16  and  C_17 
REMARK    3  A    between atoms: C_20  and  O_21 
REMARK    4  A    between atoms: C_24  and  C_25 
REMARK       I    between atoms: C_25  and  N_26 
REMARK    5  A    between atoms: N_26  and  C_27 
ROOT
HETATM    1  C   UNL     1     -44.405  54.980 -50.372  1.00  0.00     0.070 C 
HETATM    2  C   UNL     1     -44.075  56.197 -51.200  1.00  0.00     0.037 C 
HETATM    3  N   UNL     1     -44.573  57.409 -50.730  1.00  0.00    -0.192 N 
HETATM    4  C   UNL     1     -44.193  58.598 -51.235  1.00  0.00     0.726 A 
HETATM    5  N   UNL     1     -43.462  58.634 -52.389  1.00  0.00    -0.083 N 
HETATM    6  N   UNL     1     -43.000  59.875 -52.640  1.00  0.00    -0.135 NA
HETATM    7  C   UNL     1     -43.579  60.578 -51.649  1.00  0.00     0.199 A 
HETATM    8  N   UNL     1     -44.329  59.812 -50.772  1.00  0.00    -0.041 NA
HETATM    9  C   UNL     1     -43.043  57.437 -53.127  1.00  0.00     0.202 C 
HETATM   10  C   UNL     1     -43.313  56.176 -52.321  1.00  0.00     0.062 C 
HETATM   11  H   UNL     1     -45.062  57.396 -49.838  1.00  0.00     0.184 HD
ENDROOT
BRANCH  10  12
HETATM   12  C   UNL     1     -42.742  54.901 -52.832  1.00  0.00     0.256 C 
HETATM   13  N   UNL     1     -41.547  54.576 -52.226  1.00  0.00    -0.323 N 
HETATM   14  H   UNL     1     -41.181  55.206 -51.524  1.00  0.00     0.169 HD
HETATM   15  O   UNL     1     -43.348  54.264 -53.682  1.00  0.00    -0.267 OA
BRANCH  13  16
HETATM   16  C   UNL     1     -40.772  53.415 -52.438  1.00  0.00     0.035 A 
HETATM   17  C   UNL     1     -40.323  52.993 -53.690  1.00  0.00     0.029 A 
HETATM   18  C   UNL     1     -39.581  51.814 -53.815  1.00  0.00     0.002 A 
HETATM   19  C   UNL     1     -39.270  51.056 -52.690  1.00  0.00     0.000 A 
HETATM   20  C   UNL     1     -39.705  51.472 -51.435  1.00  0.00     0.002 A 
HETATM   21  C   UNL     1     -40.459  52.643 -51.310  1.00  0.00     0.029 A 
ENDBRANCH  13  16
ENDBRANCH  10  12
BRANCH   9  22
HETATM   22  C   UNL     1     -43.689  57.411 -54.508  1.00  0.00    -0.028 A 
HETATM   23  C   UNL     1     -42.918  57.083 -55.637  1.00  0.00     0.012 A 
HETATM   24  C   UNL     1     -43.495  57.042 -56.910  1.00  0.00     0.037 A 
HETATM   25  C   UNL     1     -44.846  57.332 -57.059  1.00  0.00     0.065 A 
HETATM   26  C   UNL     1     -45.628  57.660 -55.959  1.00  0.00     0.037 A 
HETATM   27  C   UNL     1     -45.054  57.700 -54.687  1.00  0.00     0.012 A 
BRANCH  25  28
HETATM   28  O   UNL     1     -45.449  57.304 -58.281  1.00  0.00    -0.361 OA
HETATM   29  H   UNL     1     -46.271  56.791 -58.210  1.00  0.00     0.217 HD
ENDBRANCH  25  28
ENDBRANCH   9  22
BRANCH   7  30
HETATM   30  C   UNL     1     -43.387  62.012 -51.449  1.00  0.00     0.016 A 
HETATM   31  C   UNL     1     -43.373  62.563 -50.159  1.00  0.00     0.039 A 
HETATM   32  C   UNL     1     -43.219  63.939 -49.988  1.00  0.00     0.035 A 
HETATM   33 CL   UNL     1     -43.217  64.606 -48.400  1.00  0.00    -0.084 Cl
HETATM   34  C   UNL     1     -43.073  64.780 -51.089  1.00  0.00     0.024 A 
HETATM   35  C   UNL     1     -43.079  64.243 -52.375  1.00  0.00     0.003 A 
HETATM   36  C   UNL     1     -43.235  62.866 -52.552  1.00  0.00     0.015 A 
ENDBRANCH   7  30
TORSDOF 5
ENDMDL
