MODEL 1
REMARK VINA RESULT:      -8.3      0.000      0.000
REMARK  3 active torsions:
REMARK  status: ('A' for Active; 'I' for Inactive)
REMARK    1  A    between atoms: C_3  and  C_4 
REMARK    2  A    between atoms: C_8  and  C_9 
REMARK       I    between atoms: C_9  and  N_10 
REMARK    3  A    between atoms: N_10  and  C_11 
ROOT
HETATM    1  C   UNL     1     -40.668  53.629 -53.671  1.00  0.00     0.064 A 
HETATM    2  N   UNL     1     -40.128  54.376 -54.686  1.00  0.00    -0.277 N 
HETATM    3  H   UNL     1     -39.373  54.105 -55.309  1.00  0.00     0.189 HD
HETATM    4  N   UNL     1     -40.666  55.603 -54.828  1.00  0.00    -0.169 NA
HETATM    5  C   UNL     1     -41.592  55.662 -53.850  1.00  0.00     0.147 A 
HETATM    6  C   UNL     1     -41.636  54.447 -53.121  1.00  0.00     0.071 A 
ENDROOT
BRANCH   5   7
HETATM    7  C   UNL     1     -42.409  56.866 -53.613  1.00  0.00     0.276 C 
HETATM    8  N   UNL     1     -42.554  57.132 -52.266  1.00  0.00    -0.322 N 
HETATM    9  H   UNL     1     -42.052  56.475 -51.671  1.00  0.00     0.169 HD
HETATM   10  O   UNL     1     -42.882  57.510 -54.543  1.00  0.00    -0.266 OA
BRANCH   8  11
HETATM   11  C   UNL     1     -43.304  58.145 -51.649  1.00  0.00     0.035 A 
HETATM   12  C   UNL     1     -42.772  59.383 -51.276  1.00  0.00     0.039 A 
HETATM   13  C   UNL     1     -43.611  60.320 -50.693  1.00  0.00    -0.024 A 
HETATM   14  C   UNL     1     -44.953  60.057 -50.476  1.00  0.00    -0.026 A 
HETATM   15  C   UNL     1     -43.304  61.701 -50.245  1.00  0.00     0.207 C 
HETATM   16  C   UNL     1     -45.597  61.249 -49.875  1.00  0.00     0.207 C 
HETATM   17  C   UNL     1     -45.506  58.841 -50.835  1.00  0.00     0.012 A 
HETATM   18  O   UNL     1     -44.504  62.147 -49.569  1.00  0.00    -0.382 OA
HETATM   19  C   UNL     1     -44.671  57.884 -51.423  1.00  0.00     0.030 A 
ENDBRANCH   8  11
ENDBRANCH   5   7
BRANCH   1  20
HETATM   20  C   UNL     1     -40.256  52.261 -53.333  1.00  0.00     0.014 A 
HETATM   21  C   UNL     1     -40.255  51.298 -54.358  1.00  0.00     0.015 A 
HETATM   22  C   UNL     1     -39.886  49.973 -54.112  1.00  0.00     0.001 A 
HETATM   23  C   UNL     1     -39.514  49.581 -52.831  1.00  0.00     0.002 A 
HETATM   24  C   UNL     1     -39.507  50.515 -51.798  1.00  0.00     0.025 A 
HETATM   25  C   UNL     1     -39.875  51.845 -52.041  1.00  0.00     0.046 A 
HETATM   26 CL   UNL     1     -39.856  52.914 -50.677  1.00  0.00    -0.083 Cl
ENDBRANCH   1  20
TORSDOF 3
ENDMDL
MODEL 2
REMARK VINA RESULT:      -8.2      4.498      6.132
REMARK  3 active torsions:
REMARK  status: ('A' for Active; 'I' for Inactive)
REMARK    1  A    between atoms: C_3  and  C_4 
REMARK    2  A    between atoms: C_8  and  C_9 
REMARK       I    between atoms: C_9  and  N_10 
REMARK    3  A    between atoms: N_10  and  C_11 
ROOT
HETATM    1  C   UNL     1     -41.988  54.314 -54.127  1.00  0.00     0.064 A 
HETATM    2  N   UNL     1     -43.253  54.593 -53.680  1.00  0.00    -0.277 N 
HETATM    3  H   UNL     1     -43.740  54.147 -52.907  1.00  0.00     0.189 HD
HETATM    4  N   UNL     1     -43.897  55.549 -54.376  1.00  0.00    -0.169 NA
HETATM    5  C   UNL     1     -43.012  55.901 -55.331  1.00  0.00     0.147 A 
HETATM    6  C   UNL     1     -41.807  55.169 -55.198  1.00  0.00     0.071 A 
ENDROOT
BRANCH   5   7
HETATM    7  C   UNL     1     -43.326  56.912 -56.358  1.00  0.00     0.276 C 
HETATM    8  N   UNL     1     -42.243  57.165 -57.177  1.00  0.00    -0.322 N 
HETATM    9  H   UNL     1     -41.430  56.594 -56.954  1.00  0.00     0.169 HD
HETATM   10  O   UNL     1     -44.433  57.435 -56.422  1.00  0.00    -0.266 OA
BRANCH   8  11
HETATM   11  C   UNL     1     -42.133  58.098 -58.220  1.00  0.00     0.035 A 
HETATM   12  C   UNL     1     -41.926  59.465 -58.014  1.00  0.00     0.039 A 
HETATM   13  C   UNL     1     -41.810  60.295 -59.119  1.00  0.00    -0.024 A 
HETATM   14  C   UNL     1     -41.894  59.800 -60.409  1.00  0.00    -0.026 A 
HETATM   15  C   UNL     1     -41.556  61.756 -59.169  1.00  0.00     0.207 C 
HETATM   16  C   UNL     1     -41.700  60.909 -61.374  1.00  0.00     0.207 C 
HETATM   17  C   UNL     1     -42.099  58.452 -60.642  1.00  0.00     0.012 A 
HETATM   18  O   UNL     1     -41.701  62.108 -60.566  1.00  0.00    -0.382 OA
HETATM   19  C   UNL     1     -42.220  57.602 -59.537  1.00  0.00     0.030 A 
ENDBRANCH   8  11
ENDBRANCH   5   7
BRANCH   1  20
HETATM   20  C   UNL     1     -41.088  53.323 -53.523  1.00  0.00     0.014 A 
HETATM   21  C   UNL     1     -40.718  52.208 -54.296  1.00  0.00     0.015 A 
HETATM   22  C   UNL     1     -39.874  51.217 -53.788  1.00  0.00     0.001 A 
HETATM   23  C   UNL     1     -39.385  51.319 -52.490  1.00  0.00     0.002 A 
HETATM   24  C   UNL     1     -39.737  52.413 -51.703  1.00  0.00     0.025 A 
HETATM   25  C   UNL     1     -40.582  53.410 -52.210  1.00  0.00     0.046 A 
HETATM   26 CL   UNL     1     -40.975  54.711 -51.136  1.00  0.00    -0.083 Cl
ENDBRANCH   1  20
TORSDOF 3
ENDMDL
MODEL 3
REMARK VINA RESULT:      -8.2      5.269      9.179
REMARK  3 active torsions:
REMARK  status: ('A' for Active; 'I' for Inactive)
REMARK    1  A    between atoms: C_3  and  C_4 
REMARK    2  A    between atoms: C_8  and  C_9 
REMARK       I    between atoms: C_9  and  N_10 
REMARK    3  A    between atoms: N_10  and  C_11 
ROOT
HETATM    1  C   UNL     1     -42.859  57.529 -57.749  1.00  0.00     0.064 A 
HETATM    2  N   UNL     1     -42.368  58.037 -56.574  1.00  0.00    -0.277 N 
HETATM    3  H   UNL     1     -42.125  59.004 -56.381  1.00  0.00     0.189 HD
HETATM    4  N   UNL     1     -42.179  57.123 -55.603  1.00  0.00    -0.169 NA
HETATM    5  C   UNL     1     -42.554  55.962 -56.178  1.00  0.00     0.147 A 
HETATM    6  C   UNL     1     -43.000  56.176 -57.505  1.00  0.00     0.071 A 
ENDROOT
BRANCH   5   7
HETATM    7  C   UNL     1     -42.471  54.672 -55.468  1.00  0.00     0.276 C 
HETATM    8  N   UNL     1     -41.288  54.545 -54.769  1.00  0.00    -0.322 N 
HETATM    9  H   UNL     1     -40.692  55.368 -54.836  1.00  0.00     0.169 HD
HETATM   10  O   UNL     1     -43.376  53.847 -55.536  1.00  0.00    -0.266 OA
BRANCH   8  11
HETATM   11  C   UNL     1     -40.821  53.447 -54.029  1.00  0.00     0.035 A 
HETATM   12  C   UNL     1     -40.527  52.203 -54.596  1.00  0.00     0.039 A 
HETATM   13  C   UNL     1     -40.050  51.194 -53.773  1.00  0.00    -0.024 A 
HETATM   14  C   UNL     1     -39.861  51.392 -52.416  1.00  0.00    -0.026 A 
HETATM   15  C   UNL     1     -39.636  49.814 -54.130  1.00  0.00     0.207 C 
HETATM   16  C   UNL     1     -39.315  50.154 -51.810  1.00  0.00     0.207 C 
HETATM   17  C   UNL     1     -40.145  52.612 -51.829  1.00  0.00     0.012 A 
HETATM   18  O   UNL     1     -39.389  49.163 -52.861  1.00  0.00    -0.382 OA
HETATM   19  C   UNL     1     -40.629  53.640 -52.646  1.00  0.00     0.030 A 
ENDBRANCH   8  11
ENDBRANCH   5   7
BRANCH   1  20
HETATM   20  C   UNL     1     -43.158  58.329 -58.943  1.00  0.00     0.014 A 
HETATM   21  C   UNL     1     -42.079  58.888 -59.653  1.00  0.00     0.015 A 
HETATM   22  C   UNL     1     -42.284  59.670 -60.793  1.00  0.00     0.001 A 
HETATM   23  C   UNL     1     -43.575  59.914 -61.246  1.00  0.00     0.002 A 
HETATM   24  C   UNL     1     -44.661  59.372 -60.562  1.00  0.00     0.025 A 
HETATM   25  C   UNL     1     -44.460  58.586 -59.419  1.00  0.00     0.046 A 
HETATM   26 CL   UNL     1     -45.882  57.987 -58.632  1.00  0.00    -0.083 Cl
ENDBRANCH   1  20
TORSDOF 3
ENDMDL
MODEL 4
REMARK VINA RESULT:      -8.1      3.078      9.168
REMARK  3 active torsions:
REMARK  status: ('A' for Active; 'I' for Inactive)
REMARK    1  A    between atoms: C_3  and  C_4 
REMARK    2  A    between atoms: C_8  and  C_9 
REMARK       I    between atoms: C_9  and  N_10 
REMARK    3  A    between atoms: N_10  and  C_11 
ROOT
HETATM    1  C   UNL     1     -42.219  58.879 -51.144  1.00  0.00     0.064 A 
HETATM    2  N   UNL     1     -41.350  58.480 -50.162  1.00  0.00    -0.277 N 
HETATM    3  H   UNL     1     -40.852  59.077 -49.508  1.00  0.00     0.189 HD
HETATM    4  N   UNL     1     -41.141  57.151 -50.104  1.00  0.00    -0.169 NA
HETATM    5  C   UNL     1     -41.902  56.662 -51.104  1.00  0.00     0.147 A 
HETATM    6  C   UNL     1     -42.602  57.704 -51.761  1.00  0.00     0.071 A 
ENDROOT
BRANCH   5   7
HETATM    7  C   UNL     1     -41.945  55.224 -51.427  1.00  0.00     0.276 C 
HETATM    8  N   UNL     1     -40.806  54.814 -52.091  1.00  0.00    -0.322 N 
HETATM    9  H   UNL     1     -40.123  55.559 -52.217  1.00  0.00     0.169 HD
HETATM   10  O   UNL     1     -42.908  54.530 -51.123  1.00  0.00    -0.266 OA
BRANCH   8  11
HETATM   11  C   UNL     1     -40.506  53.546 -52.614  1.00  0.00     0.035 A 
HETATM   12  C   UNL     1     -40.147  52.449 -51.825  1.00  0.00     0.039 A 
HETATM   13  C   UNL     1     -39.894  51.236 -52.446  1.00  0.00    -0.024 A 
HETATM   14  C   UNL     1     -39.991  51.091 -53.820  1.00  0.00    -0.026 A 
HETATM   15  C   UNL     1     -39.534  49.931 -51.838  1.00  0.00     0.207 C 
HETATM   16  C   UNL     1     -39.699  49.684 -54.186  1.00  0.00     0.207 C 
HETATM   17  C   UNL     1     -40.344  52.158 -54.625  1.00  0.00     0.012 A 
HETATM   18  O   UNL     1     -39.229  49.071 -52.962  1.00  0.00    -0.382 OA
HETATM   19  C   UNL     1     -40.600  53.390 -54.012  1.00  0.00     0.030 A 
ENDBRANCH   8  11
ENDBRANCH   5   7
BRANCH   1  20
HETATM   20  C   UNL     1     -42.614  60.272 -51.394  1.00  0.00     0.014 A 
HETATM   21  C   UNL     1     -43.003  61.057 -50.293  1.00  0.00     0.015 A 
HETATM   22  C   UNL     1     -43.400  62.387 -50.452  1.00  0.00     0.001 A 
HETATM   23  C   UNL     1     -43.422  62.960 -51.718  1.00  0.00     0.002 A 
HETATM   24  C   UNL     1     -43.042  62.204 -52.825  1.00  0.00     0.025 A 
HETATM   25  C   UNL     1     -42.641  60.870 -52.670  1.00  0.00     0.046 A 
HETATM   26 CL   UNL     1     -42.215  60.018 -54.117  1.00  0.00    -0.083 Cl
ENDBRANCH   1  20
TORSDOF 3
ENDMDL
MODEL 5
REMARK VINA RESULT:      -8.1      4.786      5.802
REMARK  3 active torsions:
REMARK  status: ('A' for Active; 'I' for Inactive)
REMARK    1  A    between atoms: C_3  and  C_4 
REMARK    2  A    between atoms: C_8  and  C_9 
REMARK       I    between atoms: C_9  and  N_10 
REMARK    3  A    between atoms: N_10  and  C_11 
ROOT
HETATM    1  C   UNL     1     -40.600  52.787 -53.799  1.00  0.00     0.064 A 
HETATM    2  N   UNL     1     -39.709  53.424 -54.623  1.00  0.00    -0.277 N 
HETATM    3  H   UNL     1     -38.704  53.278 -54.666  1.00  0.00     0.189 HD
HETATM    4  N   UNL     1     -40.256  54.353 -55.430  1.00  0.00    -0.169 NA
HETATM    5  C   UNL     1     -41.565  54.328 -55.108  1.00  0.00     0.147 A 
HETATM    6  C   UNL     1     -41.821  53.353 -54.111  1.00  0.00     0.071 A 
ENDROOT
BRANCH   5   7
HETATM    7  C   UNL     1     -42.546  55.230 -55.736  1.00  0.00     0.276 C 
HETATM    8  N   UNL     1     -42.175  55.579 -57.020  1.00  0.00    -0.322 N 
HETATM    9  H   UNL     1     -41.310  55.133 -57.322  1.00  0.00     0.169 HD
HETATM   10  O   UNL     1     -43.550  55.599 -55.137  1.00  0.00    -0.266 OA
BRANCH   8  11
HETATM   11  C   UNL     1     -42.812  56.460 -57.907  1.00  0.00     0.035 A 
HETATM   12  C   UNL     1     -42.885  57.842 -57.704  1.00  0.00     0.039 A 
HETATM   13  C   UNL     1     -43.521  58.622 -58.659  1.00  0.00    -0.024 A 
HETATM   14  C   UNL     1     -44.079  58.064 -59.796  1.00  0.00    -0.026 A 
HETATM   15  C   UNL     1     -43.699  60.094 -58.695  1.00  0.00     0.207 C 
HETATM   16  C   UNL     1     -44.653  59.141 -60.639  1.00  0.00     0.207 C 
HETATM   17  C   UNL     1     -44.022  56.701 -60.022  1.00  0.00     0.012 A 
HETATM   18  O   UNL     1     -44.573  60.333 -59.824  1.00  0.00    -0.382 OA
HETATM   19  C   UNL     1     -43.386  55.900 -59.067  1.00  0.00     0.030 A 
ENDBRANCH   8  11
ENDBRANCH   5   7
BRANCH   1  20
HETATM   20  C   UNL     1     -40.244  51.730 -52.844  1.00  0.00     0.014 A 
HETATM   21  C   UNL     1     -40.271  52.042 -51.472  1.00  0.00     0.015 A 
HETATM   22  C   UNL     1     -39.935  51.093 -50.503  1.00  0.00     0.001 A 
HETATM   23  C   UNL     1     -39.561  49.810 -50.886  1.00  0.00     0.002 A 
HETATM   24  C   UNL     1     -39.526  49.475 -52.238  1.00  0.00     0.025 A 
HETATM   25  C   UNL     1     -39.864  50.424 -53.213  1.00  0.00     0.046 A 
HETATM   26 CL   UNL     1     -39.759  49.906 -54.863  1.00  0.00    -0.083 Cl
ENDBRANCH   1  20
TORSDOF 3
ENDMDL
MODEL 6
REMARK VINA RESULT:      -7.9      4.426      5.557
REMARK  3 active torsions:
REMARK  status: ('A' for Active; 'I' for Inactive)
REMARK    1  A    between atoms: C_3  and  C_4 
REMARK    2  A    between atoms: C_8  and  C_9 
REMARK       I    between atoms: C_9  and  N_10 
REMARK    3  A    between atoms: N_10  and  C_11 
ROOT
HETATM    1  C   UNL     1     -40.680  53.204 -54.179  1.00  0.00     0.064 A 
HETATM    2  N   UNL     1     -39.846  54.235 -54.526  1.00  0.00    -0.277 N 
HETATM    3  H   UNL     1     -38.851  54.306 -54.337  1.00  0.00     0.189 HD
HETATM    4  N   UNL     1     -40.452  55.256 -55.163  1.00  0.00    -0.169 NA
HETATM    5  C   UNL     1     -41.744  54.876 -55.223  1.00  0.00     0.147 A 
HETATM    6  C   UNL     1     -41.922  53.597 -54.639  1.00  0.00     0.071 A 
ENDROOT
BRANCH   5   7
HETATM    7  C   UNL     1     -42.787  55.730 -55.819  1.00  0.00     0.276 C 
HETATM    8  N   UNL     1     -42.495  56.061 -57.128  1.00  0.00    -0.322 N 
HETATM    9  H   UNL     1     -41.632  55.638 -57.465  1.00  0.00     0.169 HD
HETATM   10  O   UNL     1     -43.771  56.079 -55.176  1.00  0.00    -0.266 OA
BRANCH   8  11
HETATM   11  C   UNL     1     -43.207  56.900 -57.999  1.00  0.00     0.035 A 
HETATM   12  C   UNL     1     -43.489  58.241 -57.722  1.00  0.00     0.039 A 
HETATM   13  C   UNL     1     -44.182  58.984 -58.666  1.00  0.00    -0.024 A 
HETATM   14  C   UNL     1     -44.595  58.429 -59.865  1.00  0.00    -0.026 A 
HETATM   15  C   UNL     1     -44.568  60.416 -58.629  1.00  0.00     0.207 C 
HETATM   16  C   UNL     1     -45.276  59.466 -60.677  1.00  0.00     0.207 C 
HETATM   17  C   UNL     1     -44.331  57.105 -60.164  1.00  0.00     0.012 A 
HETATM   18  O   UNL     1     -45.410  60.602 -59.791  1.00  0.00    -0.382 OA
HETATM   19  C   UNL     1     -43.634  56.341 -59.221  1.00  0.00     0.030 A 
ENDBRANCH   8  11
ENDBRANCH   5   7
BRANCH   1  20
HETATM   20  C   UNL     1     -40.250  51.979 -53.492  1.00  0.00     0.014 A 
HETATM   21  C   UNL     1     -40.191  50.788 -54.237  1.00  0.00     0.015 A 
HETATM   22  C   UNL     1     -39.802  49.581 -53.651  1.00  0.00     0.001 A 
HETATM   23  C   UNL     1     -39.466  49.539 -52.303  1.00  0.00     0.002 A 
HETATM   24  C   UNL     1     -39.516  50.704 -51.542  1.00  0.00     0.025 A 
HETATM   25  C   UNL     1     -39.905  51.918 -52.127  1.00  0.00     0.046 A 
HETATM   26 CL   UNL     1     -39.957  53.298 -51.081  1.00  0.00    -0.083 Cl
ENDBRANCH   1  20
TORSDOF 3
ENDMDL
MODEL 7
REMARK VINA RESULT:      -7.9      1.522      1.803
REMARK  3 active torsions:
REMARK  status: ('A' for Active; 'I' for Inactive)
REMARK    1  A    between atoms: C_3  and  C_4 
REMARK    2  A    between atoms: C_8  and  C_9 
REMARK       I    between atoms: C_9  and  N_10 
REMARK    3  A    between atoms: N_10  and  C_11 
ROOT
HETATM    1  C   UNL     1     -40.686  53.729 -53.659  1.00  0.00     0.064 A 
HETATM    2  N   UNL     1     -40.122  54.505 -54.638  1.00  0.00    -0.277 N 
HETATM    3  H   UNL     1     -39.357  54.248 -55.256  1.00  0.00     0.189 HD
HETATM    4  N   UNL     1     -40.648  55.739 -54.749  1.00  0.00    -0.169 NA
HETATM    5  C   UNL     1     -41.592  55.774 -53.787  1.00  0.00     0.147 A 
HETATM    6  C   UNL     1     -41.658  54.536 -53.100  1.00  0.00     0.071 A 
ENDROOT
BRANCH   5   7
HETATM    7  C   UNL     1     -42.404  56.976 -53.526  1.00  0.00     0.276 C 
HETATM    8  N   UNL     1     -41.660  57.981 -52.941  1.00  0.00    -0.322 N 
HETATM    9  H   UNL     1     -40.679  57.735 -52.818  1.00  0.00     0.169 HD
HETATM   10  O   UNL     1     -43.596  57.016 -53.811  1.00  0.00    -0.266 OA
BRANCH   8  11
HETATM   11  C   UNL     1     -42.089  59.240 -52.491  1.00  0.00     0.035 A 
HETATM   12  C   UNL     1     -42.415  60.296 -53.347  1.00  0.00     0.039 A 
HETATM   13  C   UNL     1     -42.850  61.491 -52.793  1.00  0.00    -0.024 A 
HETATM   14  C   UNL     1     -42.967  61.656 -51.424  1.00  0.00    -0.026 A 
HETATM   15  C   UNL     1     -43.284  62.735 -53.477  1.00  0.00     0.207 C 
HETATM   16  C   UNL     1     -43.484  63.016 -51.135  1.00  0.00     0.207 C 
HETATM   17  C   UNL     1     -42.652  60.628 -50.555  1.00  0.00     0.012 A 
HETATM   18  O   UNL     1     -43.466  63.698 -52.411  1.00  0.00    -0.382 OA
HETATM   19  C   UNL     1     -42.209  59.417 -51.097  1.00  0.00     0.030 A 
ENDBRANCH   8  11
ENDBRANCH   5   7
BRANCH   1  20
HETATM   20  C   UNL     1     -40.291  52.347 -53.358  1.00  0.00     0.014 A 
HETATM   21  C   UNL     1     -40.327  51.406 -54.404  1.00  0.00     0.015 A 
HETATM   22  C   UNL     1     -39.975  50.071 -54.193  1.00  0.00     0.001 A 
HETATM   23  C   UNL     1     -39.584  49.645 -52.929  1.00  0.00     0.002 A 
HETATM   24  C   UNL     1     -39.540  50.556 -51.876  1.00  0.00     0.025 A 
HETATM   25  C   UNL     1     -39.890  51.898 -52.084  1.00  0.00     0.046 A 
HETATM   26 CL   UNL     1     -39.825  52.936 -50.698  1.00  0.00    -0.083 Cl
ENDBRANCH   1  20
TORSDOF 3
ENDMDL
MODEL 8
REMARK VINA RESULT:      -7.8      1.626      2.184
REMARK  3 active torsions:
REMARK  status: ('A' for Active; 'I' for Inactive)
REMARK    1  A    between atoms: C_3  and  C_4 
REMARK    2  A    between atoms: C_8  and  C_9 
REMARK       I    between atoms: C_9  and  N_10 
REMARK    3  A    between atoms: N_10  and  C_11 
ROOT
HETATM    1  C   UNL     1     -41.649  54.699 -52.689  1.00  0.00     0.064 A 
HETATM    2  N   UNL     1     -41.388  55.845 -53.395  1.00  0.00    -0.277 N 
HETATM    3  H   UNL     1     -40.660  55.981 -54.090  1.00  0.00     0.189 HD
HETATM    4  N   UNL     1     -42.187  56.885 -53.091  1.00  0.00    -0.169 NA
HETATM    5  C   UNL     1     -42.999  56.397 -52.132  1.00  0.00     0.147 A 
HETATM    6  C   UNL     1     -42.708  55.036 -51.868  1.00  0.00     0.071 A 
ENDROOT
BRANCH   5   7
HETATM    7  C   UNL     1     -44.025  57.227 -51.475  1.00  0.00     0.276 C 
HETATM    8  N   UNL     1     -43.951  58.547 -51.873  1.00  0.00    -0.322 N 
HETATM    9  H   UNL     1     -43.227  58.716 -52.569  1.00  0.00     0.169 HD
HETATM   10  O   UNL     1     -44.818  56.745 -50.672  1.00  0.00    -0.266 OA
BRANCH   8  11
HETATM   11  C   UNL     1     -44.710  59.640 -51.426  1.00  0.00     0.035 A 
HETATM   12  C   UNL     1     -44.376  60.406 -50.306  1.00  0.00     0.039 A 
HETATM   13  C   UNL     1     -45.186  61.480 -49.968  1.00  0.00    -0.024 A 
HETATM   14  C   UNL     1     -46.308  61.804 -50.712  1.00  0.00    -0.026 A 
HETATM   15  C   UNL     1     -45.032  62.456 -48.861  1.00  0.00     0.207 C 
HETATM   16  C   UNL     1     -46.950  63.009 -50.133  1.00  0.00     0.207 C 
HETATM   17  C   UNL     1     -46.662  61.063 -51.824  1.00  0.00     0.012 A 
HETATM   18  O   UNL     1     -46.247  63.242 -48.890  1.00  0.00    -0.382 OA
HETATM   19  C   UNL     1     -45.856  59.975 -52.177  1.00  0.00     0.030 A 
ENDBRANCH   8  11
ENDBRANCH   5   7
BRANCH   1  20
HETATM   20  C   UNL     1     -40.922  53.433 -52.854  1.00  0.00     0.014 A 
HETATM   21  C   UNL     1     -41.079  52.734 -54.065  1.00  0.00     0.015 A 
HETATM   22  C   UNL     1     -40.428  51.519 -54.293  1.00  0.00     0.001 A 
HETATM   23  C   UNL     1     -39.609  50.973 -53.311  1.00  0.00     0.002 A 
HETATM   24  C   UNL     1     -39.437  51.645 -52.103  1.00  0.00     0.025 A 
HETATM   25  C   UNL     1     -40.087  52.866 -51.871  1.00  0.00     0.046 A 
HETATM   26 CL   UNL     1     -39.823  53.600 -50.324  1.00  0.00    -0.083 Cl
ENDBRANCH   1  20
TORSDOF 3
ENDMDL
MODEL 9
REMARK VINA RESULT:      -7.6      2.856      9.157
REMARK  3 active torsions:
REMARK  status: ('A' for Active; 'I' for Inactive)
REMARK    1  A    between atoms: C_3  and  C_4 
REMARK    2  A    between atoms: C_8  and  C_9 
REMARK       I    between atoms: C_9  and  N_10 
REMARK    3  A    between atoms: N_10  and  C_11 
ROOT
HETATM    1  C   UNL     1     -42.641  60.048 -50.690  1.00  0.00     0.064 A 
HETATM    2  N   UNL     1     -41.582  59.627 -49.928  1.00  0.00    -0.277 N 
HETATM    3  H   UNL     1     -41.266  60.025 -49.048  1.00  0.00     0.189 HD
HETATM    4  N   UNL     1     -40.898  58.588 -50.443  1.00  0.00    -0.169 NA
HETATM    5  C   UNL     1     -41.535  58.327 -51.603  1.00  0.00     0.147 A 
HETATM    6  C   UNL     1     -42.636  59.202 -51.782  1.00  0.00     0.071 A 
ENDROOT
BRANCH   5   7
HETATM    7  C   UNL     1     -41.087  57.268 -52.525  1.00  0.00     0.276 C 
HETATM    8  N   UNL     1     -41.444  56.012 -52.075  1.00  0.00    -0.322 N 
HETATM    9  H   UNL     1     -41.977  56.032 -51.208  1.00  0.00     0.169 HD
HETATM   10  O   UNL     1     -40.468  57.533 -53.549  1.00  0.00    -0.266 OA
BRANCH   8  11
HETATM   11  C   UNL     1     -41.145  54.762 -52.641  1.00  0.00     0.035 A 
HETATM   12  C   UNL     1     -40.423  53.766 -51.975  1.00  0.00     0.039 A 
HETATM   13  C   UNL     1     -40.204  52.559 -52.622  1.00  0.00    -0.024 A 
HETATM   14  C   UNL     1     -40.682  52.323 -53.900  1.00  0.00    -0.026 A 
HETATM   15  C   UNL     1     -39.508  51.346 -52.126  1.00  0.00     0.207 C 
HETATM   16  C   UNL     1     -40.324  50.944 -54.311  1.00  0.00     0.207 C 
HETATM   17  C   UNL     1     -41.398  53.290 -54.581  1.00  0.00     0.012 A 
HETATM   18  O   UNL     1     -39.436  50.466 -53.274  1.00  0.00    -0.382 OA
HETATM   19  C   UNL     1     -41.625  54.515 -53.943  1.00  0.00     0.030 A 
ENDBRANCH   8  11
ENDBRANCH   5   7
BRANCH   1  20
HETATM   20  C   UNL     1     -43.541  61.151 -50.330  1.00  0.00     0.014 A 
HETATM   21  C   UNL     1     -43.000  62.448 -50.251  1.00  0.00     0.015 A 
HETATM   22  C   UNL     1     -43.790  63.547 -49.905  1.00  0.00     0.001 A 
HETATM   23  C   UNL     1     -45.141  63.372 -49.626  1.00  0.00     0.002 A 
HETATM   24  C   UNL     1     -45.702  62.099 -49.697  1.00  0.00     0.025 A 
HETATM   25  C   UNL     1     -44.913  60.994 -50.045  1.00  0.00     0.046 A 
HETATM   26 CL   UNL     1     -45.708  59.455 -50.076  1.00  0.00    -0.083 Cl
ENDBRANCH   1  20
TORSDOF 3
ENDMDL
MODEL 10
REMARK VINA RESULT:      -7.5     16.362     18.378
REMARK  3 active torsions:
REMARK  status: ('A' for Active; 'I' for Inactive)
REMARK    1  A    between atoms: C_3  and  C_4 
REMARK    2  A    between atoms: C_8  and  C_9 
REMARK       I    between atoms: C_9  and  N_10 
REMARK    3  A    between atoms: N_10  and  C_11 
ROOT
HETATM    1  C   UNL     1     -37.001  41.247 -56.087  1.00  0.00     0.064 A 
HETATM    2  N   UNL     1     -38.028  41.424 -55.196  1.00  0.00    -0.277 N 
HETATM    3  H   UNL     1     -39.017  41.505 -55.412  1.00  0.00     0.189 HD
HETATM    4  N   UNL     1     -37.643  41.520 -53.909  1.00  0.00    -0.169 NA
HETATM    5  C   UNL     1     -36.300  41.412 -53.965  1.00  0.00     0.147 A 
HETATM    6  C   UNL     1     -35.865  41.222 -55.300  1.00  0.00     0.071 A 
ENDROOT
BRANCH   5   7
HETATM    7  C   UNL     1     -35.454  41.502 -52.762  1.00  0.00     0.276 C 
HETATM    8  N   UNL     1     -34.924  40.275 -52.414  1.00  0.00    -0.322 N 
HETATM    9  H   UNL     1     -35.181  39.530 -53.059  1.00  0.00     0.169 HD
HETATM   10  O   UNL     1     -35.284  42.567 -52.179  1.00  0.00    -0.266 OA
BRANCH   8  11
HETATM   11  C   UNL     1     -34.128  39.948 -51.305  1.00  0.00     0.035 A 
HETATM   12  C   UNL     1     -34.599  39.234 -50.199  1.00  0.00     0.039 A 
HETATM   13  C   UNL     1     -33.717  38.946 -49.168  1.00  0.00    -0.024 A 
HETATM   14  C   UNL     1     -32.393  39.348 -49.213  1.00  0.00    -0.026 A 
HETATM   15  C   UNL     1     -33.958  38.184 -47.918  1.00  0.00     0.207 C 
HETATM   16  C   UNL     1     -31.694  38.871 -47.995  1.00  0.00     0.207 C 
HETATM   17  C   UNL     1     -31.901  40.055 -50.294  1.00  0.00     0.012 A 
HETATM   18  O   UNL     1     -32.742  38.344 -47.148  1.00  0.00    -0.382 OA
HETATM   19  C   UNL     1     -32.778  40.355 -51.342  1.00  0.00     0.030 A 
ENDBRANCH   8  11
ENDBRANCH   5   7
BRANCH   1  20
HETATM   20  C   UNL     1     -37.172  41.103 -57.538  1.00  0.00     0.014 A 
HETATM   21  C   UNL     1     -37.091  42.262 -58.332  1.00  0.00     0.015 A 
HETATM   22  C   UNL     1     -37.252  42.207 -59.719  1.00  0.00     0.001 A 
HETATM   23  C   UNL     1     -37.504  40.990 -60.342  1.00  0.00     0.002 A 
HETATM   24  C   UNL     1     -37.590  39.828 -59.579  1.00  0.00     0.025 A 
HETATM   25  C   UNL     1     -37.426  39.878 -58.188  1.00  0.00     0.046 A 
HETATM   26 CL   UNL     1     -37.580  38.377 -57.337  1.00  0.00    -0.083 Cl
ENDBRANCH   1  20
TORSDOF 3
ENDMDL
