MODEL 1
REMARK VINA RESULT:      -8.5      0.000      0.000
REMARK  4 active torsions:
REMARK  status: ('A' for Active; 'I' for Inactive)
REMARK    1  A    between atoms: O_2  and  C_3 
REMARK    2  A    between atoms: C_4  and  N_5 
REMARK    3  A    between atoms: N_8  and  C_9 
REMARK    4  A    between atoms: C_9  and  C_10 
ROOT
HETATM    1  N   UNL     1     -41.162  54.195 -53.388  1.00  0.00    -0.375 N 
HETATM    2  C   UNL     1     -42.624  54.379 -53.370  1.00  0.00     0.153 C 
HETATM    3  C   UNL     1     -42.974  55.886 -53.269  1.00  0.00     0.292 C 
HETATM    4  N   UNL     1     -42.366  56.758 -54.307  1.00  0.00     0.095 N 
HETATM    5  C   UNL     1     -40.904  56.483 -54.330  1.00  0.00     0.292 C 
HETATM    6  C   UNL     1     -40.496  54.993 -54.442  1.00  0.00     0.153 C 
ENDROOT
BRANCH   4   7
HETATM    7  C   UNL     1     -42.991  56.521 -55.624  1.00  0.00     0.313 C 
BRANCH   7   8
HETATM    8  C   UNL     1     -42.640  57.574 -56.656  1.00  0.00    -0.001 A 
HETATM    9  C   UNL     1     -42.417  57.301 -58.016  1.00  0.00     0.070 A 
HETATM   10  C   UNL     1     -42.064  58.260 -58.955  1.00  0.00     0.012 A 
HETATM   11  N   UNL     1     -42.505  56.125 -58.720  1.00  0.00    -0.277 N 
HETATM   12  C   UNL     1     -41.961  57.545 -60.171  1.00  0.00     0.152 A 
HETATM   13  C   UNL     1     -41.902  59.593 -58.547  1.00  0.00     0.015 A 
HETATM   14  N   UNL     1     -42.228  56.243 -60.032  1.00  0.00    -0.186 NA
HETATM   15  C   UNL     1     -42.100  59.907 -57.197  1.00  0.00     0.002 A 
HETATM   16  C   UNL     1     -42.454  58.917 -56.275  1.00  0.00     0.011 A 
HETATM   17  H   UNL     1     -42.783  55.223 -58.344  1.00  0.00     0.189 HD
ENDBRANCH   7   8
ENDBRANCH   4   7
BRANCH   1  18
HETATM   18  C   UNL     1     -40.617  52.908 -53.219  1.00  0.00     0.064 A 
HETATM   19  C   UNL     1     -39.875  52.457 -52.099  1.00  0.00     0.097 A 
HETATM   20  C   UNL     1     -39.407  51.134 -52.036  1.00  0.00     0.081 A 
HETATM   21  C   UNL     1     -39.622  50.269 -53.099  1.00  0.00     0.119 A 
HETATM   22  C   UNL     1     -40.302  50.687 -54.228  1.00  0.00     0.044 A 
HETATM   23  F   UNL     1     -39.166  49.012 -53.028  1.00  0.00    -0.206 F 
HETATM   24  C   UNL     1     -40.791  51.993 -54.282  1.00  0.00     0.035 A 
BRANCH  19  25
HETATM   25  O   UNL     1     -39.699  53.293 -51.021  1.00  0.00    -0.354 OA
HETATM   26  C   UNL     1     -40.487  52.946 -49.884  1.00  0.00     0.210 C 
ENDBRANCH  19  25
ENDBRANCH   1  18
TORSDOF 4
ENDMDL
MODEL 2
REMARK VINA RESULT:      -8.2      1.311      1.886
REMARK  4 active torsions:
REMARK  status: ('A' for Active; 'I' for Inactive)
REMARK    1  A    between atoms: O_2  and  C_3 
REMARK    2  A    between atoms: C_4  and  N_5 
REMARK    3  A    between atoms: N_8  and  C_9 
REMARK    4  A    between atoms: C_9  and  C_10 
ROOT
HETATM    1  N   UNL     1     -40.942  53.961 -53.452  1.00  0.00    -0.375 N 
HETATM    2  C   UNL     1     -42.310  54.328 -53.046  1.00  0.00     0.153 C 
HETATM    3  C   UNL     1     -42.504  55.863 -53.139  1.00  0.00     0.292 C 
HETATM    4  N   UNL     1     -42.184  56.472 -54.457  1.00  0.00     0.095 N 
HETATM    5  C   UNL     1     -40.824  56.015 -54.849  1.00  0.00     0.292 C 
HETATM    6  C   UNL     1     -40.577  54.488 -54.787  1.00  0.00     0.153 C 
ENDROOT
BRANCH   4   7
HETATM    7  C   UNL     1     -43.200  56.106 -55.465  1.00  0.00     0.313 C 
BRANCH   7   8
HETATM    8  C   UNL     1     -42.863  56.587 -56.862  1.00  0.00    -0.001 A 
HETATM    9  C   UNL     1     -42.438  57.892 -57.165  1.00  0.00     0.070 A 
HETATM   10  C   UNL     1     -42.162  58.343 -58.448  1.00  0.00     0.012 A 
HETATM   11  N   UNL     1     -42.183  58.963 -56.345  1.00  0.00    -0.277 N 
HETATM   12  C   UNL     1     -41.762  59.688 -58.273  1.00  0.00     0.152 A 
HETATM   13  C   UNL     1     -42.317  57.465 -59.532  1.00  0.00     0.015 A 
HETATM   14  N   UNL     1     -41.775  60.071 -56.993  1.00  0.00    -0.186 NA
HETATM   15  C   UNL     1     -42.754  56.159 -59.277  1.00  0.00     0.002 A 
HETATM   16  C   UNL     1     -43.026  55.735 -57.973  1.00  0.00     0.011 A 
HETATM   17  H   UNL     1     -42.247  58.968 -55.331  1.00  0.00     0.189 HD
ENDBRANCH   7   8
ENDBRANCH   4   7
BRANCH   1  18
HETATM   18  C   UNL     1     -40.464  52.660 -53.204  1.00  0.00     0.064 A 
HETATM   19  C   UNL     1     -39.817  52.219 -52.023  1.00  0.00     0.097 A 
HETATM   20  C   UNL     1     -39.411  50.882 -51.886  1.00  0.00     0.081 A 
HETATM   21  C   UNL     1     -39.592  49.989 -52.931  1.00  0.00     0.119 A 
HETATM   22  C   UNL     1     -40.178  50.393 -54.116  1.00  0.00     0.044 A 
HETATM   23  F   UNL     1     -39.195  48.717 -52.789  1.00  0.00    -0.206 F 
HETATM   24  C   UNL     1     -40.606  51.715 -54.246  1.00  0.00     0.035 A 
BRANCH  19  25
HETATM   25  O   UNL     1     -39.677  53.085 -50.964  1.00  0.00    -0.354 OA
HETATM   26  C   UNL     1     -40.524  52.787 -49.855  1.00  0.00     0.210 C 
ENDBRANCH  19  25
ENDBRANCH   1  18
TORSDOF 4
ENDMDL
MODEL 3
REMARK VINA RESULT:      -8.0      1.814      2.101
REMARK  4 active torsions:
REMARK  status: ('A' for Active; 'I' for Inactive)
REMARK    1  A    between atoms: O_2  and  C_3 
REMARK    2  A    between atoms: C_4  and  N_5 
REMARK    3  A    between atoms: N_8  and  C_9 
REMARK    4  A    between atoms: C_9  and  C_10 
ROOT
HETATM    1  N   UNL     1     -41.556  54.292 -53.567  1.00  0.00    -0.375 N 
HETATM    2  C   UNL     1     -42.834  54.002 -54.241  1.00  0.00     0.153 C 
HETATM    3  C   UNL     1     -43.493  55.316 -54.732  1.00  0.00     0.292 C 
HETATM    4  N   UNL     1     -42.644  56.174 -55.600  1.00  0.00     0.095 N 
HETATM    5  C   UNL     1     -41.345  56.379 -54.904  1.00  0.00     0.292 C 
HETATM    6  C   UNL     1     -40.636  55.097 -54.402  1.00  0.00     0.153 C 
ENDROOT
BRANCH   4   7
HETATM    7  C   UNL     1     -42.464  55.560 -56.931  1.00  0.00     0.313 C 
BRANCH   7   8
HETATM    8  C   UNL     1     -43.052  56.383 -58.059  1.00  0.00    -0.001 A 
HETATM    9  C   UNL     1     -43.901  55.866 -59.053  1.00  0.00     0.070 A 
HETATM   10  C   UNL     1     -44.413  56.611 -60.105  1.00  0.00     0.012 A 
HETATM   11  N   UNL     1     -44.423  54.607 -59.218  1.00  0.00    -0.277 N 
HETATM   12  C   UNL     1     -45.212  55.698 -60.831  1.00  0.00     0.152 A 
HETATM   13  C   UNL     1     -44.070  57.968 -60.216  1.00  0.00     0.015 A 
HETATM   14  N   UNL     1     -45.220  54.475 -60.295  1.00  0.00    -0.186 NA
HETATM   15  C   UNL     1     -43.213  58.520 -59.256  1.00  0.00     0.002 A 
HETATM   16  C   UNL     1     -42.713  57.742 -58.208  1.00  0.00     0.011 A 
HETATM   17  H   UNL     1     -44.282  53.815 -58.597  1.00  0.00     0.189 HD
ENDBRANCH   7   8
ENDBRANCH   4   7
BRANCH   1  18
HETATM   18  C   UNL     1     -40.914  53.286 -52.821  1.00  0.00     0.064 A 
HETATM   19  C   UNL     1     -40.844  53.210 -51.408  1.00  0.00     0.097 A 
HETATM   20  C   UNL     1     -40.195  52.134 -50.780  1.00  0.00     0.081 A 
HETATM   21  C   UNL     1     -39.567  51.160 -51.542  1.00  0.00     0.119 A 
HETATM   22  C   UNL     1     -39.574  51.225 -52.922  1.00  0.00     0.044 A 
HETATM   23  F   UNL     1     -38.947  50.142 -50.929  1.00  0.00    -0.206 F 
HETATM   24  C   UNL     1     -40.241  52.278 -53.549  1.00  0.00     0.035 A 
BRANCH  19  25
HETATM   25  O   UNL     1     -41.505  54.145 -50.646  1.00  0.00    -0.354 OA
HETATM   26  C   UNL     1     -40.652  55.135 -50.074  1.00  0.00     0.210 C 
ENDBRANCH  19  25
ENDBRANCH   1  18
TORSDOF 4
ENDMDL
MODEL 4
REMARK VINA RESULT:      -7.8      2.258      3.337
REMARK  4 active torsions:
REMARK  status: ('A' for Active; 'I' for Inactive)
REMARK    1  A    between atoms: O_2  and  C_3 
REMARK    2  A    between atoms: C_4  and  N_5 
REMARK    3  A    between atoms: N_8  and  C_9 
REMARK    4  A    between atoms: C_9  and  C_10 
ROOT
HETATM    1  N   UNL     1     -41.518  54.334 -53.183  1.00  0.00    -0.375 N 
HETATM    2  C   UNL     1     -40.601  55.008 -54.119  1.00  0.00     0.153 C 
HETATM    3  C   UNL     1     -40.962  54.641 -55.582  1.00  0.00     0.292 C 
HETATM    4  N   UNL     1     -42.371  54.897 -55.979  1.00  0.00     0.095 N 
HETATM    5  C   UNL     1     -43.251  54.254 -54.966  1.00  0.00     0.292 C 
HETATM    6  C   UNL     1     -42.944  54.595 -53.487  1.00  0.00     0.153 C 
ENDROOT
BRANCH   4   7
HETATM    7  C   UNL     1     -42.630  56.347 -56.092  1.00  0.00     0.313 C 
BRANCH   7   8
HETATM    8  C   UNL     1     -42.728  56.831 -57.524  1.00  0.00    -0.001 A 
HETATM    9  C   UNL     1     -43.398  56.139 -58.547  1.00  0.00     0.070 A 
HETATM   10  C   UNL     1     -43.460  56.565 -59.866  1.00  0.00     0.012 A 
HETATM   11  N   UNL     1     -44.126  54.975 -58.512  1.00  0.00    -0.277 N 
HETATM   12  C   UNL     1     -44.236  55.581 -60.521  1.00  0.00     0.152 A 
HETATM   13  C   UNL     1     -42.812  57.755 -60.233  1.00  0.00     0.015 A 
HETATM   14  N   UNL     1     -44.643  54.609 -59.700  1.00  0.00    -0.186 NA
HETATM   15  C   UNL     1     -42.118  58.469 -59.249  1.00  0.00     0.002 A 
HETATM   16  C   UNL     1     -42.073  58.012 -57.928  1.00  0.00     0.011 A 
HETATM   17  H   UNL     1     -44.319  54.415 -57.686  1.00  0.00     0.189 HD
ENDBRANCH   7   8
ENDBRANCH   4   7
BRANCH   1  18
HETATM   18  C   UNL     1     -41.224  54.315 -51.806  1.00  0.00     0.064 A 
HETATM   19  C   UNL     1     -40.346  53.416 -51.152  1.00  0.00     0.097 A 
HETATM   20  C   UNL     1     -40.114  53.520 -49.771  1.00  0.00     0.081 A 
HETATM   21  C   UNL     1     -40.786  54.475 -49.022  1.00  0.00     0.119 A 
HETATM   22  C   UNL     1     -41.685  55.339 -49.618  1.00  0.00     0.044 A 
HETATM   23  F   UNL     1     -40.559  54.559 -47.705  1.00  0.00    -0.206 F 
HETATM   24  C   UNL     1     -41.898  55.256 -50.994  1.00  0.00     0.035 A 
BRANCH  19  25
HETATM   25  O   UNL     1     -39.639  52.499 -51.894  1.00  0.00    -0.354 OA
HETATM   26  C   UNL     1     -39.668  51.176 -51.361  1.00  0.00     0.210 C 
ENDBRANCH  19  25
ENDBRANCH   1  18
TORSDOF 4
ENDMDL
MODEL 5
REMARK VINA RESULT:      -7.6      3.697      4.944
REMARK  4 active torsions:
REMARK  status: ('A' for Active; 'I' for Inactive)
REMARK    1  A    between atoms: O_2  and  C_3 
REMARK    2  A    between atoms: C_4  and  N_5 
REMARK    3  A    between atoms: N_8  and  C_9 
REMARK    4  A    between atoms: C_9  and  C_10 
ROOT
HETATM    1  N   UNL     1     -41.392  54.347 -51.973  1.00  0.00    -0.375 N 
HETATM    2  C   UNL     1     -42.711  54.225 -51.328  1.00  0.00     0.153 C 
HETATM    3  C   UNL     1     -43.064  55.535 -50.577  1.00  0.00     0.292 C 
HETATM    4  N   UNL     1     -43.010  56.777 -51.391  1.00  0.00     0.095 N 
HETATM    5  C   UNL     1     -41.687  56.815 -52.072  1.00  0.00     0.292 C 
HETATM    6  C   UNL     1     -41.288  55.536 -52.849  1.00  0.00     0.153 C 
ENDROOT
BRANCH   4   7
HETATM    7  C   UNL     1     -44.127  56.821 -52.357  1.00  0.00     0.313 C 
BRANCH   7   8
HETATM    8  C   UNL     1     -44.640  58.222 -52.620  1.00  0.00    -0.001 A 
HETATM    9  C   UNL     1     -45.141  59.079 -51.625  1.00  0.00     0.070 A 
HETATM   10  C   UNL     1     -45.642  60.349 -51.870  1.00  0.00     0.012 A 
HETATM   11  N   UNL     1     -45.238  58.911 -50.265  1.00  0.00    -0.277 N 
HETATM   12  C   UNL     1     -46.012  60.837 -50.596  1.00  0.00     0.152 A 
HETATM   13  C   UNL     1     -45.672  60.832 -53.188  1.00  0.00     0.015 A 
HETATM   14  N   UNL     1     -45.769  59.963 -49.615  1.00  0.00    -0.186 NA
HETATM   15  C   UNL     1     -45.196  60.006 -54.213  1.00  0.00     0.002 A 
HETATM   16  C   UNL     1     -44.699  58.729 -53.934  1.00  0.00     0.011 A 
HETATM   17  H   UNL     1     -44.922  58.101 -49.739  1.00  0.00     0.189 HD
ENDBRANCH   7   8
ENDBRANCH   4   7
BRANCH   1  18
HETATM   18  C   UNL     1     -40.757  53.202 -52.490  1.00  0.00     0.064 A 
HETATM   19  C   UNL     1     -40.138  52.176 -51.734  1.00  0.00     0.097 A 
HETATM   20  C   UNL     1     -39.563  51.065 -52.371  1.00  0.00     0.081 A 
HETATM   21  C   UNL     1     -39.548  50.987 -53.756  1.00  0.00     0.119 A 
HETATM   22  C   UNL     1     -40.102  51.990 -54.529  1.00  0.00     0.044 A 
HETATM   23  F   UNL     1     -38.991  49.924 -54.351  1.00  0.00    -0.206 F 
HETATM   24  C   UNL     1     -40.698  53.083 -53.898  1.00  0.00     0.035 A 
BRANCH  19  25
HETATM   25  O   UNL     1     -40.191  52.221 -50.361  1.00  0.00    -0.354 OA
HETATM   26  C   UNL     1     -40.383  50.949 -49.746  1.00  0.00     0.210 C 
ENDBRANCH  19  25
ENDBRANCH   1  18
TORSDOF 4
ENDMDL
MODEL 6
REMARK VINA RESULT:      -7.6      3.722      5.541
REMARK  4 active torsions:
REMARK  status: ('A' for Active; 'I' for Inactive)
REMARK    1  A    between atoms: O_2  and  C_3 
REMARK    2  A    between atoms: C_4  and  N_5 
REMARK    3  A    between atoms: N_8  and  C_9 
REMARK    4  A    between atoms: C_9  and  C_10 
ROOT
HETATM    1  N   UNL     1     -41.793  54.194 -51.722  1.00  0.00    -0.375 N 
HETATM    2  C   UNL     1     -43.266  54.170 -51.697  1.00  0.00     0.153 C 
HETATM    3  C   UNL     1     -43.800  55.143 -50.615  1.00  0.00     0.292 C 
HETATM    4  N   UNL     1     -43.316  56.545 -50.716  1.00  0.00     0.095 N 
HETATM    5  C   UNL     1     -41.832  56.506 -50.807  1.00  0.00     0.292 C 
HETATM    6  C   UNL     1     -41.242  55.559 -51.881  1.00  0.00     0.153 C 
ENDROOT
BRANCH   4   7
HETATM    7  C   UNL     1     -43.921  57.227 -51.879  1.00  0.00     0.313 C 
BRANCH   7   8
HETATM    8  C   UNL     1     -43.782  58.735 -51.832  1.00  0.00    -0.001 A 
HETATM    9  C   UNL     1     -44.489  59.565 -50.946  1.00  0.00     0.070 A 
HETATM   10  C   UNL     1     -44.387  60.948 -50.925  1.00  0.00     0.012 A 
HETATM   11  N   UNL     1     -45.371  59.255 -49.939  1.00  0.00    -0.277 N 
HETATM   12  C   UNL     1     -45.251  61.352 -49.881  1.00  0.00     0.152 A 
HETATM   13  C   UNL     1     -43.539  61.588 -51.843  1.00  0.00     0.015 A 
HETATM   14  N   UNL     1     -45.854  60.323 -49.279  1.00  0.00    -0.186 NA
HETATM   15  C   UNL     1     -42.827  60.800 -52.755  1.00  0.00     0.002 A 
HETATM   16  C   UNL     1     -42.952  59.407 -52.752  1.00  0.00     0.011 A 
HETATM   17  H   UNL     1     -45.645  58.319 -49.653  1.00  0.00     0.189 HD
ENDBRANCH   7   8
ENDBRANCH   4   7
BRANCH   1  18
HETATM   18  C   UNL     1     -41.089  53.210 -52.443  1.00  0.00     0.064 A 
HETATM   19  C   UNL     1     -41.252  52.905 -53.817  1.00  0.00     0.097 A 
HETATM   20  C   UNL     1     -40.465  51.915 -54.428  1.00  0.00     0.081 A 
HETATM   21  C   UNL     1     -39.554  51.187 -53.676  1.00  0.00     0.119 A 
HETATM   22  C   UNL     1     -39.401  51.425 -52.323  1.00  0.00     0.044 A 
HETATM   23  F   UNL     1     -38.814  50.242 -54.271  1.00  0.00    -0.206 F 
HETATM   24  C   UNL     1     -40.163  52.426 -51.718  1.00  0.00     0.035 A 
BRANCH  19  25
HETATM   25  O   UNL     1     -42.117  53.654 -54.580  1.00  0.00    -0.354 OA
HETATM   26  C   UNL     1     -41.469  54.585 -55.444  1.00  0.00     0.210 C 
ENDBRANCH  19  25
ENDBRANCH   1  18
TORSDOF 4
ENDMDL
MODEL 7
REMARK VINA RESULT:      -7.5      1.695      1.898
REMARK  4 active torsions:
REMARK  status: ('A' for Active; 'I' for Inactive)
REMARK    1  A    between atoms: O_2  and  C_3 
REMARK    2  A    between atoms: C_4  and  N_5 
REMARK    3  A    between atoms: N_8  and  C_9 
REMARK    4  A    between atoms: C_9  and  C_10 
ROOT
HETATM    1  N   UNL     1     -41.279  54.212 -53.393  1.00  0.00    -0.375 N 
HETATM    2  C   UNL     1     -42.730  54.332 -53.615  1.00  0.00     0.153 C 
HETATM    3  C   UNL     1     -43.183  55.802 -53.424  1.00  0.00     0.292 C 
HETATM    4  N   UNL     1     -42.458  56.809 -54.244  1.00  0.00     0.095 N 
HETATM    5  C   UNL     1     -41.001  56.598 -54.035  1.00  0.00     0.292 C 
HETATM    6  C   UNL     1     -40.491  55.149 -54.226  1.00  0.00     0.153 C 
ENDROOT
BRANCH   4   7
HETATM    7  C   UNL     1     -42.833  56.694 -55.668  1.00  0.00     0.313 C 
BRANCH   7   8
HETATM    8  C   UNL     1     -43.903  57.679 -56.091  1.00  0.00    -0.001 A 
HETATM    9  C   UNL     1     -44.612  57.602 -57.302  1.00  0.00     0.070 A 
HETATM   10  C   UNL     1     -45.569  58.521 -57.705  1.00  0.00     0.012 A 
HETATM   11  N   UNL     1     -44.568  56.666 -58.307  1.00  0.00    -0.277 N 
HETATM   12  C   UNL     1     -46.017  58.042 -58.958  1.00  0.00     0.152 A 
HETATM   13  C   UNL     1     -45.861  59.615 -56.875  1.00  0.00     0.015 A 
HETATM   14  N   UNL     1     -45.408  56.912 -59.329  1.00  0.00    -0.186 NA
HETATM   15  C   UNL     1     -45.168  59.740 -55.666  1.00  0.00     0.002 A 
HETATM   16  C   UNL     1     -44.208  58.796 -55.288  1.00  0.00     0.011 A 
HETATM   17  H   UNL     1     -43.996  55.826 -58.317  1.00  0.00     0.189 HD
ENDBRANCH   7   8
ENDBRANCH   4   7
BRANCH   1  18
HETATM   18  C   UNL     1     -40.694  52.937 -53.262  1.00  0.00     0.064 A 
HETATM   19  C   UNL     1     -39.905  52.489 -52.174  1.00  0.00     0.097 A 
HETATM   20  C   UNL     1     -39.400  51.179 -52.148  1.00  0.00     0.081 A 
HETATM   21  C   UNL     1     -39.627  50.324 -53.217  1.00  0.00     0.119 A 
HETATM   22  C   UNL     1     -40.354  50.741 -54.316  1.00  0.00     0.044 A 
HETATM   23  F   UNL     1     -39.135  49.079 -53.181  1.00  0.00    -0.206 F 
HETATM   24  C   UNL     1     -40.879  52.034 -54.333  1.00  0.00     0.035 A 
BRANCH  19  25
HETATM   25  O   UNL     1     -39.716  53.313 -51.089  1.00  0.00    -0.354 OA
HETATM   26  C   UNL     1     -40.549  53.003 -49.974  1.00  0.00     0.210 C 
ENDBRANCH  19  25
ENDBRANCH   1  18
TORSDOF 4
ENDMDL
MODEL 8
REMARK VINA RESULT:      -7.5      2.273      2.834
REMARK  4 active torsions:
REMARK  status: ('A' for Active; 'I' for Inactive)
REMARK    1  A    between atoms: O_2  and  C_3 
REMARK    2  A    between atoms: C_4  and  N_5 
REMARK    3  A    between atoms: N_8  and  C_9 
REMARK    4  A    between atoms: C_9  and  C_10 
ROOT
HETATM    1  N   UNL     1     -41.813  54.911 -53.727  1.00  0.00    -0.375 N 
HETATM    2  C   UNL     1     -42.815  54.563 -54.749  1.00  0.00     0.153 C 
HETATM    3  C   UNL     1     -43.698  55.794 -55.077  1.00  0.00     0.292 C 
HETATM    4  N   UNL     1     -42.965  57.021 -55.483  1.00  0.00     0.095 N 
HETATM    5  C   UNL     1     -41.924  57.287 -54.453  1.00  0.00     0.292 C 
HETATM    6  C   UNL     1     -41.003  56.095 -54.095  1.00  0.00     0.153 C 
ENDROOT
BRANCH   4   7
HETATM    7  C   UNL     1     -42.379  56.862 -56.829  1.00  0.00     0.313 C 
BRANCH   7   8
HETATM    8  C   UNL     1     -43.410  56.602 -57.908  1.00  0.00    -0.001 A 
HETATM    9  C   UNL     1     -44.460  57.482 -58.224  1.00  0.00     0.070 A 
HETATM   10  C   UNL     1     -45.424  57.230 -59.189  1.00  0.00     0.012 A 
HETATM   11  N   UNL     1     -44.768  58.724 -57.725  1.00  0.00    -0.277 N 
HETATM   12  C   UNL     1     -46.252  58.376 -59.172  1.00  0.00     0.152 A 
HETATM   13  C   UNL     1     -45.380  56.022 -59.904  1.00  0.00     0.015 A 
HETATM   14  N   UNL     1     -45.856  59.288 -58.280  1.00  0.00    -0.186 NA
HETATM   15  C   UNL     1     -44.360  55.109 -59.610  1.00  0.00     0.002 A 
HETATM   16  C   UNL     1     -43.403  55.392 -58.630  1.00  0.00     0.011 A 
HETATM   17  H   UNL     1     -44.239  59.234 -57.023  1.00  0.00     0.189 HD
ENDBRANCH   7   8
ENDBRANCH   4   7
BRANCH   1  18
HETATM   18  C   UNL     1     -41.076  53.893 -53.093  1.00  0.00     0.064 A 
HETATM   19  C   UNL     1     -40.663  53.880 -51.738  1.00  0.00     0.097 A 
HETATM   20  C   UNL     1     -39.954  52.787 -51.216  1.00  0.00     0.081 A 
HETATM   21  C   UNL     1     -39.603  51.727 -52.040  1.00  0.00     0.119 A 
HETATM   22  C   UNL     1     -39.948  51.725 -53.378  1.00  0.00     0.044 A 
HETATM   23  F   UNL     1     -38.921  50.693 -51.529  1.00  0.00    -0.206 F 
HETATM   24  C   UNL     1     -40.676  52.798 -53.894  1.00  0.00     0.035 A 
BRANCH  19  25
HETATM   25  O   UNL     1     -41.048  54.903 -50.903  1.00  0.00    -0.354 OA
HETATM   26  C   UNL     1     -42.223  54.621 -50.145  1.00  0.00     0.210 C 
ENDBRANCH  19  25
ENDBRANCH   1  18
TORSDOF 4
ENDMDL
MODEL 9
REMARK VINA RESULT:      -7.3      3.671      7.824
REMARK  4 active torsions:
REMARK  status: ('A' for Active; 'I' for Inactive)
REMARK    1  A    between atoms: O_2  and  C_3 
REMARK    2  A    between atoms: C_4  and  N_5 
REMARK    3  A    between atoms: N_8  and  C_9 
REMARK    4  A    between atoms: C_9  and  C_10 
ROOT
HETATM    1  N   UNL     1     -42.990  57.003 -55.626  1.00  0.00    -0.375 N 
HETATM    2  C   UNL     1     -41.844  56.248 -55.089  1.00  0.00     0.153 C 
HETATM    3  C   UNL     1     -41.506  56.732 -53.656  1.00  0.00     0.292 C 
HETATM    4  N   UNL     1     -42.632  56.705 -52.686  1.00  0.00     0.095 N 
HETATM    5  C   UNL     1     -43.780  57.420 -53.305  1.00  0.00     0.292 C 
HETATM    6  C   UNL     1     -44.171  56.968 -54.733  1.00  0.00     0.153 C 
ENDROOT
BRANCH   4   7
HETATM    7  C   UNL     1     -42.980  55.315 -52.324  1.00  0.00     0.313 C 
BRANCH   7   8
HETATM    8  C   UNL     1     -42.000  54.681 -51.358  1.00  0.00    -0.001 A 
HETATM    9  C   UNL     1     -41.118  53.641 -51.698  1.00  0.00     0.070 A 
HETATM   10  C   UNL     1     -40.244  53.037 -50.806  1.00  0.00     0.012 A 
HETATM   11  N   UNL     1     -40.890  53.018 -52.901  1.00  0.00    -0.277 N 
HETATM   12  C   UNL     1     -39.558  52.072 -51.579  1.00  0.00     0.152 A 
HETATM   13  C   UNL     1     -40.225  53.465 -49.469  1.00  0.00     0.015 A 
HETATM   14  N   UNL     1     -39.950  52.056 -52.857  1.00  0.00    -0.186 NA
HETATM   15  C   UNL     1     -41.098  54.489 -49.083  1.00  0.00     0.002 A 
HETATM   16  C   UNL     1     -41.968  55.076 -50.006  1.00  0.00     0.011 A 
HETATM   17  H   UNL     1     -41.337  53.244 -53.785  1.00  0.00     0.189 HD
ENDBRANCH   7   8
ENDBRANCH   4   7
BRANCH   1  18
HETATM   18  C   UNL     1     -43.308  56.913 -56.995  1.00  0.00     0.064 A 
HETATM   19  C   UNL     1     -43.693  57.987 -57.835  1.00  0.00     0.097 A 
HETATM   20  C   UNL     1     -43.958  57.771 -59.197  1.00  0.00     0.081 A 
HETATM   21  C   UNL     1     -43.896  56.488 -59.723  1.00  0.00     0.119 A 
HETATM   22  C   UNL     1     -43.569  55.409 -58.924  1.00  0.00     0.044 A 
HETATM   23  F   UNL     1     -44.157  56.296 -61.023  1.00  0.00    -0.206 F 
HETATM   24  C   UNL     1     -43.279  55.625 -57.576  1.00  0.00     0.035 A 
BRANCH  19  25
HETATM   25  O   UNL     1     -43.709  59.267 -57.333  1.00  0.00    -0.354 OA
HETATM   26  C   UNL     1     -45.017  59.762 -57.049  1.00  0.00     0.210 C 
ENDBRANCH  19  25
ENDBRANCH   1  18
TORSDOF 4
ENDMDL
MODEL 10
REMARK VINA RESULT:      -7.3      2.602      4.291
REMARK  4 active torsions:
REMARK  status: ('A' for Active; 'I' for Inactive)
REMARK    1  A    between atoms: O_2  and  C_3 
REMARK    2  A    between atoms: C_4  and  N_5 
REMARK    3  A    between atoms: N_8  and  C_9 
REMARK    4  A    between atoms: C_9  and  C_10 
ROOT
HETATM    1  N   UNL     1     -41.009  54.258 -53.623  1.00  0.00    -0.375 N 
HETATM    2  C   UNL     1     -41.364  55.509 -52.931  1.00  0.00     0.153 C 
HETATM    3  C   UNL     1     -41.575  56.650 -53.960  1.00  0.00     0.292 C 
HETATM    4  N   UNL     1     -42.559  56.369 -55.038  1.00  0.00     0.095 N 
HETATM    5  C   UNL     1     -42.194  55.065 -55.655  1.00  0.00     0.292 C 
HETATM    6  C   UNL     1     -41.984  53.886 -54.674  1.00  0.00     0.153 C 
ENDROOT
BRANCH   4   7
HETATM    7  C   UNL     1     -43.936  56.358 -54.503  1.00  0.00     0.313 C 
BRANCH   7   8
HETATM    8  C   UNL     1     -44.409  57.718 -54.031  1.00  0.00    -0.001 A 
HETATM    9  C   UNL     1     -44.851  57.990 -52.725  1.00  0.00     0.070 A 
HETATM   10  C   UNL     1     -45.315  59.226 -52.301  1.00  0.00     0.012 A 
HETATM   11  N   UNL     1     -44.911  57.183 -51.615  1.00  0.00    -0.277 N 
HETATM   12  C   UNL     1     -45.629  59.038 -50.935  1.00  0.00     0.152 A 
HETATM   13  C   UNL     1     -45.368  60.289 -53.216  1.00  0.00     0.015 A 
HETATM   14  N   UNL     1     -45.386  57.794 -50.513  1.00  0.00    -0.186 NA
HETATM   15  C   UNL     1     -44.953  60.059 -54.532  1.00  0.00     0.002 A 
HETATM   16  C   UNL     1     -44.491  58.801 -54.929  1.00  0.00     0.011 A 
HETATM   17  H   UNL     1     -44.607  56.215 -51.562  1.00  0.00     0.189 HD
ENDBRANCH   7   8
ENDBRANCH   4   7
BRANCH   1  18
HETATM   18  C   UNL     1     -40.525  53.162 -52.882  1.00  0.00     0.064 A 
HETATM   19  C   UNL     1     -40.447  53.078 -51.470  1.00  0.00     0.097 A 
HETATM   20  C   UNL     1     -39.969  51.913 -50.848  1.00  0.00     0.081 A 
HETATM   21  C   UNL     1     -39.517  50.849 -51.616  1.00  0.00     0.119 A 
HETATM   22  C   UNL     1     -39.535  50.913 -52.996  1.00  0.00     0.044 A 
HETATM   23  F   UNL     1     -39.059  49.747 -51.009  1.00  0.00    -0.206 F 
HETATM   24  C   UNL     1     -40.034  52.059 -53.617  1.00  0.00     0.035 A 
BRANCH  19  25
HETATM   25  O   UNL     1     -40.938  54.107 -50.702  1.00  0.00    -0.354 OA
HETATM   26  C   UNL     1     -40.159  54.385 -49.539  1.00  0.00     0.210 C 
ENDBRANCH  19  25
ENDBRANCH   1  18
TORSDOF 4
ENDMDL
