MODEL 1
REMARK VINA RESULT:      -8.2      0.000      0.000
REMARK  4 active torsions:
REMARK  status: ('A' for Active; 'I' for Inactive)
REMARK    1  A    between atoms: C_2  and  C_3 
REMARK    2  A    between atoms: C_7  and  N_8 
REMARK       I    between atoms: N_8  and  C_9 
REMARK    3  A    between atoms: C_9  and  C_10 
REMARK    4  A    between atoms: C_12  and  C_13 
ROOT
HETATM    1  C   UNL     1     -42.726  55.602 -56.136  1.00  0.00     0.149 A 
HETATM    2  N   UNL     1     -41.826  54.589 -55.816  1.00  0.00    -0.223 NA
HETATM    3  C   UNL     1     -41.919  54.402 -54.511  1.00  0.00     0.139 A 
HETATM    4  N   UNL     1     -42.862  55.255 -53.984  1.00  0.00    -0.342 N 
HETATM    5  H   UNL     1     -43.102  55.329 -53.006  1.00  0.00     0.167 HD
HETATM    6  C   UNL     1     -43.380  56.023 -54.994  1.00  0.00     0.041 A 
HETATM    7  C   UNL     1     -44.413  57.061 -54.775  1.00  0.00     0.071 C 
ENDROOT
BRANCH   1   8
HETATM    8  C   UNL     1     -42.891  56.109 -57.507  1.00  0.00     0.278 C 
HETATM    9  N   UNL     1     -42.038  57.167 -57.727  1.00  0.00    -0.304 N 
HETATM   10  H   UNL     1     -41.426  57.397 -56.956  1.00  0.00     0.171 HD
HETATM   11  O   UNL     1     -43.688  55.603 -58.286  1.00  0.00    -0.265 OA
BRANCH   9  12
HETATM   12  C   UNL     1     -41.978  57.939 -58.862  1.00  0.00     0.158 A 
HETATM   13  N   UNL     1     -41.652  57.482 -60.070  1.00  0.00    -0.156 NA
HETATM   14  N   UNL     1     -41.765  58.536 -60.879  1.00  0.00    -0.280 N 
HETATM   15  C   UNL     1     -42.148  59.681 -60.240  1.00  0.00     0.037 A 
HETATM   16  H   UNL     1     -41.570  58.400 -61.865  1.00  0.00     0.189 HD
HETATM   17  C   UNL     1     -42.280  59.333 -58.906  1.00  0.00     0.010 A 
HETATM   18  C   UNL     1     -42.667  60.227 -57.786  1.00  0.00     0.054 C 
BRANCH  15  19
HETATM   19  C   UNL     1     -42.345  60.962 -60.970  1.00  0.00     0.055 C 
HETATM   20  C   UNL     1     -41.172  61.910 -60.762  1.00  0.00     0.011 C 
ENDBRANCH  15  19
ENDBRANCH   9  12
ENDBRANCH   1   8
BRANCH   3  21
HETATM   21  C   UNL     1     -41.118  53.468 -53.715  1.00  0.00     0.012 A 
HETATM   22  C   UNL     1     -40.676  52.273 -54.303  1.00  0.00     0.039 A 
HETATM   23  C   UNL     1     -39.896  51.374 -53.577  1.00  0.00     0.035 A 
HETATM   24 CL   UNL     1     -39.352  49.919 -54.320  1.00  0.00    -0.084 Cl
HETATM   25  C   UNL     1     -39.550  51.643 -52.255  1.00  0.00     0.024 A 
HETATM   26  C   UNL     1     -39.992  52.820 -51.654  1.00  0.00     0.003 A 
HETATM   27  C   UNL     1     -40.772  53.726 -52.378  1.00  0.00     0.015 A 
ENDBRANCH   3  21
TORSDOF 4
ENDMDL
MODEL 2
REMARK VINA RESULT:      -8.0      2.565      2.881
REMARK  4 active torsions:
REMARK  status: ('A' for Active; 'I' for Inactive)
REMARK    1  A    between atoms: C_2  and  C_3 
REMARK    2  A    between atoms: C_7  and  N_8 
REMARK       I    between atoms: N_8  and  C_9 
REMARK    3  A    between atoms: C_9  and  C_10 
REMARK    4  A    between atoms: C_12  and  C_13 
ROOT
HETATM    1  C   UNL     1     -42.879  56.127 -55.580  1.00  0.00     0.149 A 
HETATM    2  N   UNL     1     -41.963  55.086 -55.462  1.00  0.00    -0.223 NA
HETATM    3  C   UNL     1     -42.027  54.669 -54.209  1.00  0.00     0.139 A 
HETATM    4  N   UNL     1     -42.967  55.402 -53.521  1.00  0.00    -0.342 N 
HETATM    5  H   UNL     1     -43.187  55.298 -52.542  1.00  0.00     0.167 HD
HETATM    6  C   UNL     1     -43.513  56.331 -54.369  1.00  0.00     0.041 A 
HETATM    7  C   UNL     1     -44.552  57.299 -53.950  1.00  0.00     0.071 C 
ENDROOT
BRANCH   1   8
HETATM    8  C   UNL     1     -43.077  56.868 -56.836  1.00  0.00     0.278 C 
HETATM    9  N   UNL     1     -44.286  56.531 -57.399  1.00  0.00    -0.304 N 
HETATM   10  H   UNL     1     -44.849  55.883 -56.864  1.00  0.00     0.171 HD
HETATM   11  O   UNL     1     -42.241  57.661 -57.250  1.00  0.00    -0.265 OA
BRANCH   9  12
HETATM   12  C   UNL     1     -44.765  56.962 -58.613  1.00  0.00     0.158 A 
HETATM   13  N   UNL     1     -44.167  56.739 -59.782  1.00  0.00    -0.156 NA
HETATM   14  N   UNL     1     -44.981  57.276 -60.693  1.00  0.00    -0.280 N 
HETATM   15  C   UNL     1     -46.095  57.858 -60.159  1.00  0.00     0.037 A 
HETATM   16  H   UNL     1     -44.713  57.204 -61.669  1.00  0.00     0.189 HD
HETATM   17  C   UNL     1     -45.981  57.689 -58.789  1.00  0.00     0.010 A 
HETATM   18  C   UNL     1     -46.933  58.155 -57.750  1.00  0.00     0.054 C 
BRANCH  15  19
HETATM   19  C   UNL     1     -47.133  58.499 -61.010  1.00  0.00     0.055 C 
HETATM   20  C   UNL     1     -47.993  57.463 -61.718  1.00  0.00     0.011 C 
ENDBRANCH  15  19
ENDBRANCH   9  12
ENDBRANCH   1   8
BRANCH   3  21
HETATM   21  C   UNL     1     -41.199  53.619 -53.607  1.00  0.00     0.012 A 
HETATM   22  C   UNL     1     -40.915  52.463 -54.349  1.00  0.00     0.039 A 
HETATM   23  C   UNL     1     -40.115  51.456 -53.810  1.00  0.00     0.035 A 
HETATM   24 CL   UNL     1     -39.766  50.050 -54.741  1.00  0.00    -0.084 Cl
HETATM   25  C   UNL     1     -39.594  51.578 -52.524  1.00  0.00     0.024 A 
HETATM   26  C   UNL     1     -39.879  52.714 -51.771  1.00  0.00     0.003 A 
HETATM   27  C   UNL     1     -40.678  53.729 -52.308  1.00  0.00     0.015 A 
ENDBRANCH   3  21
TORSDOF 4
ENDMDL
MODEL 3
REMARK VINA RESULT:      -7.8      3.980      5.718
REMARK  4 active torsions:
REMARK  status: ('A' for Active; 'I' for Inactive)
REMARK    1  A    between atoms: C_2  and  C_3 
REMARK    2  A    between atoms: C_7  and  N_8 
REMARK       I    between atoms: N_8  and  C_9 
REMARK    3  A    between atoms: C_9  and  C_10 
REMARK    4  A    between atoms: C_12  and  C_13 
ROOT
HETATM    1  C   UNL     1     -41.488  56.897 -54.013  1.00  0.00     0.149 A 
HETATM    2  N   UNL     1     -40.936  55.955 -53.150  1.00  0.00    -0.223 NA
HETATM    3  C   UNL     1     -40.931  54.805 -53.803  1.00  0.00     0.139 A 
HETATM    4  N   UNL     1     -41.452  54.984 -55.064  1.00  0.00    -0.342 N 
HETATM    5  H   UNL     1     -41.584  54.255 -55.751  1.00  0.00     0.167 HD
HETATM    6  C   UNL     1     -41.813  56.297 -55.215  1.00  0.00     0.041 A 
HETATM    7  C   UNL     1     -42.422  56.834 -56.453  1.00  0.00     0.071 C 
ENDROOT
BRANCH   1   8
HETATM    8  C   UNL     1     -41.682  58.304 -53.628  1.00  0.00     0.278 C 
HETATM    9  N   UNL     1     -42.724  58.412 -52.737  1.00  0.00    -0.304 N 
HETATM   10  H   UNL     1     -43.153  57.538 -52.463  1.00  0.00     0.171 HD
HETATM   11  O   UNL     1     -40.970  59.195 -54.074  1.00  0.00    -0.265 OA
BRANCH   9  12
HETATM   12  C   UNL     1     -43.242  59.580 -52.230  1.00  0.00     0.158 A 
HETATM   13  N   UNL     1     -44.316  60.202 -52.712  1.00  0.00    -0.156 NA
HETATM   14  N   UNL     1     -44.498  61.251 -51.908  1.00  0.00    -0.280 N 
HETATM   15  C   UNL     1     -43.567  61.347 -50.912  1.00  0.00     0.037 A 
HETATM   16  H   UNL     1     -45.286  61.861 -52.095  1.00  0.00     0.189 HD
HETATM   17  C   UNL     1     -42.711  60.275 -51.102  1.00  0.00     0.010 A 
HETATM   18  C   UNL     1     -41.517  59.933 -50.288  1.00  0.00     0.054 C 
BRANCH  15  19
HETATM   19  C   UNL     1     -43.604  62.439 -49.902  1.00  0.00     0.055 C 
HETATM   20  C   UNL     1     -42.817  63.656 -50.367  1.00  0.00     0.011 C 
ENDBRANCH  15  19
ENDBRANCH   9  12
ENDBRANCH   1   8
BRANCH   3  21
HETATM   21  C   UNL     1     -40.490  53.513 -53.269  1.00  0.00     0.012 A 
HETATM   22  C   UNL     1     -40.322  52.433 -54.148  1.00  0.00     0.039 A 
HETATM   23  C   UNL     1     -39.885  51.196 -53.674  1.00  0.00     0.035 A 
HETATM   24 CL   UNL     1     -39.673  49.886 -54.769  1.00  0.00    -0.084 Cl
HETATM   25  C   UNL     1     -39.616  51.013 -52.319  1.00  0.00     0.024 A 
HETATM   26  C   UNL     1     -39.790  52.074 -51.433  1.00  0.00     0.003 A 
HETATM   27  C   UNL     1     -40.225  53.316 -51.904  1.00  0.00     0.015 A 
ENDBRANCH   3  21
TORSDOF 4
ENDMDL
MODEL 4
REMARK VINA RESULT:      -7.6      3.252      5.549
REMARK  4 active torsions:
REMARK  status: ('A' for Active; 'I' for Inactive)
REMARK    1  A    between atoms: C_2  and  C_3 
REMARK    2  A    between atoms: C_7  and  N_8 
REMARK       I    between atoms: N_8  and  C_9 
REMARK    3  A    between atoms: C_9  and  C_10 
REMARK    4  A    between atoms: C_12  and  C_13 
ROOT
HETATM    1  C   UNL     1     -43.217  55.950 -54.276  1.00  0.00     0.149 A 
HETATM    2  N   UNL     1     -42.686  55.066 -53.342  1.00  0.00    -0.223 NA
HETATM    3  C   UNL     1     -41.756  54.369 -53.970  1.00  0.00     0.139 A 
HETATM    4  N   UNL     1     -41.663  54.788 -55.278  1.00  0.00    -0.342 N 
HETATM    5  H   UNL     1     -41.047  54.396 -55.975  1.00  0.00     0.167 HD
HETATM    6  C   UNL     1     -42.581  55.783 -55.492  1.00  0.00     0.041 A 
HETATM    7  C   UNL     1     -42.761  56.453 -56.800  1.00  0.00     0.071 C 
ENDROOT
BRANCH   1   8
HETATM    8  C   UNL     1     -44.307  56.885 -53.952  1.00  0.00     0.278 C 
HETATM    9  N   UNL     1     -44.025  57.554 -52.783  1.00  0.00    -0.304 N 
HETATM   10  H   UNL     1     -43.129  57.339 -52.365  1.00  0.00     0.171 HD
HETATM   11  O   UNL     1     -45.288  57.000 -54.674  1.00  0.00    -0.265 OA
BRANCH   9  12
HETATM   12  C   UNL     1     -44.852  58.439 -52.134  1.00  0.00     0.158 A 
HETATM   13  N   UNL     1     -45.519  58.166 -51.014  1.00  0.00    -0.156 NA
HETATM   14  N   UNL     1     -46.149  59.300 -50.704  1.00  0.00    -0.280 N 
HETATM   15  C   UNL     1     -45.927  60.313 -51.592  1.00  0.00     0.037 A 
HETATM   16  H   UNL     1     -46.715  59.313 -49.862  1.00  0.00     0.189 HD
HETATM   17  C   UNL     1     -45.092  59.780 -52.560  1.00  0.00     0.010 A 
HETATM   18  C   UNL     1     -44.561  60.474 -53.760  1.00  0.00     0.054 C 
BRANCH  15  19
HETATM   19  C   UNL     1     -46.528  61.663 -51.415  1.00  0.00     0.055 C 
HETATM   20  C   UNL     1     -47.659  61.904 -52.405  1.00  0.00     0.011 C 
ENDBRANCH  15  19
ENDBRANCH   9  12
ENDBRANCH   1   8
BRANCH   3  21
HETATM   21  C   UNL     1     -40.962  53.278 -53.397  1.00  0.00     0.012 A 
HETATM   22  C   UNL     1     -40.668  52.158 -54.189  1.00  0.00     0.039 A 
HETATM   23  C   UNL     1     -39.900  51.112 -53.678  1.00  0.00     0.035 A 
HETATM   24 CL   UNL     1     -39.539  49.752 -54.669  1.00  0.00    -0.084 Cl
HETATM   25  C   UNL     1     -39.419  51.160 -52.372  1.00  0.00     0.024 A 
HETATM   26  C   UNL     1     -39.713  52.260 -51.570  1.00  0.00     0.003 A 
HETATM   27  C   UNL     1     -40.481  53.312 -52.078  1.00  0.00     0.015 A 
ENDBRANCH   3  21
TORSDOF 4
ENDMDL
MODEL 5
REMARK VINA RESULT:      -7.6     15.600     18.375
REMARK  4 active torsions:
REMARK  status: ('A' for Active; 'I' for Inactive)
REMARK    1  A    between atoms: C_2  and  C_3 
REMARK    2  A    between atoms: C_7  and  N_8 
REMARK       I    between atoms: N_8  and  C_9 
REMARK    3  A    between atoms: C_9  and  C_10 
REMARK    4  A    between atoms: C_12  and  C_13 
ROOT
HETATM    1  C   UNL     1     -36.339  41.539 -53.912  1.00  0.00     0.149 A 
HETATM    2  N   UNL     1     -36.051  41.565 -55.273  1.00  0.00    -0.223 NA
HETATM    3  C   UNL     1     -37.189  41.329 -55.903  1.00  0.00     0.139 A 
HETATM    4  N   UNL     1     -38.204  41.166 -54.987  1.00  0.00    -0.342 N 
HETATM    5  H   UNL     1     -39.164  40.949 -55.210  1.00  0.00     0.167 HD
HETATM    6  C   UNL     1     -37.686  41.291 -53.724  1.00  0.00     0.041 A 
HETATM    7  C   UNL     1     -38.503  41.158 -52.496  1.00  0.00     0.071 C 
ENDROOT
BRANCH   1   8
HETATM    8  C   UNL     1     -35.308  41.738 -52.881  1.00  0.00     0.278 C 
HETATM    9  N   UNL     1     -34.514  40.619 -52.783  1.00  0.00    -0.304 N 
HETATM   10  H   UNL     1     -34.727  39.877 -53.437  1.00  0.00     0.171 HD
HETATM   11  O   UNL     1     -35.228  42.784 -52.249  1.00  0.00    -0.265 OA
BRANCH   9  12
HETATM   12  C   UNL     1     -33.507  40.416 -51.871  1.00  0.00     0.158 A 
HETATM   13  N   UNL     1     -32.211  40.592 -52.125  1.00  0.00    -0.156 NA
HETATM   14  N   UNL     1     -31.596  40.338 -50.969  1.00  0.00    -0.280 N 
HETATM   15  C   UNL     1     -32.446  39.988 -49.959  1.00  0.00     0.037 A 
HETATM   16  H   UNL     1     -30.586  40.428 -50.939  1.00  0.00     0.189 HD
HETATM   17  C   UNL     1     -33.713  40.010 -50.518  1.00  0.00     0.010 A 
HETATM   18  C   UNL     1     -34.994  39.692 -49.838  1.00  0.00     0.054 C 
BRANCH  15  19
HETATM   19  C   UNL     1     -31.957  39.680 -48.588  1.00  0.00     0.055 C 
HETATM   20  C   UNL     1     -32.191  38.221 -48.226  1.00  0.00     0.011 C 
ENDBRANCH  15  19
ENDBRANCH   9  12
ENDBRANCH   1   8
BRANCH   3  21
HETATM   21  C   UNL     1     -37.362  41.207 -57.354  1.00  0.00     0.012 A 
HETATM   22  C   UNL     1     -37.966  40.053 -57.875  1.00  0.00     0.039 A 
HETATM   23  C   UNL     1     -38.161  39.916 -59.249  1.00  0.00     0.035 A 
HETATM   24 CL   UNL     1     -38.915  38.498 -59.869  1.00  0.00    -0.084 Cl
HETATM   25  C   UNL     1     -37.754  40.920 -60.125  1.00  0.00     0.024 A 
HETATM   26  C   UNL     1     -37.142  42.066 -59.622  1.00  0.00     0.003 A 
HETATM   27  C   UNL     1     -36.946  42.209 -58.246  1.00  0.00     0.015 A 
ENDBRANCH   3  21
TORSDOF 4
ENDMDL
MODEL 6
REMARK VINA RESULT:      -7.6      2.448      3.296
REMARK  4 active torsions:
REMARK  status: ('A' for Active; 'I' for Inactive)
REMARK    1  A    between atoms: C_2  and  C_3 
REMARK    2  A    between atoms: C_7  and  N_8 
REMARK       I    between atoms: N_8  and  C_9 
REMARK    3  A    between atoms: C_9  and  C_10 
REMARK    4  A    between atoms: C_12  and  C_13 
ROOT
HETATM    1  C   UNL     1     -41.157  56.012 -53.301  1.00  0.00     0.149 A 
HETATM    2  N   UNL     1     -40.796  54.808 -53.898  1.00  0.00    -0.223 NA
HETATM    3  C   UNL     1     -40.745  53.909 -52.930  1.00  0.00     0.139 A 
HETATM    4  N   UNL     1     -41.075  54.497 -51.730  1.00  0.00    -0.342 N 
HETATM    5  H   UNL     1     -41.084  54.032 -50.834  1.00  0.00     0.167 HD
HETATM    6  C   UNL     1     -41.335  55.826 -51.943  1.00  0.00     0.041 A 
HETATM    7  C   UNL     1     -41.709  56.763 -50.859  1.00  0.00     0.071 C 
ENDROOT
BRANCH   1   8
HETATM    8  C   UNL     1     -41.292  57.263 -54.064  1.00  0.00     0.278 C 
HETATM    9  N   UNL     1     -42.109  57.068 -55.153  1.00  0.00    -0.304 N 
HETATM   10  H   UNL     1     -42.506  56.142 -55.237  1.00  0.00     0.171 HD
HETATM   11  O   UNL     1     -40.734  58.293 -53.709  1.00  0.00    -0.265 OA
BRANCH   9  12
HETATM   12  C   UNL     1     -42.391  57.990 -56.132  1.00  0.00     0.158 A 
HETATM   13  N   UNL     1     -42.341  59.310 -55.963  1.00  0.00    -0.156 NA
HETATM   14  N   UNL     1     -42.634  59.823 -57.159  1.00  0.00    -0.280 N 
HETATM   15  C   UNL     1     -42.886  58.879 -58.114  1.00  0.00     0.037 A 
HETATM   16  H   UNL     1     -42.638  60.832 -57.254  1.00  0.00     0.189 HD
HETATM   17  C   UNL     1     -42.755  57.659 -57.472  1.00  0.00     0.010 A 
HETATM   18  C   UNL     1     -42.941  56.313 -58.069  1.00  0.00     0.054 C 
BRANCH  15  19
HETATM   19  C   UNL     1     -43.217  59.247 -59.517  1.00  0.00     0.055 C 
HETATM   20  C   UNL     1     -42.073  58.918 -60.465  1.00  0.00     0.011 C 
ENDBRANCH  15  19
ENDBRANCH   9  12
ENDBRANCH   1   8
BRANCH   3  21
HETATM   21  C   UNL     1     -40.352  52.504 -53.078  1.00  0.00     0.012 A 
HETATM   22  C   UNL     1     -39.949  51.785 -51.943  1.00  0.00     0.039 A 
HETATM   23  C   UNL     1     -39.588  50.442 -52.048  1.00  0.00     0.035 A 
HETATM   24 CL   UNL     1     -39.108  49.572 -50.643  1.00  0.00    -0.084 Cl
HETATM   25  C   UNL     1     -39.614  49.797 -53.283  1.00  0.00     0.024 A 
HETATM   26  C   UNL     1     -40.001  50.502 -54.420  1.00  0.00     0.003 A 
HETATM   27  C   UNL     1     -40.366  51.848 -54.319  1.00  0.00     0.015 A 
ENDBRANCH   3  21
TORSDOF 4
ENDMDL
MODEL 7
REMARK VINA RESULT:      -7.5      3.428      8.606
REMARK  4 active torsions:
REMARK  status: ('A' for Active; 'I' for Inactive)
REMARK    1  A    between atoms: C_2  and  C_3 
REMARK    2  A    between atoms: C_7  and  N_8 
REMARK       I    between atoms: N_8  and  C_9 
REMARK    3  A    between atoms: C_9  and  C_10 
REMARK    4  A    between atoms: C_12  and  C_13 
ROOT
HETATM    1  C   UNL     1     -42.727  56.152 -54.449  1.00  0.00     0.149 A 
HETATM    2  N   UNL     1     -42.329  56.084 -55.781  1.00  0.00    -0.223 NA
HETATM    3  C   UNL     1     -42.677  57.232 -56.337  1.00  0.00     0.139 A 
HETATM    4  N   UNL     1     -43.277  58.041 -55.398  1.00  0.00    -0.342 N 
HETATM    5  H   UNL     1     -43.657  58.959 -55.576  1.00  0.00     0.167 HD
HETATM    6  C   UNL     1     -43.320  57.376 -54.201  1.00  0.00     0.041 A 
HETATM    7  C   UNL     1     -43.915  57.953 -52.974  1.00  0.00     0.071 C 
ENDROOT
BRANCH   1   8
HETATM    8  C   UNL     1     -42.528  55.040 -53.507  1.00  0.00     0.278 C 
HETATM    9  N   UNL     1     -41.187  54.865 -53.256  1.00  0.00    -0.304 N 
HETATM   10  H   UNL     1     -40.571  55.527 -53.709  1.00  0.00     0.171 HD
HETATM   11  O   UNL     1     -43.474  54.414 -53.047  1.00  0.00    -0.265 OA
BRANCH   9  12
HETATM   12  C   UNL     1     -40.627  53.869 -52.493  1.00  0.00     0.158 A 
HETATM   13  N   UNL     1     -40.379  53.967 -51.188  1.00  0.00    -0.156 NA
HETATM   14  N   UNL     1     -39.889  52.776 -50.839  1.00  0.00    -0.280 N 
HETATM   15  C   UNL     1     -39.796  51.895 -51.879  1.00  0.00     0.037 A 
HETATM   16  H   UNL     1     -39.642  52.631 -49.867  1.00  0.00     0.189 HD
HETATM   17  C   UNL     1     -40.255  52.583 -52.990  1.00  0.00     0.010 A 
HETATM   18  C   UNL     1     -40.347  52.073 -54.381  1.00  0.00     0.054 C 
BRANCH  15  19
HETATM   19  C   UNL     1     -39.288  50.509 -51.694  1.00  0.00     0.055 C 
HETATM   20  C   UNL     1     -39.919  49.840 -50.481  1.00  0.00     0.011 C 
ENDBRANCH  15  19
ENDBRANCH   9  12
ENDBRANCH   1   8
BRANCH   3  21
HETATM   21  C   UNL     1     -42.507  57.593 -57.748  1.00  0.00     0.012 A 
HETATM   22  C   UNL     1     -42.184  58.917 -58.079  1.00  0.00     0.039 A 
HETATM   23  C   UNL     1     -41.997  59.288 -59.411  1.00  0.00     0.035 A 
HETATM   24 CL   UNL     1     -41.589  60.915 -59.797  1.00  0.00    -0.084 Cl
HETATM   25  C   UNL     1     -42.136  58.351 -60.432  1.00  0.00     0.024 A 
HETATM   26  C   UNL     1     -42.469  57.035 -60.118  1.00  0.00     0.003 A 
HETATM   27  C   UNL     1     -42.655  56.658 -58.785  1.00  0.00     0.015 A 
ENDBRANCH   3  21
TORSDOF 4
ENDMDL
MODEL 8
REMARK VINA RESULT:      -7.5      1.468      1.831
REMARK  4 active torsions:
REMARK  status: ('A' for Active; 'I' for Inactive)
REMARK    1  A    between atoms: C_2  and  C_3 
REMARK    2  A    between atoms: C_7  and  N_8 
REMARK       I    between atoms: N_8  and  C_9 
REMARK    3  A    between atoms: C_9  and  C_10 
REMARK    4  A    between atoms: C_12  and  C_13 
ROOT
HETATM    1  C   UNL     1     -42.950  56.228 -54.528  1.00  0.00     0.149 A 
HETATM    2  N   UNL     1     -42.075  55.150 -54.615  1.00  0.00    -0.223 NA
HETATM    3  C   UNL     1     -41.986  54.639 -53.400  1.00  0.00     0.139 A 
HETATM    4  N   UNL     1     -42.789  55.349 -52.536  1.00  0.00    -0.342 N 
HETATM    5  H   UNL     1     -42.878  55.177 -51.545  1.00  0.00     0.167 HD
HETATM    6  C   UNL     1     -43.403  56.359 -53.229  1.00  0.00     0.041 A 
HETATM    7  C   UNL     1     -44.330  57.328 -52.600  1.00  0.00     0.071 C 
ENDROOT
BRANCH   1   8
HETATM    8  C   UNL     1     -43.284  57.071 -55.687  1.00  0.00     0.278 C 
HETATM    9  N   UNL     1     -42.135  57.473 -56.328  1.00  0.00    -0.304 N 
HETATM   10  H   UNL     1     -41.274  57.109 -55.943  1.00  0.00     0.171 HD
HETATM   11  O   UNL     1     -44.445  57.326 -55.980  1.00  0.00    -0.265 OA
BRANCH   9  12
HETATM   12  C   UNL     1     -42.060  58.335 -57.396  1.00  0.00     0.158 A 
HETATM   13  N   UNL     1     -41.771  59.632 -57.300  1.00  0.00    -0.156 NA
HETATM   14  N   UNL     1     -41.753  60.075 -58.558  1.00  0.00    -0.280 N 
HETATM   15  C   UNL     1     -42.032  59.110 -59.484  1.00  0.00     0.037 A 
HETATM   16  H   UNL     1     -41.536  61.053 -58.713  1.00  0.00     0.189 HD
HETATM   17  C   UNL     1     -42.258  57.954 -58.757  1.00  0.00     0.010 A 
HETATM   18  C   UNL     1     -42.614  56.616 -59.295  1.00  0.00     0.054 C 
BRANCH  15  19
HETATM   19  C   UNL     1     -42.046  59.400 -60.943  1.00  0.00     0.055 C 
HETATM   20  C   UNL     1     -42.619  60.779 -61.233  1.00  0.00     0.011 C 
ENDBRANCH  15  19
ENDBRANCH   9  12
ENDBRANCH   1   8
BRANCH   3  21
HETATM   21  C   UNL     1     -41.133  53.517 -52.996  1.00  0.00     0.012 A 
HETATM   22  C   UNL     1     -40.879  52.487 -53.914  1.00  0.00     0.039 A 
HETATM   23  C   UNL     1     -40.056  51.416 -53.566  1.00  0.00     0.035 A 
HETATM   24 CL   UNL     1     -39.746  50.168 -54.710  1.00  0.00    -0.084 Cl
HETATM   25  C   UNL     1     -39.481  51.348 -52.299  1.00  0.00     0.024 A 
HETATM   26  C   UNL     1     -39.734  52.358 -51.373  1.00  0.00     0.003 A 
HETATM   27  C   UNL     1     -40.556  53.435 -51.718  1.00  0.00     0.015 A 
ENDBRANCH   3  21
TORSDOF 4
ENDMDL
MODEL 9
REMARK VINA RESULT:      -7.5      2.646      3.326
REMARK  4 active torsions:
REMARK  status: ('A' for Active; 'I' for Inactive)
REMARK    1  A    between atoms: C_2  and  C_3 
REMARK    2  A    between atoms: C_7  and  N_8 
REMARK       I    between atoms: N_8  and  C_9 
REMARK    3  A    between atoms: C_9  and  C_10 
REMARK    4  A    between atoms: C_12  and  C_13 
ROOT
HETATM    1  C   UNL     1     -41.535  56.124 -53.314  1.00  0.00     0.149 A 
HETATM    2  N   UNL     1     -41.216  54.802 -53.608  1.00  0.00    -0.223 NA
HETATM    3  C   UNL     1     -40.889  54.230 -52.463  1.00  0.00     0.139 A 
HETATM    4  N   UNL     1     -41.001  55.142 -51.438  1.00  0.00    -0.342 N 
HETATM    5  H   UNL     1     -40.782  54.963 -50.469  1.00  0.00     0.167 HD
HETATM    6  C   UNL     1     -41.404  56.345 -51.956  1.00  0.00     0.041 A 
HETATM    7  C   UNL     1     -41.611  57.556 -51.128  1.00  0.00     0.071 C 
ENDROOT
BRANCH   1   8
HETATM    8  C   UNL     1     -41.929  57.093 -54.350  1.00  0.00     0.278 C 
HETATM    9  N   UNL     1     -42.773  56.498 -55.258  1.00  0.00    -0.304 N 
HETATM   10  H   UNL     1     -43.016  55.537 -55.060  1.00  0.00     0.171 HD
HETATM   11  O   UNL     1     -41.527  58.249 -54.331  1.00  0.00    -0.265 OA
BRANCH   9  12
HETATM   12  C   UNL     1     -43.271  57.074 -56.402  1.00  0.00     0.158 A 
HETATM   13  N   UNL     1     -42.689  57.003 -57.598  1.00  0.00    -0.156 NA
HETATM   14  N   UNL     1     -43.518  57.645 -58.423  1.00  0.00    -0.280 N 
HETATM   15  C   UNL     1     -44.628  58.148 -57.806  1.00  0.00     0.037 A 
HETATM   16  H   UNL     1     -43.265  57.697 -59.404  1.00  0.00     0.189 HD
HETATM   17  C   UNL     1     -44.493  57.810 -56.470  1.00  0.00     0.010 A 
HETATM   18  C   UNL     1     -45.433  58.136 -55.368  1.00  0.00     0.054 C 
BRANCH  15  19
HETATM   19  C   UNL     1     -45.681  58.884 -58.556  1.00  0.00     0.055 C 
HETATM   20  C   UNL     1     -46.566  57.936 -59.352  1.00  0.00     0.011 C 
ENDBRANCH  15  19
ENDBRANCH   9  12
ENDBRANCH   1   8
BRANCH   3  21
HETATM   21  C   UNL     1     -40.427  52.849 -52.289  1.00  0.00     0.012 A 
HETATM   22  C   UNL     1     -40.212  52.053 -53.424  1.00  0.00     0.039 A 
HETATM   23  C   UNL     1     -39.755  50.742 -53.292  1.00  0.00     0.035 A 
HETATM   24 CL   UNL     1     -39.484  49.785 -54.697  1.00  0.00    -0.084 Cl
HETATM   25  C   UNL     1     -39.513  50.201 -52.032  1.00  0.00     0.024 A 
HETATM   26  C   UNL     1     -39.735  50.976 -50.896  1.00  0.00     0.003 A 
HETATM   27  C   UNL     1     -40.190  52.292 -51.022  1.00  0.00     0.015 A 
ENDBRANCH   3  21
TORSDOF 4
ENDMDL
MODEL 10
REMARK VINA RESULT:      -7.3      2.418      2.793
REMARK  4 active torsions:
REMARK  status: ('A' for Active; 'I' for Inactive)
REMARK    1  A    between atoms: C_2  and  C_3 
REMARK    2  A    between atoms: C_7  and  N_8 
REMARK       I    between atoms: N_8  and  C_9 
REMARK    3  A    between atoms: C_9  and  C_10 
REMARK    4  A    between atoms: C_12  and  C_13 
ROOT
HETATM    1  C   UNL     1     -41.736  57.496 -53.408  1.00  0.00     0.149 A 
HETATM    2  N   UNL     1     -40.986  56.330 -53.522  1.00  0.00    -0.223 NA
HETATM    3  C   UNL     1     -41.406  55.517 -52.568  1.00  0.00     0.139 A 
HETATM    4  N   UNL     1     -42.414  56.122 -51.852  1.00  0.00    -0.342 N 
HETATM    5  H   UNL     1     -42.885  55.722 -51.054  1.00  0.00     0.167 HD
HETATM    6  C   UNL     1     -42.634  57.374 -52.364  1.00  0.00     0.041 A 
HETATM    7  C   UNL     1     -43.646  58.307 -51.818  1.00  0.00     0.071 C 
ENDROOT
BRANCH   1   8
HETATM    8  C   UNL     1     -41.536  58.656 -54.291  1.00  0.00     0.278 C 
HETATM    9  N   UNL     1     -42.110  58.421 -55.519  1.00  0.00    -0.304 N 
HETATM   10  H   UNL     1     -42.597  57.539 -55.609  1.00  0.00     0.171 HD
HETATM   11  O   UNL     1     -40.940  59.655 -53.911  1.00  0.00    -0.265 OA
BRANCH   9  12
HETATM   12  C   UNL     1     -42.046  59.245 -56.617  1.00  0.00     0.158 A 
HETATM   13  N   UNL     1     -41.801  60.553 -56.565  1.00  0.00    -0.156 NA
HETATM   14  N   UNL     1     -41.778  60.950 -57.838  1.00  0.00    -0.280 N 
HETATM   15  C   UNL     1     -42.012  59.944 -58.732  1.00  0.00     0.037 A 
HETATM   16  H   UNL     1     -41.590  61.929 -58.027  1.00  0.00     0.189 HD
HETATM   17  C   UNL     1     -42.213  58.808 -57.965  1.00  0.00     0.010 A 
HETATM   18  C   UNL     1     -42.517  57.442 -58.459  1.00  0.00     0.054 C 
BRANCH  15  19
HETATM   19  C   UNL     1     -42.014  60.180 -60.201  1.00  0.00     0.055 C 
HETATM   20  C   UNL     1     -41.511  61.575 -60.543  1.00  0.00     0.011 C 
ENDBRANCH  15  19
ENDBRANCH   9  12
ENDBRANCH   1   8
BRANCH   3  21
HETATM   21  C   UNL     1     -40.865  54.188 -52.268  1.00  0.00     0.012 A 
HETATM   22  C   UNL     1     -40.604  53.302 -53.323  1.00  0.00     0.039 A 
HETATM   23  C   UNL     1     -40.072  52.038 -53.070  1.00  0.00     0.035 A 
HETATM   24 CL   UNL     1     -39.745  50.969 -54.379  1.00  0.00    -0.084 Cl
HETATM   25  C   UNL     1     -39.799  51.633 -51.765  1.00  0.00     0.024 A 
HETATM   26  C   UNL     1     -40.065  52.498 -50.707  1.00  0.00     0.003 A 
HETATM   27  C   UNL     1     -40.596  53.768 -50.955  1.00  0.00     0.015 A 
ENDBRANCH   3  21
TORSDOF 4
ENDMDL
