MODEL 1
REMARK VINA RESULT:      -6.6      0.000      0.000
REMARK  5 active torsions:
REMARK  status: ('A' for Active; 'I' for Inactive)
REMARK    1  A    between atoms: C_8  and  C_9 
REMARK    2  A    between atoms: C_11  and  O_12 
REMARK    3  A    between atoms: C_14  and  O_15 
REMARK    4  A    between atoms: C_18  and  C_19 
REMARK    5  A    between atoms: C_22  and  O_23 
ROOT
HETATM    1  C   UNL     1     -42.045  55.033 -49.940  1.00  0.00     0.070 C 
HETATM    2  C   UNL     1     -41.519  54.589 -51.252  1.00  0.00     0.033 A 
HETATM    3  N   UNL     1     -40.593  53.584 -51.350  1.00  0.00    -0.282 N 
HETATM    4  H   UNL     1     -40.167  53.048 -50.601  1.00  0.00     0.189 HD
HETATM    5  N   UNL     1     -40.251  53.288 -52.614  1.00  0.00    -0.179 NA
HETATM    6  C   UNL     1     -40.964  54.145 -53.341  1.00  0.00     0.066 A 
HETATM    7  C   UNL     1     -41.757  55.008 -52.549  1.00  0.00     0.001 A 
HETATM    8  C   UNL     1     -42.675  56.043 -53.137  1.00  0.00     0.070 C 
HETATM    9  C   UNL     1     -42.475  56.208 -54.673  1.00  0.00     0.102 C 
HETATM   10  C   UNL     1     -42.165  54.869 -55.426  1.00  0.00     0.071 C 
HETATM   11  C   UNL     1     -43.360  53.905 -55.449  1.00  0.00     0.047 C 
HETATM   12  C   UNL     1     -40.915  54.174 -54.823  1.00  0.00     0.100 C 
ENDROOT
BRANCH   8  13
HETATM   13  C   UNL     1     -42.402  57.331 -52.367  1.00  0.00    -0.046 A 
HETATM   14  C   UNL     1     -41.122  57.930 -52.342  1.00  0.00     0.047 A 
HETATM   15  C   UNL     1     -40.898  59.111 -51.630  1.00  0.00     0.101 A 
HETATM   16  C   UNL     1     -41.964  59.695 -50.941  1.00  0.00     0.099 A 
HETATM   17  C   UNL     1     -43.229  59.127 -50.944  1.00  0.00     0.040 A 
HETATM   18  C   UNL     1     -43.446  57.945 -51.651  1.00  0.00     0.011 A 
BRANCH  15  19
HETATM   19  O   UNL     1     -39.706  59.780 -51.526  1.00  0.00    -0.353 OA
HETATM   20  C   UNL     1     -38.727  59.210 -50.664  1.00  0.00     0.210 C 
ENDBRANCH  15  19
BRANCH  16  21
HETATM   21  O   UNL     1     -41.778  60.852 -50.236  1.00  0.00    -0.358 OA
HETATM   22  H   UNL     1     -40.868  61.133 -50.452  1.00  0.00     0.218 HD
ENDBRANCH  16  21
ENDBRANCH   8  13
BRANCH   9  23
HETATM   23  C   UNL     1     -43.628  56.922 -55.383  1.00  0.00     0.131 C 
HETATM   24  C   UNL     1     -44.978  57.062 -54.733  1.00  0.00     0.091 C 
HETATM   25  O   UNL     1     -43.469  57.311 -56.547  1.00  0.00    -0.298 OA
ENDBRANCH   9  23
BRANCH  10  26
HETATM   26  O   UNL     1     -41.820  55.140 -56.800  1.00  0.00    -0.389 OA
HETATM   27  H   UNL     1     -40.960  55.611 -56.832  1.00  0.00     0.210 HD
ENDBRANCH  10  26
TORSDOF 5
ENDMDL
MODEL 2
REMARK VINA RESULT:      -6.6      2.495      5.065
REMARK  5 active torsions:
REMARK  status: ('A' for Active; 'I' for Inactive)
REMARK    1  A    between atoms: C_8  and  C_9 
REMARK    2  A    between atoms: C_11  and  O_12 
REMARK    3  A    between atoms: C_14  and  O_15 
REMARK    4  A    between atoms: C_18  and  C_19 
REMARK    5  A    between atoms: C_22  and  O_23 
ROOT
HETATM    1  C   UNL     1     -40.173  54.010 -55.473  1.00  0.00     0.070 C 
HETATM    2  C   UNL     1     -40.168  53.225 -54.216  1.00  0.00     0.033 A 
HETATM    3  N   UNL     1     -39.855  51.891 -54.205  1.00  0.00    -0.282 N 
HETATM    4  H   UNL     1     -39.608  51.298 -54.990  1.00  0.00     0.189 HD
HETATM    5  N   UNL     1     -39.869  51.345 -52.978  1.00  0.00    -0.179 NA
HETATM    6  C   UNL     1     -40.223  52.357 -52.188  1.00  0.00     0.066 A 
HETATM    7  C   UNL     1     -40.454  53.555 -52.902  1.00  0.00     0.001 A 
HETATM    8  C   UNL     1     -40.833  54.845 -52.232  1.00  0.00     0.070 C 
HETATM    9  C   UNL     1     -41.165  54.654 -50.722  1.00  0.00     0.102 C 
HETATM   10  C   UNL     1     -40.268  53.591 -49.999  1.00  0.00     0.071 C 
HETATM   11  C   UNL     1     -38.805  54.036 -49.862  1.00  0.00     0.047 C 
HETATM   12  C   UNL     1     -40.354  52.217 -50.718  1.00  0.00     0.100 C 
ENDROOT
BRANCH   8  13
HETATM   13  C   UNL     1     -42.012  55.400 -53.027  1.00  0.00    -0.046 A 
HETATM   14  C   UNL     1     -41.963  56.669 -53.647  1.00  0.00     0.047 A 
HETATM   15  C   UNL     1     -43.055  57.153 -54.372  1.00  0.00     0.101 A 
HETATM   16  C   UNL     1     -44.201  56.360 -54.475  1.00  0.00     0.099 A 
HETATM   17  C   UNL     1     -44.279  55.114 -53.871  1.00  0.00     0.040 A 
HETATM   18  C   UNL     1     -43.188  54.637 -53.145  1.00  0.00     0.011 A 
BRANCH  15  19
HETATM   19  O   UNL     1     -43.131  58.364 -55.011  1.00  0.00    -0.353 OA
HETATM   20  C   UNL     1     -42.020  59.240 -54.853  1.00  0.00     0.210 C 
ENDBRANCH  15  19
BRANCH  16  21
HETATM   21  O   UNL     1     -45.287  56.805 -55.177  1.00  0.00    -0.358 OA
HETATM   22  H   UNL     1     -46.054  56.376 -54.750  1.00  0.00     0.218 HD
ENDBRANCH  16  21
ENDBRANCH   8  13
BRANCH   9  23
HETATM   23  C   UNL     1     -41.154  55.949 -49.907  1.00  0.00     0.131 C 
HETATM   24  C   UNL     1     -40.749  57.258 -50.528  1.00  0.00     0.091 C 
HETATM   25  O   UNL     1     -41.398  55.900 -48.695  1.00  0.00    -0.298 OA
ENDBRANCH   9  23
BRANCH  10  26
HETATM   26  O   UNL     1     -40.759  53.350 -48.665  1.00  0.00    -0.389 OA
HETATM   27  H   UNL     1     -41.695  53.639 -48.606  1.00  0.00     0.210 HD
ENDBRANCH  10  26
TORSDOF 5
ENDMDL
MODEL 3
REMARK VINA RESULT:      -6.4      3.564      6.790
REMARK  5 active torsions:
REMARK  status: ('A' for Active; 'I' for Inactive)
REMARK    1  A    between atoms: C_8  and  C_9 
REMARK    2  A    between atoms: C_11  and  O_12 
REMARK    3  A    between atoms: C_14  and  O_15 
REMARK    4  A    between atoms: C_18  and  C_19 
REMARK    5  A    between atoms: C_22  and  O_23 
ROOT
HETATM    1  C   UNL     1     -46.102  58.263 -56.847  1.00  0.00     0.070 C 
HETATM    2  C   UNL     1     -45.357  58.522 -55.593  1.00  0.00     0.033 A 
HETATM    3  N   UNL     1     -45.725  59.524 -54.734  1.00  0.00    -0.282 N 
HETATM    4  H   UNL     1     -46.492  60.180 -54.828  1.00  0.00     0.189 HD
HETATM    5  N   UNL     1     -44.961  59.597 -53.633  1.00  0.00    -0.179 NA
HETATM    6  C   UNL     1     -44.066  58.626 -53.807  1.00  0.00     0.066 A 
HETATM    7  C   UNL     1     -44.239  57.933 -55.027  1.00  0.00     0.001 A 
HETATM    8  C   UNL     1     -43.375  56.775 -55.439  1.00  0.00     0.070 C 
HETATM    9  C   UNL     1     -42.149  56.586 -54.497  1.00  0.00     0.102 C 
HETATM   10  C   UNL     1     -42.449  56.885 -52.988  1.00  0.00     0.071 C 
HETATM   11  C   UNL     1     -43.394  55.857 -52.350  1.00  0.00     0.047 C 
HETATM   12  C   UNL     1     -43.009  58.322 -52.812  1.00  0.00     0.100 C 
ENDROOT
BRANCH   8  13
HETATM   13  C   UNL     1     -42.969  57.048 -56.885  1.00  0.00    -0.046 A 
HETATM   14  C   UNL     1     -43.328  56.177 -57.938  1.00  0.00     0.047 A 
HETATM   15  C   UNL     1     -42.946  56.450 -59.254  1.00  0.00     0.101 A 
HETATM   16  C   UNL     1     -42.201  57.603 -59.513  1.00  0.00     0.099 A 
HETATM   17  C   UNL     1     -41.829  58.472 -58.498  1.00  0.00     0.040 A 
HETATM   18  C   UNL     1     -42.209  58.193 -57.186  1.00  0.00     0.011 A 
BRANCH  15  19
HETATM   19  O   UNL     1     -43.227  55.684 -60.355  1.00  0.00    -0.353 OA
HETATM   20  C   UNL     1     -44.467  54.984 -60.347  1.00  0.00     0.210 C 
ENDBRANCH  15  19
BRANCH  16  21
HETATM   21  O   UNL     1     -41.811  57.900 -60.791  1.00  0.00    -0.358 OA
HETATM   22  H   UNL     1     -42.507  57.518 -61.360  1.00  0.00     0.218 HD
ENDBRANCH  16  21
ENDBRANCH   8  13
BRANCH   9  23
HETATM   23  C   UNL     1     -41.477  55.215 -54.607  1.00  0.00     0.131 C 
HETATM   24  C   UNL     1     -42.262  53.990 -54.994  1.00  0.00     0.091 C 
HETATM   25  O   UNL     1     -40.288  55.099 -54.286  1.00  0.00    -0.298 OA
ENDBRANCH   9  23
BRANCH  10  26
HETATM   26  O   UNL     1     -41.227  56.860 -52.223  1.00  0.00    -0.389 OA
HETATM   27  H   UNL     1     -41.404  56.474 -51.339  1.00  0.00     0.210 HD
ENDBRANCH  10  26
TORSDOF 5
ENDMDL
MODEL 4
REMARK VINA RESULT:      -6.3      2.694      5.758
REMARK  5 active torsions:
REMARK  status: ('A' for Active; 'I' for Inactive)
REMARK    1  A    between atoms: C_8  and  C_9 
REMARK    2  A    between atoms: C_11  and  O_12 
REMARK    3  A    between atoms: C_14  and  O_15 
REMARK    4  A    between atoms: C_18  and  C_19 
REMARK    5  A    between atoms: C_22  and  O_23 
ROOT
HETATM    1  C   UNL     1     -43.839  54.837 -50.377  1.00  0.00     0.070 C 
HETATM    2  C   UNL     1     -44.081  56.208 -50.883  1.00  0.00     0.033 A 
HETATM    3  N   UNL     1     -45.345  56.728 -50.967  1.00  0.00    -0.282 N 
HETATM    4  H   UNL     1     -46.224  56.284 -50.721  1.00  0.00     0.189 HD
HETATM    5  N   UNL     1     -45.379  57.993 -51.415  1.00  0.00    -0.179 NA
HETATM    6  C   UNL     1     -44.099  58.279 -51.645  1.00  0.00     0.066 A 
HETATM    7  C   UNL     1     -43.236  57.195 -51.361  1.00  0.00     0.001 A 
HETATM    8  C   UNL     1     -41.743  57.280 -51.508  1.00  0.00     0.070 C 
HETATM    9  C   UNL     1     -41.291  58.590 -52.219  1.00  0.00     0.102 C 
HETATM   10  C   UNL     1     -42.147  59.848 -51.848  1.00  0.00     0.071 C 
HETATM   11  C   UNL     1     -41.954  60.295 -50.392  1.00  0.00     0.047 C 
HETATM   12  C   UNL     1     -43.650  59.601 -52.146  1.00  0.00     0.100 C 
ENDROOT
BRANCH   8  13
HETATM   13  C   UNL     1     -41.325  56.024 -52.268  1.00  0.00    -0.046 A 
HETATM   14  C   UNL     1     -40.855  54.870 -51.601  1.00  0.00     0.047 A 
HETATM   15  C   UNL     1     -40.481  53.731 -52.319  1.00  0.00     0.101 A 
HETATM   16  C   UNL     1     -40.580  53.751 -53.713  1.00  0.00     0.099 A 
HETATM   17  C   UNL     1     -41.032  54.872 -54.393  1.00  0.00     0.040 A 
HETATM   18  C   UNL     1     -41.400  56.007 -53.672  1.00  0.00     0.011 A 
BRANCH  15  19
HETATM   19  O   UNL     1     -40.007  52.558 -51.790  1.00  0.00    -0.353 OA
HETATM   20  C   UNL     1     -40.346  52.287 -50.434  1.00  0.00     0.210 C 
ENDBRANCH  15  19
BRANCH  16  21
HETATM   21  O   UNL     1     -40.222  52.653 -54.446  1.00  0.00    -0.358 OA
HETATM   22  H   UNL     1     -40.992  52.474 -55.020  1.00  0.00     0.218 HD
ENDBRANCH  16  21
ENDBRANCH   8  13
BRANCH   9  23
HETATM   23  C   UNL     1     -39.808  58.925 -52.035  1.00  0.00     0.131 C 
HETATM   24  C   UNL     1     -39.192  59.010 -50.665  1.00  0.00     0.091 C 
HETATM   25  O   UNL     1     -39.130  59.218 -53.028  1.00  0.00    -0.298 OA
ENDBRANCH   9  23
BRANCH  10  26
HETATM   26  O   UNL     1     -41.776  60.966 -52.681  1.00  0.00    -0.389 OA
HETATM   27  H   UNL     1     -41.201  61.574 -52.170  1.00  0.00     0.210 HD
ENDBRANCH  10  26
TORSDOF 5
ENDMDL
MODEL 5
REMARK VINA RESULT:      -6.3      2.975      5.645
REMARK  5 active torsions:
REMARK  status: ('A' for Active; 'I' for Inactive)
REMARK    1  A    between atoms: C_8  and  C_9 
REMARK    2  A    between atoms: C_11  and  O_12 
REMARK    3  A    between atoms: C_14  and  O_15 
REMARK    4  A    between atoms: C_18  and  C_19 
REMARK    5  A    between atoms: C_22  and  O_23 
ROOT
HETATM    1  C   UNL     1     -43.692  53.596 -55.634  1.00  0.00     0.070 C 
HETATM    2  C   UNL     1     -43.226  54.961 -55.971  1.00  0.00     0.033 A 
HETATM    3  N   UNL     1     -43.371  55.477 -57.232  1.00  0.00    -0.282 N 
HETATM    4  H   UNL     1     -43.778  55.034 -58.048  1.00  0.00     0.189 HD
HETATM    5  N   UNL     1     -42.924  56.738 -57.353  1.00  0.00    -0.179 NA
HETATM    6  C   UNL     1     -42.461  57.024 -56.137  1.00  0.00     0.066 A 
HETATM    7  C   UNL     1     -42.592  55.946 -55.232  1.00  0.00     0.001 A 
HETATM    8  C   UNL     1     -42.173  56.032 -53.792  1.00  0.00     0.070 C 
HETATM    9  C   UNL     1     -41.378  57.336 -53.483  1.00  0.00     0.102 C 
HETATM   10  C   UNL     1     -41.888  58.596 -54.262  1.00  0.00     0.071 C 
HETATM   11  C   UNL     1     -43.280  59.058 -53.807  1.00  0.00     0.047 C 
HETATM   12  C   UNL     1     -41.873  58.342 -55.793  1.00  0.00     0.100 C 
ENDROOT
BRANCH   8  13
HETATM   13  C   UNL     1     -41.362  54.770 -53.515  1.00  0.00    -0.046 A 
HETATM   14  C   UNL     1     -41.367  54.141 -52.250  1.00  0.00     0.047 A 
HETATM   15  C   UNL     1     -40.617  52.984 -52.022  1.00  0.00     0.101 A 
HETATM   16  C   UNL     1     -39.859  52.456 -53.070  1.00  0.00     0.099 A 
HETATM   17  C   UNL     1     -39.831  53.055 -54.320  1.00  0.00     0.040 A 
HETATM   18  C   UNL     1     -40.577  54.212 -54.541  1.00  0.00     0.011 A 
BRANCH  15  19
HETATM   19  O   UNL     1     -40.536  52.289 -50.843  1.00  0.00    -0.353 OA
HETATM   20  C   UNL     1     -40.422  53.063 -49.653  1.00  0.00     0.210 C 
ENDBRANCH  15  19
BRANCH  16  21
HETATM   21  O   UNL     1     -39.114  51.324 -52.881  1.00  0.00    -0.358 OA
HETATM   22  H   UNL     1     -39.734  50.680 -52.485  1.00  0.00     0.218 HD
ENDBRANCH  16  21
ENDBRANCH   8  13
BRANCH   9  23
HETATM   23  C   UNL     1     -41.284  57.676 -51.994  1.00  0.00     0.131 C 
HETATM   24  C   UNL     1     -42.361  57.261 -51.029  1.00  0.00     0.091 C 
HETATM   25  O   UNL     1     -40.350  58.383 -51.596  1.00  0.00    -0.298 OA
ENDBRANCH   9  23
BRANCH  10  26
HETATM   26  O   UNL     1     -40.991  59.706 -54.055  1.00  0.00    -0.389 OA
HETATM   27  H   UNL     1     -40.164  59.381 -53.640  1.00  0.00     0.210 HD
ENDBRANCH  10  26
TORSDOF 5
ENDMDL
MODEL 6
REMARK VINA RESULT:      -6.3      3.107      4.921
REMARK  5 active torsions:
REMARK  status: ('A' for Active; 'I' for Inactive)
REMARK    1  A    between atoms: C_8  and  C_9 
REMARK    2  A    between atoms: C_11  and  O_12 
REMARK    3  A    between atoms: C_14  and  O_15 
REMARK    4  A    between atoms: C_18  and  C_19 
REMARK    5  A    between atoms: C_22  and  O_23 
ROOT
HETATM    1  C   UNL     1     -40.234  58.106 -50.580  1.00  0.00     0.070 C 
HETATM    2  C   UNL     1     -41.595  58.317 -51.126  1.00  0.00     0.033 A 
HETATM    3  N   UNL     1     -42.362  59.387 -50.746  1.00  0.00    -0.282 N 
HETATM    4  H   UNL     1     -42.129  60.124 -50.089  1.00  0.00     0.189 HD
HETATM    5  N   UNL     1     -43.554  59.441 -51.362  1.00  0.00    -0.179 NA
HETATM    6  C   UNL     1     -43.554  58.361 -52.140  1.00  0.00     0.066 A 
HETATM    7  C   UNL     1     -42.371  57.597 -52.018  1.00  0.00     0.001 A 
HETATM    8  C   UNL     1     -42.117  56.350 -52.818  1.00  0.00     0.070 C 
HETATM    9  C   UNL     1     -43.381  55.879 -53.598  1.00  0.00     0.102 C 
HETATM   10  C   UNL     1     -44.254  57.050 -54.167  1.00  0.00     0.071 C 
HETATM   11  C   UNL     1     -43.557  57.824 -55.294  1.00  0.00     0.047 C 
HETATM   12  C   UNL     1     -44.688  58.015 -53.031  1.00  0.00     0.100 C 
ENDROOT
BRANCH   8  13
HETATM   13  C   UNL     1     -41.621  55.307 -51.820  1.00  0.00    -0.046 A 
HETATM   14  C   UNL     1     -40.616  54.372 -52.154  1.00  0.00     0.047 A 
HETATM   15  C   UNL     1     -40.177  53.428 -51.223  1.00  0.00     0.101 A 
HETATM   16  C   UNL     1     -40.749  53.424 -49.948  1.00  0.00     0.099 A 
HETATM   17  C   UNL     1     -41.741  54.326 -49.594  1.00  0.00     0.040 A 
HETATM   18  C   UNL     1     -42.179  55.262 -50.529  1.00  0.00     0.011 A 
BRANCH  15  19
HETATM   19  O   UNL     1     -39.217  52.471 -51.429  1.00  0.00    -0.353 OA
HETATM   20  C   UNL     1     -39.484  51.507 -52.442  1.00  0.00     0.210 C 
ENDBRANCH  15  19
BRANCH  16  21
HETATM   21  O   UNL     1     -40.342  52.513 -49.012  1.00  0.00    -0.358 OA
HETATM   22  H   UNL     1     -41.089  52.447 -48.386  1.00  0.00     0.218 HD
ENDBRANCH  16  21
ENDBRANCH   8  13
BRANCH   9  23
HETATM   23  C   UNL     1     -43.089  54.885 -54.725  1.00  0.00     0.131 C 
HETATM   24  C   UNL     1     -41.780  54.909 -55.467  1.00  0.00     0.091 C 
HETATM   25  O   UNL     1     -43.980  54.108 -55.088  1.00  0.00    -0.298 OA
ENDBRANCH   9  23
BRANCH  10  26
HETATM   26  O   UNL     1     -45.484  56.533 -54.713  1.00  0.00    -0.389 OA
HETATM   27  H   UNL     1     -46.055  56.212 -53.982  1.00  0.00     0.210 HD
ENDBRANCH  10  26
TORSDOF 5
ENDMDL
MODEL 7
REMARK VINA RESULT:      -6.2      2.364      5.785
REMARK  5 active torsions:
REMARK  status: ('A' for Active; 'I' for Inactive)
REMARK    1  A    between atoms: C_8  and  C_9 
REMARK    2  A    between atoms: C_11  and  O_12 
REMARK    3  A    between atoms: C_14  and  O_15 
REMARK    4  A    between atoms: C_18  and  C_19 
REMARK    5  A    between atoms: C_22  and  O_23 
ROOT
HETATM    1  C   UNL     1     -43.837  54.758 -50.238  1.00  0.00     0.070 C 
HETATM    2  C   UNL     1     -44.101  56.126 -50.743  1.00  0.00     0.033 A 
HETATM    3  N   UNL     1     -45.369  56.642 -50.785  1.00  0.00    -0.282 N 
HETATM    4  H   UNL     1     -46.237  56.197 -50.505  1.00  0.00     0.189 HD
HETATM    5  N   UNL     1     -45.423  57.904 -51.239  1.00  0.00    -0.179 NA
HETATM    6  C   UNL     1     -44.152  58.192 -51.516  1.00  0.00     0.066 A 
HETATM    7  C   UNL     1     -43.277  57.112 -51.256  1.00  0.00     0.001 A 
HETATM    8  C   UNL     1     -41.790  57.200 -51.456  1.00  0.00     0.070 C 
HETATM    9  C   UNL     1     -41.367  58.507 -52.191  1.00  0.00     0.102 C 
HETATM   10  C   UNL     1     -42.214  59.766 -51.797  1.00  0.00     0.071 C 
HETATM   11  C   UNL     1     -41.970  60.221 -50.351  1.00  0.00     0.047 C 
HETATM   12  C   UNL     1     -43.725  59.512 -52.040  1.00  0.00     0.100 C 
ENDROOT
BRANCH   8  13
HETATM   13  C   UNL     1     -41.396  55.941 -52.223  1.00  0.00    -0.046 A 
HETATM   14  C   UNL     1     -41.643  55.801 -53.607  1.00  0.00     0.047 A 
HETATM   15  C   UNL     1     -41.271  54.639 -54.287  1.00  0.00     0.101 A 
HETATM   16  C   UNL     1     -40.646  53.612 -53.574  1.00  0.00     0.099 A 
HETATM   17  C   UNL     1     -40.396  53.720 -52.214  1.00  0.00     0.040 A 
HETATM   18  C   UNL     1     -40.774  54.880 -51.539  1.00  0.00     0.011 A 
BRANCH  15  19
HETATM   19  O   UNL     1     -41.462  54.383 -55.621  1.00  0.00    -0.353 OA
HETATM   20  C   UNL     1     -42.517  55.092 -56.262  1.00  0.00     0.210 C 
ENDBRANCH  15  19
BRANCH  16  21
HETATM   21  O   UNL     1     -40.268  52.461 -54.210  1.00  0.00    -0.358 OA
HETATM   22  H   UNL     1     -40.909  51.788 -53.910  1.00  0.00     0.218 HD
ENDBRANCH  16  21
ENDBRANCH   8  13
BRANCH   9  23
HETATM   23  C   UNL     1     -39.880  58.847 -52.062  1.00  0.00     0.131 C 
HETATM   24  C   UNL     1     -39.188  58.823 -50.726  1.00  0.00     0.091 C 
HETATM   25  O   UNL     1     -39.263  59.235 -53.062  1.00  0.00    -0.298 OA
ENDBRANCH   9  23
BRANCH  10  26
HETATM   26  O   UNL     1     -41.876  60.879 -52.649  1.00  0.00    -0.389 OA
HETATM   27  H   UNL     1     -40.916  61.066 -52.574  1.00  0.00     0.210 HD
ENDBRANCH  10  26
TORSDOF 5
ENDMDL
MODEL 8
REMARK VINA RESULT:      -6.1      3.444      6.296
REMARK  5 active torsions:
REMARK  status: ('A' for Active; 'I' for Inactive)
REMARK    1  A    between atoms: C_8  and  C_9 
REMARK    2  A    between atoms: C_11  and  O_12 
REMARK    3  A    between atoms: C_14  and  O_15 
REMARK    4  A    between atoms: C_18  and  C_19 
REMARK    5  A    between atoms: C_22  and  O_23 
ROOT
HETATM    1  C   UNL     1     -46.090  58.071 -56.570  1.00  0.00     0.070 C 
HETATM    2  C   UNL     1     -45.297  58.337 -55.347  1.00  0.00     0.033 A 
HETATM    3  N   UNL     1     -45.622  59.355 -54.490  1.00  0.00    -0.282 N 
HETATM    4  H   UNL     1     -46.384  60.020 -54.566  1.00  0.00     0.189 HD
HETATM    5  N   UNL     1     -44.819  59.433 -53.417  1.00  0.00    -0.179 NA
HETATM    6  C   UNL     1     -43.943  58.449 -53.609  1.00  0.00     0.066 A 
HETATM    7  C   UNL     1     -44.167  57.742 -54.813  1.00  0.00     0.001 A 
HETATM    8  C   UNL     1     -43.333  56.567 -55.238  1.00  0.00     0.070 C 
HETATM    9  C   UNL     1     -42.076  56.375 -54.337  1.00  0.00     0.102 C 
HETATM   10  C   UNL     1     -42.319  56.699 -52.823  1.00  0.00     0.071 C 
HETATM   11  C   UNL     1     -43.254  55.692 -52.138  1.00  0.00     0.047 C 
HETATM   12  C   UNL     1     -42.855  58.145 -52.648  1.00  0.00     0.100 C 
ENDROOT
BRANCH   8  13
HETATM   13  C   UNL     1     -42.975  56.815 -56.701  1.00  0.00    -0.046 A 
HETATM   14  C   UNL     1     -42.418  58.038 -57.136  1.00  0.00     0.047 A 
HETATM   15  C   UNL     1     -42.096  58.240 -58.481  1.00  0.00     0.101 A 
HETATM   16  C   UNL     1     -42.335  57.209 -59.393  1.00  0.00     0.099 A 
HETATM   17  C   UNL     1     -42.886  56.000 -58.994  1.00  0.00     0.040 A 
HETATM   18  C   UNL     1     -43.209  55.805 -57.652  1.00  0.00     0.011 A 
BRANCH  15  19
HETATM   19  O   UNL     1     -41.559  59.379 -59.024  1.00  0.00    -0.353 OA
HETATM   20  C   UNL     1     -41.541  60.535 -58.193  1.00  0.00     0.210 C 
ENDBRANCH  15  19
BRANCH  16  21
HETATM   21  O   UNL     1     -42.031  57.374 -60.716  1.00  0.00    -0.358 OA
HETATM   22  H   UNL     1     -41.260  56.794 -60.870  1.00  0.00     0.218 HD
ENDBRANCH  16  21
ENDBRANCH   8  13
BRANCH   9  23
HETATM   23  C   UNL     1     -41.426  54.994 -54.452  1.00  0.00     0.131 C 
HETATM   24  C   UNL     1     -42.248  53.765 -54.733  1.00  0.00     0.091 C 
HETATM   25  O   UNL     1     -40.216  54.877 -54.220  1.00  0.00    -0.298 OA
ENDBRANCH   9  23
BRANCH  10  26
HETATM   26  O   UNL     1     -41.071  56.669 -52.102  1.00  0.00    -0.389 OA
HETATM   27  H   UNL     1     -40.856  55.742 -51.862  1.00  0.00     0.210 HD
ENDBRANCH  10  26
TORSDOF 5
ENDMDL
MODEL 9
REMARK VINA RESULT:      -5.9     17.020     19.882
REMARK  5 active torsions:
REMARK  status: ('A' for Active; 'I' for Inactive)
REMARK    1  A    between atoms: C_8  and  C_9 
REMARK    2  A    between atoms: C_11  and  O_12 
REMARK    3  A    between atoms: C_14  and  O_15 
REMARK    4  A    between atoms: C_18  and  C_19 
REMARK    5  A    between atoms: C_22  and  O_23 
ROOT
HETATM    1  C   UNL     1     -36.367  40.327 -55.784  1.00  0.00     0.070 C 
HETATM    2  C   UNL     1     -35.949  41.001 -54.533  1.00  0.00     0.033 A 
HETATM    3  N   UNL     1     -36.418  42.243 -54.197  1.00  0.00    -0.282 N 
HETATM    4  H   UNL     1     -37.061  42.832 -54.716  1.00  0.00     0.189 HD
HETATM    5  N   UNL     1     -35.963  42.690 -53.016  1.00  0.00    -0.179 NA
HETATM    6  C   UNL     1     -35.162  41.712 -52.598  1.00  0.00     0.066 A 
HETATM    7  C   UNL     1     -35.085  40.638 -53.514  1.00  0.00     0.001 A 
HETATM    8  C   UNL     1     -34.272  39.400 -53.255  1.00  0.00     0.070 C 
HETATM    9  C   UNL     1     -33.360  39.542 -52.001  1.00  0.00     0.102 C 
HETATM   10  C   UNL     1     -34.007  40.353 -50.827  1.00  0.00     0.071 C 
HETATM   11  C   UNL     1     -35.189  39.622 -50.175  1.00  0.00     0.047 C 
HETATM   12  C   UNL     1     -34.438  41.766 -51.305  1.00  0.00     0.100 C 
ENDROOT
BRANCH   8  13
HETATM   13  C   UNL     1     -33.478  39.146 -54.534  1.00  0.00    -0.046 A 
HETATM   14  C   UNL     1     -33.701  38.005 -55.338  1.00  0.00     0.047 A 
HETATM   15  C   UNL     1     -32.963  37.796 -56.505  1.00  0.00     0.101 A 
HETATM   16  C   UNL     1     -31.996  38.738 -56.868  1.00  0.00     0.099 A 
HETATM   17  C   UNL     1     -31.752  39.863 -56.096  1.00  0.00     0.040 A 
HETATM   18  C   UNL     1     -32.489  40.065 -54.929  1.00  0.00     0.011 A 
BRANCH  15  19
HETATM   19  O   UNL     1     -33.083  36.731 -57.360  1.00  0.00    -0.353 OA
HETATM   20  C   UNL     1     -34.283  36.658 -58.124  1.00  0.00     0.210 C 
ENDBRANCH  15  19
BRANCH  16  21
HETATM   21  O   UNL     1     -31.257  38.563 -58.005  1.00  0.00    -0.358 OA
HETATM   22  H   UNL     1     -31.531  37.692 -58.351  1.00  0.00     0.218 HD
ENDBRANCH  16  21
ENDBRANCH   8  13
BRANCH   9  23
HETATM   23  C   UNL     1     -32.832  38.213 -51.455  1.00  0.00     0.131 C 
HETATM   24  C   UNL     1     -33.546  36.917 -51.732  1.00  0.00     0.091 C 
HETATM   25  O   UNL     1     -31.853  38.219 -50.699  1.00  0.00    -0.298 OA
ENDBRANCH   9  23
BRANCH  10  26
HETATM   26  O   UNL     1     -33.035  40.586 -49.788  1.00  0.00    -0.389 OA
HETATM   27  H   UNL     1     -32.191  40.881 -50.193  1.00  0.00     0.210 HD
ENDBRANCH  10  26
TORSDOF 5
ENDMDL
MODEL 10
REMARK VINA RESULT:      -5.9      2.904      4.591
REMARK  5 active torsions:
REMARK  status: ('A' for Active; 'I' for Inactive)
REMARK    1  A    between atoms: C_8  and  C_9 
REMARK    2  A    between atoms: C_11  and  O_12 
REMARK    3  A    between atoms: C_14  and  O_15 
REMARK    4  A    between atoms: C_18  and  C_19 
REMARK    5  A    between atoms: C_22  and  O_23 
ROOT
HETATM    1  C   UNL     1     -41.735  59.601 -54.563  1.00  0.00     0.070 C 
HETATM    2  C   UNL     1     -42.352  58.254 -54.605  1.00  0.00     0.033 A 
HETATM    3  N   UNL     1     -42.918  57.760 -55.750  1.00  0.00    -0.282 N 
HETATM    4  H   UNL     1     -42.993  58.209 -56.657  1.00  0.00     0.189 HD
HETATM    5  N   UNL     1     -43.401  56.515 -55.618  1.00  0.00    -0.179 NA
HETATM    6  C   UNL     1     -43.155  56.216 -54.344  1.00  0.00     0.066 A 
HETATM    7  C   UNL     1     -42.527  57.272 -53.645  1.00  0.00     0.001 A 
HETATM    8  C   UNL     1     -42.118  57.168 -52.202  1.00  0.00     0.070 C 
HETATM    9  C   UNL     1     -42.669  55.880 -51.522  1.00  0.00     0.102 C 
HETATM   10  C   UNL     1     -42.693  54.622 -52.457  1.00  0.00     0.071 C 
HETATM   11  C   UNL     1     -41.288  54.116 -52.814  1.00  0.00     0.047 C 
HETATM   12  C   UNL     1     -43.512  54.908 -53.744  1.00  0.00     0.100 C 
ENDROOT
BRANCH   8  13
HETATM   13  C   UNL     1     -42.616  58.446 -51.532  1.00  0.00    -0.046 A 
HETATM   14  C   UNL     1     -43.994  58.720 -51.379  1.00  0.00     0.047 A 
HETATM   15  C   UNL     1     -44.425  59.896 -50.760  1.00  0.00     0.101 A 
HETATM   16  C   UNL     1     -43.468  60.801 -50.292  1.00  0.00     0.099 A 
HETATM   17  C   UNL     1     -42.109  60.560 -50.435  1.00  0.00     0.040 A 
HETATM   18  C   UNL     1     -41.685  59.387 -51.057  1.00  0.00     0.011 A 
BRANCH  15  19
HETATM   19  O   UNL     1     -45.727  60.276 -50.558  1.00  0.00    -0.353 OA
HETATM   20  C   UNL     1     -46.467  60.657 -51.713  1.00  0.00     0.210 C 
ENDBRANCH  15  19
BRANCH  16  21
HETATM   21  O   UNL     1     -43.856  61.961 -49.681  1.00  0.00    -0.358 OA
HETATM   22  H   UNL     1     -44.783  61.805 -49.414  1.00  0.00     0.218 HD
ENDBRANCH  16  21
ENDBRANCH   8  13
BRANCH   9  23
HETATM   23  C   UNL     1     -41.967  55.512 -50.212  1.00  0.00     0.131 C 
HETATM   24  C   UNL     1     -40.613  56.073 -49.869  1.00  0.00     0.091 C 
HETATM   25  O   UNL     1     -42.485  54.670 -49.468  1.00  0.00    -0.298 OA
ENDBRANCH   9  23
BRANCH  10  26
HETATM   26  O   UNL     1     -43.378  53.532 -51.807  1.00  0.00    -0.389 OA
HETATM   27  H   UNL     1     -43.246  52.710 -52.326  1.00  0.00     0.210 HD
ENDBRANCH  10  26
TORSDOF 5
ENDMDL
