MODEL 1
REMARK VINA RESULT:      -8.2      0.000      0.000
REMARK  2 active torsions:
REMARK  status: ('A' for Active; 'I' for Inactive)
REMARK    1  A    between atoms: C_4  and  C_5 
REMARK    2  A    between atoms: C_10  and  C_11 
ROOT
HETATM    1  C   UNL     1     -42.566  54.718 -51.812  1.00  0.00     0.202 C 
HETATM    2  N   UNL     1     -41.337  55.015 -51.081  1.00  0.00    -0.331 N 
HETATM    3  C   UNL     1     -41.369  55.915 -49.936  1.00  0.00     0.155 C 
HETATM    4  C   UNL     1     -40.374  54.000 -51.025  1.00  0.00     0.256 C 
HETATM    5  O   UNL     1     -39.515  53.911 -50.151  1.00  0.00    -0.267 OA
HETATM    6  C   UNL     1     -40.388  53.016 -52.131  1.00  0.00     0.053 A 
HETATM    7  C   UNL     1     -41.296  53.220 -53.173  1.00  0.00     0.026 A 
HETATM    8  N   UNL     1     -42.168  54.329 -53.173  1.00  0.00    -0.266 NA
HETATM    9  C   UNL     1     -39.475  51.958 -52.168  1.00  0.00     0.019 A 
HETATM   10  C   UNL     1     -39.448  51.111 -53.274  1.00  0.00     0.001 A 
HETATM   11  C   UNL     1     -40.316  51.337 -54.344  1.00  0.00     0.002 A 
HETATM   12  C   UNL     1     -41.225  52.398 -54.299  1.00  0.00     0.024 A 
HETATM   13  H   UNL     1     -41.666  55.117 -53.576  1.00  0.00     0.130 HD
ENDROOT
BRANCH   1  14
HETATM   14  C   UNL     1     -43.537  55.867 -51.807  1.00  0.00     0.029 A 
HETATM   15  C   UNL     1     -43.804  56.799 -52.854  1.00  0.00     0.121 A 
HETATM   16  N   UNL     1     -44.721  57.709 -52.494  1.00  0.00    -0.172 NA
HETATM   17  N   UNL     1     -45.032  57.380 -51.234  1.00  0.00    -0.288 N 
HETATM   18  H   UNL     1     -45.713  57.950 -50.743  1.00  0.00     0.188 HD
HETATM   19  C   UNL     1     -44.366  56.285 -50.778  1.00  0.00     0.122 A 
BRANCH  15  20
HETATM   20  C   UNL     1     -43.198  56.802 -54.222  1.00  0.00     0.106 A 
HETATM   21  O   UNL     1     -43.552  55.954 -55.236  1.00  0.00    -0.313 OA
HETATM   22  C   UNL     1     -42.811  56.284 -56.329  1.00  0.00     0.050 A 
HETATM   23  C   UNL     1     -43.049  55.486 -57.548  1.00  0.00     0.076 C 
HETATM   24  C   UNL     1     -41.969  57.331 -56.030  1.00  0.00     0.035 A 
HETATM   25  C   UNL     1     -42.217  57.664 -54.676  1.00  0.00     0.042 A 
ENDBRANCH  15  20
ENDBRANCH   1  14
TORSDOF 2
ENDMDL
MODEL 2
REMARK VINA RESULT:      -8.1      2.232      5.446
REMARK  2 active torsions:
REMARK  status: ('A' for Active; 'I' for Inactive)
REMARK    1  A    between atoms: C_4  and  C_5 
REMARK    2  A    between atoms: C_10  and  C_11 
ROOT
HETATM    1  C   UNL     1     -41.989  56.064 -50.518  1.00  0.00     0.202 C 
HETATM    2  N   UNL     1     -43.412  55.912 -50.808  1.00  0.00    -0.331 N 
HETATM    3  C   UNL     1     -44.203  54.926 -50.084  1.00  0.00     0.155 C 
HETATM    4  C   UNL     1     -44.101  57.064 -51.209  1.00  0.00     0.256 C 
HETATM    5  O   UNL     1     -45.314  57.218 -51.089  1.00  0.00    -0.267 OA
HETATM    6  C   UNL     1     -43.296  58.122 -51.858  1.00  0.00     0.053 A 
HETATM    7  C   UNL     1     -41.943  57.860 -52.092  1.00  0.00     0.026 A 
HETATM    8  N   UNL     1     -41.365  56.627 -51.724  1.00  0.00    -0.266 NA
HETATM    9  C   UNL     1     -43.883  59.315 -52.289  1.00  0.00     0.019 A 
HETATM   10  C   UNL     1     -43.117  60.246 -52.989  1.00  0.00     0.001 A 
HETATM   11  C   UNL     1     -41.779  59.971 -53.273  1.00  0.00     0.002 A 
HETATM   12  C   UNL     1     -41.200  58.775 -52.840  1.00  0.00     0.024 A 
HETATM   13  H   UNL     1     -41.531  55.970 -52.483  1.00  0.00     0.130 HD
ENDROOT
BRANCH   1  14
HETATM   14  C   UNL     1     -41.342  54.774 -50.090  1.00  0.00     0.029 A 
HETATM   15  C   UNL     1     -41.005  53.648 -50.897  1.00  0.00     0.121 A 
HETATM   16  N   UNL     1     -40.456  52.660 -50.176  1.00  0.00    -0.172 NA
HETATM   17  N   UNL     1     -40.451  53.133 -48.923  1.00  0.00    -0.288 N 
HETATM   18  H   UNL     1     -40.083  52.539 -48.187  1.00  0.00     0.188 HD
HETATM   19  C   UNL     1     -40.955  54.391 -48.815  1.00  0.00     0.122 A 
BRANCH  15  20
HETATM   20  C   UNL     1     -41.182  53.527 -52.378  1.00  0.00     0.106 A 
HETATM   21  O   UNL     1     -42.267  53.980 -53.076  1.00  0.00    -0.313 OA
HETATM   22  C   UNL     1     -42.048  53.721 -54.394  1.00  0.00     0.050 A 
HETATM   23  C   UNL     1     -43.108  54.146 -55.331  1.00  0.00     0.076 C 
HETATM   24  C   UNL     1     -40.835  53.091 -54.557  1.00  0.00     0.035 A 
HETATM   25  C   UNL     1     -40.278  52.966 -53.261  1.00  0.00     0.042 A 
ENDBRANCH  15  20
ENDBRANCH   1  14
TORSDOF 2
ENDMDL
MODEL 3
REMARK VINA RESULT:      -8.0      2.517      4.135
REMARK  2 active torsions:
REMARK  status: ('A' for Active; 'I' for Inactive)
REMARK    1  A    between atoms: C_4  and  C_5 
REMARK    2  A    between atoms: C_10  and  C_11 
ROOT
HETATM    1  C   UNL     1     -42.275  55.945 -52.544  1.00  0.00     0.202 C 
HETATM    2  N   UNL     1     -43.063  55.346 -53.619  1.00  0.00    -0.331 N 
HETATM    3  C   UNL     1     -43.990  56.165 -54.388  1.00  0.00     0.155 C 
HETATM    4  C   UNL     1     -42.475  54.283 -54.316  1.00  0.00     0.256 C 
HETATM    5  O   UNL     1     -42.783  53.953 -55.458  1.00  0.00    -0.267 OA
HETATM    6  C   UNL     1     -41.457  53.497 -53.584  1.00  0.00     0.053 A 
HETATM    7  C   UNL     1     -41.222  53.822 -52.245  1.00  0.00     0.026 A 
HETATM    8  N   UNL     1     -41.934  54.861 -51.611  1.00  0.00    -0.266 NA
HETATM    9  C   UNL     1     -40.802  52.421 -54.189  1.00  0.00     0.019 A 
HETATM   10  C   UNL     1     -39.925  51.638 -53.439  1.00  0.00     0.001 A 
HETATM   11  C   UNL     1     -39.724  51.923 -52.087  1.00  0.00     0.002 A 
HETATM   12  C   UNL     1     -40.382  53.000 -51.490  1.00  0.00     0.024 A 
HETATM   13  H   UNL     1     -42.810  54.472 -51.270  1.00  0.00     0.130 HD
ENDROOT
BRANCH   1  14
HETATM   14  C   UNL     1     -42.990  57.081 -51.864  1.00  0.00     0.029 A 
HETATM   15  C   UNL     1     -42.436  58.297 -51.366  1.00  0.00     0.121 A 
HETATM   16  N   UNL     1     -43.368  59.078 -50.800  1.00  0.00    -0.172 NA
HETATM   17  N   UNL     1     -44.501  58.373 -50.917  1.00  0.00    -0.288 N 
HETATM   18  H   UNL     1     -45.355  58.771 -50.539  1.00  0.00     0.188 HD
HETATM   19  C   UNL     1     -44.337  57.182 -51.553  1.00  0.00     0.122 A 
BRANCH  15  20
HETATM   20  C   UNL     1     -41.008  58.732 -51.460  1.00  0.00     0.106 A 
HETATM   21  O   UNL     1     -40.238  59.122 -50.399  1.00  0.00    -0.313 OA
HETATM   22  C   UNL     1     -38.994  59.407 -50.872  1.00  0.00     0.050 A 
HETATM   23  C   UNL     1     -37.996  59.843 -49.876  1.00  0.00     0.076 C 
HETATM   24  C   UNL     1     -38.953  59.218 -52.235  1.00  0.00     0.035 A 
HETATM   25  C   UNL     1     -40.248  58.783 -52.613  1.00  0.00     0.042 A 
ENDBRANCH  15  20
ENDBRANCH   1  14
TORSDOF 2
ENDMDL
MODEL 4
REMARK VINA RESULT:      -7.9      2.135      5.777
REMARK  2 active torsions:
REMARK  status: ('A' for Active; 'I' for Inactive)
REMARK    1  A    between atoms: C_4  and  C_5 
REMARK    2  A    between atoms: C_10  and  C_11 
ROOT
HETATM    1  C   UNL     1     -42.658  56.765 -55.099  1.00  0.00     0.202 C 
HETATM    2  N   UNL     1     -42.594  58.210 -55.302  1.00  0.00    -0.331 N 
HETATM    3  C   UNL     1     -42.298  59.092 -54.182  1.00  0.00     0.155 C 
HETATM    4  C   UNL     1     -42.148  58.652 -56.555  1.00  0.00     0.256 C 
HETATM    5  O   UNL     1     -41.648  59.755 -56.758  1.00  0.00    -0.267 OA
HETATM    6  C   UNL     1     -42.351  57.727 -57.691  1.00  0.00     0.053 A 
HETATM    7  C   UNL     1     -43.036  56.534 -57.446  1.00  0.00     0.026 A 
HETATM    8  N   UNL     1     -43.521  56.223 -56.159  1.00  0.00    -0.266 NA
HETATM    9  C   UNL     1     -41.934  58.066 -58.982  1.00  0.00     0.019 A 
HETATM   10  C   UNL     1     -42.234  57.218 -60.047  1.00  0.00     0.001 A 
HETATM   11  C   UNL     1     -42.963  56.050 -59.821  1.00  0.00     0.002 A 
HETATM   12  C   UNL     1     -43.376  55.718 -58.528  1.00  0.00     0.024 A 
HETATM   13  H   UNL     1     -44.433  56.663 -56.058  1.00  0.00     0.130 HD
ENDROOT
BRANCH   1  14
HETATM   14  C   UNL     1     -43.142  56.393 -53.724  1.00  0.00     0.029 A 
HETATM   15  C   UNL     1     -42.761  55.270 -52.930  1.00  0.00     0.121 A 
HETATM   16  N   UNL     1     -43.409  55.242 -51.757  1.00  0.00    -0.172 NA
HETATM   17  N   UNL     1     -44.205  56.319 -51.796  1.00  0.00    -0.288 N 
HETATM   18  H   UNL     1     -44.811  56.497 -51.002  1.00  0.00     0.188 HD
HETATM   19  C   UNL     1     -44.078  57.047 -52.938  1.00  0.00     0.122 A 
BRANCH  15  20
HETATM   20  C   UNL     1     -41.744  54.231 -53.284  1.00  0.00     0.106 A 
HETATM   21  O   UNL     1     -41.096  53.432 -52.383  1.00  0.00    -0.313 OA
HETATM   22  C   UNL     1     -40.281  52.597 -53.082  1.00  0.00     0.050 A 
HETATM   23  C   UNL     1     -39.489  51.636 -52.288  1.00  0.00     0.076 C 
HETATM   24  C   UNL     1     -40.384  52.854 -54.430  1.00  0.00     0.035 A 
HETATM   25  C   UNL     1     -41.325  53.905 -54.560  1.00  0.00     0.042 A 
ENDBRANCH  15  20
ENDBRANCH   1  14
TORSDOF 2
ENDMDL
MODEL 5
REMARK VINA RESULT:      -7.8      2.978      4.287
REMARK  2 active torsions:
REMARK  status: ('A' for Active; 'I' for Inactive)
REMARK    1  A    between atoms: C_4  and  C_5 
REMARK    2  A    between atoms: C_10  and  C_11 
ROOT
HETATM    1  C   UNL     1     -43.148  57.290 -53.575  1.00  0.00     0.202 C 
HETATM    2  N   UNL     1     -43.334  56.672 -52.265  1.00  0.00    -0.331 N 
HETATM    3  C   UNL     1     -44.370  57.163 -51.367  1.00  0.00     0.155 C 
HETATM    4  C   UNL     1     -43.045  55.305 -52.165  1.00  0.00     0.256 C 
HETATM    5  O   UNL     1     -43.520  54.562 -51.310  1.00  0.00    -0.267 OA
HETATM    6  C   UNL     1     -42.067  54.765 -53.134  1.00  0.00     0.053 A 
HETATM    7  C   UNL     1     -41.453  55.664 -54.010  1.00  0.00     0.026 A 
HETATM    8  N   UNL     1     -41.754  57.041 -53.970  1.00  0.00    -0.266 NA
HETATM    9  C   UNL     1     -41.715  53.412 -53.127  1.00  0.00     0.019 A 
HETATM   10  C   UNL     1     -40.714  52.957 -53.984  1.00  0.00     0.001 A 
HETATM   11  C   UNL     1     -40.059  53.857 -54.827  1.00  0.00     0.002 A 
HETATM   12  C   UNL     1     -40.416  55.208 -54.827  1.00  0.00     0.024 A 
HETATM   13  H   UNL     1     -41.160  57.466 -53.260  1.00  0.00     0.130 HD
ENDROOT
BRANCH   1  14
HETATM   14  C   UNL     1     -43.490  58.756 -53.580  1.00  0.00     0.029 A 
HETATM   15  C   UNL     1     -42.914  59.797 -52.794  1.00  0.00     0.121 A 
HETATM   16  N   UNL     1     -43.478  60.987 -53.046  1.00  0.00    -0.172 NA
HETATM   17  N   UNL     1     -44.411  60.718 -53.968  1.00  0.00    -0.288 N 
HETATM   18  H   UNL     1     -44.985  61.483 -54.308  1.00  0.00     0.188 HD
HETATM   19  C   UNL     1     -44.455  59.408 -54.332  1.00  0.00     0.122 A 
BRANCH  15  20
HETATM   20  C   UNL     1     -41.792  59.659 -51.814  1.00  0.00     0.106 A 
HETATM   21  O   UNL     1     -40.491  59.399 -52.146  1.00  0.00    -0.313 OA
HETATM   22  C   UNL     1     -39.765  59.381 -50.995  1.00  0.00     0.050 A 
HETATM   23  C   UNL     1     -38.318  59.124 -51.136  1.00  0.00     0.076 C 
HETATM   24  C   UNL     1     -40.586  59.614 -49.915  1.00  0.00     0.035 A 
HETATM   25  C   UNL     1     -41.889  59.793 -50.441  1.00  0.00     0.042 A 
ENDBRANCH  15  20
ENDBRANCH   1  14
TORSDOF 2
ENDMDL
MODEL 6
REMARK VINA RESULT:      -7.7      2.562      3.598
REMARK  2 active torsions:
REMARK  status: ('A' for Active; 'I' for Inactive)
REMARK    1  A    between atoms: C_4  and  C_5 
REMARK    2  A    between atoms: C_10  and  C_11 
ROOT
HETATM    1  C   UNL     1     -42.440  55.942 -51.851  1.00  0.00     0.202 C 
HETATM    2  N   UNL     1     -41.428  55.514 -50.889  1.00  0.00    -0.331 N 
HETATM    3  C   UNL     1     -41.577  55.840 -49.477  1.00  0.00     0.155 C 
HETATM    4  C   UNL     1     -40.764  54.311 -51.165  1.00  0.00     0.256 C 
HETATM    5  O   UNL     1     -40.222  53.612 -50.312  1.00  0.00    -0.267 OA
HETATM    6  C   UNL     1     -40.687  53.911 -52.587  1.00  0.00     0.053 A 
HETATM    7  C   UNL     1     -41.203  54.793 -53.540  1.00  0.00     0.026 A 
HETATM    8  N   UNL     1     -41.777  56.024 -53.160  1.00  0.00    -0.266 NA
HETATM    9  C   UNL     1     -40.054  52.725 -52.970  1.00  0.00     0.019 A 
HETATM   10  C   UNL     1     -39.908  52.430 -54.325  1.00  0.00     0.001 A 
HETATM   11  C   UNL     1     -40.375  53.328 -55.286  1.00  0.00     0.002 A 
HETATM   12  C   UNL     1     -41.005  54.512 -54.894  1.00  0.00     0.024 A 
HETATM   13  H   UNL     1     -41.023  56.702 -53.073  1.00  0.00     0.130 HD
ENDROOT
BRANCH   1  14
HETATM   14  C   UNL     1     -43.098  57.238 -51.462  1.00  0.00     0.029 A 
HETATM   15  C   UNL     1     -42.484  58.507 -51.245  1.00  0.00     0.121 A 
HETATM   16  N   UNL     1     -43.377  59.443 -50.890  1.00  0.00    -0.172 NA
HETATM   17  N   UNL     1     -44.545  58.788 -50.865  1.00  0.00    -0.288 N 
HETATM   18  H   UNL     1     -45.379  59.304 -50.605  1.00  0.00     0.188 HD
HETATM   19  C   UNL     1     -44.440  57.476 -51.209  1.00  0.00     0.122 A 
BRANCH  15  20
HETATM   20  C   UNL     1     -41.034  58.836 -51.407  1.00  0.00     0.106 A 
HETATM   21  O   UNL     1     -40.182  59.145 -50.383  1.00  0.00    -0.313 OA
HETATM   22  C   UNL     1     -38.947  59.347 -50.917  1.00  0.00     0.050 A 
HETATM   23  C   UNL     1     -37.868  59.686 -49.968  1.00  0.00     0.076 C 
HETATM   24  C   UNL     1     -38.992  59.186 -52.284  1.00  0.00     0.035 A 
HETATM   25  C   UNL     1     -40.333  58.857 -52.599  1.00  0.00     0.042 A 
ENDBRANCH  15  20
ENDBRANCH   1  14
TORSDOF 2
ENDMDL
MODEL 7
REMARK VINA RESULT:      -7.7      2.852      4.382
REMARK  2 active torsions:
REMARK  status: ('A' for Active; 'I' for Inactive)
REMARK    1  A    between atoms: C_4  and  C_5 
REMARK    2  A    between atoms: C_10  and  C_11 
ROOT
HETATM    1  C   UNL     1     -42.541  56.702 -55.566  1.00  0.00     0.202 C 
HETATM    2  N   UNL     1     -42.887  56.925 -54.165  1.00  0.00    -0.331 N 
HETATM    3  C   UNL     1     -43.855  57.952 -53.806  1.00  0.00     0.155 C 
HETATM    4  C   UNL     1     -42.849  55.808 -53.320  1.00  0.00     0.256 C 
HETATM    5  O   UNL     1     -43.482  55.716 -52.272  1.00  0.00    -0.267 OA
HETATM    6  C   UNL     1     -41.944  54.709 -53.720  1.00  0.00     0.053 A 
HETATM    7  C   UNL     1     -41.145  54.901 -54.851  1.00  0.00     0.026 A 
HETATM    8  N   UNL     1     -41.198  56.104 -55.585  1.00  0.00    -0.266 NA
HETATM    9  C   UNL     1     -41.837  53.545 -52.953  1.00  0.00     0.019 A 
HETATM   10  C   UNL     1     -40.899  52.575 -53.301  1.00  0.00     0.001 A 
HETATM   11  C   UNL     1     -40.061  52.781 -54.398  1.00  0.00     0.002 A 
HETATM   12  C   UNL     1     -40.173  53.947 -55.159  1.00  0.00     0.024 A 
HETATM   13  H   UNL     1     -40.568  56.767 -55.137  1.00  0.00     0.130 HD
ENDROOT
BRANCH   1  14
HETATM   14  C   UNL     1     -42.618  57.959 -56.390  1.00  0.00     0.029 A 
HETATM   15  C   UNL     1     -43.154  58.121 -57.702  1.00  0.00     0.121 A 
HETATM   16  N   UNL     1     -43.040  59.384 -58.139  1.00  0.00    -0.172 NA
HETATM   17  N   UNL     1     -42.428  60.024 -57.134  1.00  0.00    -0.288 N 
HETATM   18  H   UNL     1     -42.223  61.011 -57.248  1.00  0.00     0.188 HD
HETATM   19  C   UNL     1     -42.165  59.228 -56.063  1.00  0.00     0.122 A 
BRANCH  15  20
HETATM   20  C   UNL     1     -43.811  57.065 -58.534  1.00  0.00     0.106 A 
HETATM   21  O   UNL     1     -45.054  57.171 -59.094  1.00  0.00    -0.313 OA
HETATM   22  C   UNL     1     -45.287  56.032 -59.802  1.00  0.00     0.050 A 
HETATM   23  C   UNL     1     -46.586  55.947 -60.500  1.00  0.00     0.076 C 
HETATM   24  C   UNL     1     -44.211  55.181 -59.696  1.00  0.00     0.035 A 
HETATM   25  C   UNL     1     -43.261  55.845 -58.881  1.00  0.00     0.042 A 
ENDBRANCH  15  20
ENDBRANCH   1  14
TORSDOF 2
ENDMDL
MODEL 8
REMARK VINA RESULT:      -7.5      3.983      6.035
REMARK  2 active torsions:
REMARK  status: ('A' for Active; 'I' for Inactive)
REMARK    1  A    between atoms: C_4  and  C_5 
REMARK    2  A    between atoms: C_10  and  C_11 
ROOT
HETATM    1  C   UNL     1     -43.872  58.476 -51.213  1.00  0.00     0.202 C 
HETATM    2  N   UNL     1     -42.502  58.934 -51.429  1.00  0.00    -0.331 N 
HETATM    3  C   UNL     1     -42.200  60.358 -51.425  1.00  0.00     0.155 C 
HETATM    4  C   UNL     1     -41.477  58.097 -50.971  1.00  0.00     0.256 C 
HETATM    5  O   UNL     1     -40.345  58.483 -50.692  1.00  0.00    -0.267 OA
HETATM    6  C   UNL     1     -41.796  56.655 -50.874  1.00  0.00     0.053 A 
HETATM    7  C   UNL     1     -43.052  56.235 -51.318  1.00  0.00     0.026 A 
HETATM    8  N   UNL     1     -43.984  57.153 -51.845  1.00  0.00    -0.266 NA
HETATM    9  C   UNL     1     -40.847  55.734 -50.419  1.00  0.00     0.019 A 
HETATM   10  C   UNL     1     -41.145  54.373 -50.438  1.00  0.00     0.001 A 
HETATM   11  C   UNL     1     -42.378  53.939 -50.929  1.00  0.00     0.002 A 
HETATM   12  C   UNL     1     -43.320  54.865 -51.382  1.00  0.00     0.024 A 
HETATM   13  H   UNL     1     -43.774  57.273 -52.833  1.00  0.00     0.130 HD
ENDROOT
BRANCH   1  14
HETATM   14  C   UNL     1     -44.898  59.446 -51.734  1.00  0.00     0.029 A 
HETATM   15  C   UNL     1     -45.622  60.436 -51.006  1.00  0.00     0.121 A 
HETATM   16  N   UNL     1     -46.473  61.113 -51.791  1.00  0.00    -0.172 NA
HETATM   17  N   UNL     1     -46.311  60.563 -53.001  1.00  0.00    -0.288 N 
HETATM   18  H   UNL     1     -46.874  60.916 -53.768  1.00  0.00     0.188 HD
HETATM   19  C   UNL     1     -45.378  59.574 -53.028  1.00  0.00     0.122 A 
BRANCH  15  20
HETATM   20  C   UNL     1     -45.478  60.758 -49.552  1.00  0.00     0.106 A 
HETATM   21  O   UNL     1     -46.076  60.067 -48.535  1.00  0.00    -0.313 OA
HETATM   22  C   UNL     1     -45.682  60.633 -47.362  1.00  0.00     0.050 A 
HETATM   23  C   UNL     1     -46.214  60.023 -46.127  1.00  0.00     0.076 C 
HETATM   24  C   UNL     1     -44.842  61.696 -47.609  1.00  0.00     0.035 A 
HETATM   25  C   UNL     1     -44.711  61.776 -49.017  1.00  0.00     0.042 A 
ENDBRANCH  15  20
ENDBRANCH   1  14
TORSDOF 2
ENDMDL
MODEL 9
REMARK VINA RESULT:      -7.4      2.016      2.779
REMARK  2 active torsions:
REMARK  status: ('A' for Active; 'I' for Inactive)
REMARK    1  A    between atoms: C_4  and  C_5 
REMARK    2  A    between atoms: C_10  and  C_11 
ROOT
HETATM    1  C   UNL     1     -42.507  55.564 -52.636  1.00  0.00     0.202 C 
HETATM    2  N   UNL     1     -43.225  54.855 -53.692  1.00  0.00    -0.331 N 
HETATM    3  C   UNL     1     -44.270  55.533 -54.447  1.00  0.00     0.155 C 
HETATM    4  C   UNL     1     -42.510  53.876 -54.394  1.00  0.00     0.256 C 
HETATM    5  O   UNL     1     -42.792  53.498 -55.528  1.00  0.00    -0.267 OA
HETATM    6  C   UNL     1     -41.381  53.243 -53.678  1.00  0.00     0.053 A 
HETATM    7  C   UNL     1     -41.168  53.608 -52.345  1.00  0.00     0.026 A 
HETATM    8  N   UNL     1     -42.004  54.545 -51.704  1.00  0.00    -0.266 NA
HETATM    9  C   UNL     1     -40.596  52.261 -54.290  1.00  0.00     0.019 A 
HETATM   10  C   UNL     1     -39.607  51.612 -53.552  1.00  0.00     0.001 A 
HETATM   11  C   UNL     1     -39.421  51.932 -52.206  1.00  0.00     0.002 A 
HETATM   12  C   UNL     1     -40.210  52.915 -51.602  1.00  0.00     0.024 A 
HETATM   13  H   UNL     1     -42.812  54.042 -51.343  1.00  0.00     0.130 HD
ENDROOT
BRANCH   1  14
HETATM   14  C   UNL     1     -43.358  56.597 -51.948  1.00  0.00     0.029 A 
HETATM   15  C   UNL     1     -43.514  57.974 -52.284  1.00  0.00     0.121 A 
HETATM   16  N   UNL     1     -44.341  58.607 -51.438  1.00  0.00    -0.172 NA
HETATM   17  N   UNL     1     -44.702  57.659 -50.564  1.00  0.00    -0.288 N 
HETATM   18  H   UNL     1     -45.330  57.916 -49.809  1.00  0.00     0.188 HD
HETATM   19  C   UNL     1     -44.157  56.441 -50.826  1.00  0.00     0.122 A 
BRANCH  15  20
HETATM   20  C   UNL     1     -42.891  58.686 -53.443  1.00  0.00     0.106 A 
HETATM   21  O   UNL     1     -42.987  58.289 -54.748  1.00  0.00    -0.313 OA
HETATM   22  C   UNL     1     -42.324  59.203 -55.509  1.00  0.00     0.050 A 
HETATM   23  C   UNL     1     -42.315  58.961 -56.965  1.00  0.00     0.076 C 
HETATM   24  C   UNL     1     -41.788  60.185 -54.707  1.00  0.00     0.035 A 
HETATM   25  C   UNL     1     -42.153  59.853 -53.379  1.00  0.00     0.042 A 
ENDBRANCH  15  20
ENDBRANCH   1  14
TORSDOF 2
ENDMDL
MODEL 10
REMARK VINA RESULT:      -7.4     15.460     17.403
REMARK  2 active torsions:
REMARK  status: ('A' for Active; 'I' for Inactive)
REMARK    1  A    between atoms: C_4  and  C_5 
REMARK    2  A    between atoms: C_10  and  C_11 
ROOT
HETATM    1  C   UNL     1     -35.699  40.613 -54.154  1.00  0.00     0.202 C 
HETATM    2  N   UNL     1     -35.714  39.193 -54.497  1.00  0.00    -0.331 N 
HETATM    3  C   UNL     1     -35.628  38.187 -53.447  1.00  0.00     0.155 C 
HETATM    4  C   UNL     1     -36.453  38.825 -55.628  1.00  0.00     0.256 C 
HETATM    5  O   UNL     1     -36.910  37.700 -55.817  1.00  0.00    -0.267 OA
HETATM    6  C   UNL     1     -36.635  39.865 -56.664  1.00  0.00     0.053 A 
HETATM    7  C   UNL     1     -35.996  41.093 -56.474  1.00  0.00     0.026 A 
HETATM    8  N   UNL     1     -35.200  41.332 -55.335  1.00  0.00    -0.266 NA
HETATM    9  C   UNL     1     -37.364  39.605 -57.829  1.00  0.00     0.019 A 
HETATM   10  C   UNL     1     -37.429  40.573 -58.830  1.00  0.00     0.001 A 
HETATM   11  C   UNL     1     -36.751  41.782 -58.672  1.00  0.00     0.002 A 
HETATM   12  C   UNL     1     -36.024  42.034 -57.506  1.00  0.00     0.024 A 
HETATM   13  H   UNL     1     -34.267  40.978 -55.530  1.00  0.00     0.130 HD
ENDROOT
BRANCH   1  14
HETATM   14  C   UNL     1     -34.885  40.904 -52.922  1.00  0.00     0.029 A 
HETATM   15  C   UNL     1     -33.519  40.577 -52.672  1.00  0.00     0.121 A 
HETATM   16  N   UNL     1     -33.124  40.974 -51.453  1.00  0.00    -0.172 NA
HETATM   17  N   UNL     1     -34.217  41.535 -50.920  1.00  0.00    -0.288 N 
HETATM   18  H   UNL     1     -34.156  41.903 -49.977  1.00  0.00     0.188 HD
HETATM   19  C   UNL     1     -35.291  41.531 -51.754  1.00  0.00     0.122 A 
BRANCH  15  20
HETATM   20  C   UNL     1     -32.574  39.907 -53.618  1.00  0.00     0.106 A 
HETATM   21  O   UNL     1     -32.197  40.408 -54.833  1.00  0.00    -0.313 OA
HETATM   22  C   UNL     1     -31.306  39.537 -55.381  1.00  0.00     0.050 A 
HETATM   23  C   UNL     1     -30.762  39.902 -56.705  1.00  0.00     0.076 C 
HETATM   24  C   UNL     1     -31.112  38.467 -54.538  1.00  0.00     0.035 A 
HETATM   25  C   UNL     1     -31.927  38.704 -53.404  1.00  0.00     0.042 A 
ENDBRANCH  15  20
ENDBRANCH   1  14
TORSDOF 2
ENDMDL
