MODEL 1
REMARK VINA RESULT:      -8.7      0.000      0.000
REMARK  2 active torsions:
REMARK  status: ('A' for Active; 'I' for Inactive)
REMARK    1  A    between atoms: C_5  and  O_6 
REMARK    2  A    between atoms: C_5  and  C_7 
ROOT
HETATM    1  C   UNL     1     -44.639  57.439 -54.757  1.00  0.00     0.050 C 
HETATM    2  C   UNL     1     -43.348  57.357 -54.004  1.00  0.00    -0.035 A 
HETATM    3  C   UNL     1     -43.177  56.611 -52.849  1.00  0.00     0.051 A 
HETATM    4  C   UNL     1     -41.951  56.541 -52.170  1.00  0.00     0.018 A 
HETATM    5  C   UNL     1     -42.100  55.679 -50.941  1.00  0.00     0.199 A 
HETATM    6  C   UNL     1     -43.612  55.285 -51.023  1.00  0.00     0.266 A 
HETATM    7  O   UNL     1     -44.259  54.663 -50.191  1.00  0.00    -0.269 OA
HETATM    8  N   UNL     1     -44.133  55.853 -52.180  1.00  0.00    -0.323 N 
HETATM    9  C   UNL     1     -40.849  57.248 -52.630  1.00  0.00     0.013 A 
HETATM   10  C   UNL     1     -40.990  57.996 -53.801  1.00  0.00     0.001 A 
HETATM   11  C   UNL     1     -42.221  58.046 -54.480  1.00  0.00     0.009 A 
HETATM   12  H   UNL     1     -45.104  55.764 -52.435  1.00  0.00     0.169 HD
ENDROOT
BRANCH   5  13
HETATM   13  O   UNL     1     -41.839  56.501 -49.807  1.00  0.00    -0.371 OA
HETATM   14  H   UNL     1     -41.129  57.099 -50.094  1.00  0.00     0.212 HD
ENDBRANCH   5  13
BRANCH   5  15
HETATM   15  C   UNL     1     -41.204  54.455 -51.017  1.00  0.00     0.025 A 
HETATM   16  C   UNL     1     -40.877  53.617 -52.160  1.00  0.00     0.003 A 
HETATM   17  C   UNL     1     -40.022  52.607 -51.716  1.00  0.00     0.043 A 
HETATM   18  C   UNL     1     -41.218  53.606 -53.534  1.00  0.00     0.014 A 
HETATM   19  C   UNL     1     -39.485  51.622 -52.555  1.00  0.00     0.030 A 
HETATM   20  N   UNL     1     -39.851  52.782 -50.369  1.00  0.00    -0.359 N 
HETATM   21  C   UNL     1     -39.829  51.655 -53.907  1.00  0.00     0.002 A 
HETATM   22  C   UNL     1     -40.686  52.634 -54.392  1.00  0.00     0.001 A 
HETATM   23  H   UNL     1     -39.292  52.175 -49.786  1.00  0.00     0.166 HD
HETATM   24  C   UNL     1     -40.573  53.856 -49.921  1.00  0.00     0.016 A 
HETATM   25  C   UNL     1     -40.588  54.186 -48.470  1.00  0.00     0.069 C 
ENDBRANCH   5  15
TORSDOF 2
ENDMDL
MODEL 2
REMARK VINA RESULT:      -8.1      1.849      2.064
REMARK  2 active torsions:
REMARK  status: ('A' for Active; 'I' for Inactive)
REMARK    1  A    between atoms: C_5  and  O_6 
REMARK    2  A    between atoms: C_5  and  C_7 
ROOT
HETATM    1  C   UNL     1     -44.713  58.861 -51.765  1.00  0.00     0.050 C 
HETATM    2  C   UNL     1     -43.418  58.237 -51.345  1.00  0.00    -0.035 A 
HETATM    3  C   UNL     1     -43.273  56.890 -51.053  1.00  0.00     0.051 A 
HETATM    4  C   UNL     1     -42.044  56.328 -50.675  1.00  0.00     0.018 A 
HETATM    5  C   UNL     1     -42.223  54.857 -50.396  1.00  0.00     0.199 A 
HETATM    6  C   UNL     1     -43.755  54.678 -50.662  1.00  0.00     0.266 A 
HETATM    7  O   UNL     1     -44.423  53.670 -50.474  1.00  0.00    -0.269 OA
HETATM    8  N   UNL     1     -44.259  55.910 -51.064  1.00  0.00    -0.323 N 
HETATM    9  C   UNL     1     -40.912  57.123 -50.558  1.00  0.00     0.013 A 
HETATM   10  C   UNL     1     -41.027  58.481 -50.861  1.00  0.00     0.001 A 
HETATM   11  C   UNL     1     -42.262  59.029 -51.254  1.00  0.00     0.009 A 
HETATM   12  H   UNL     1     -45.236  56.052 -51.263  1.00  0.00     0.169 HD
ENDROOT
BRANCH   5  13
HETATM   13  O   UNL     1     -41.905  54.639 -49.025  1.00  0.00    -0.371 OA
HETATM   14  H   UNL     1     -41.102  55.165 -48.871  1.00  0.00     0.212 HD
ENDBRANCH   5  13
BRANCH   5  15
HETATM   15  C   UNL     1     -41.394  54.013 -51.349  1.00  0.00     0.025 A 
HETATM   16  C   UNL     1     -41.207  54.152 -52.784  1.00  0.00     0.003 A 
HETATM   17  C   UNL     1     -40.363  53.122 -53.205  1.00  0.00     0.043 A 
HETATM   18  C   UNL     1     -41.667  55.047 -53.781  1.00  0.00     0.014 A 
HETATM   19  C   UNL     1     -39.947  52.954 -54.532  1.00  0.00     0.030 A 
HETATM   20  N   UNL     1     -40.067  52.364 -52.105  1.00  0.00    -0.359 N 
HETATM   21  C   UNL     1     -40.406  53.868 -55.482  1.00  0.00     0.002 A 
HETATM   22  C   UNL     1     -41.257  54.901 -55.113  1.00  0.00     0.001 A 
HETATM   23  H   UNL     1     -39.487  51.537 -52.127  1.00  0.00     0.166 HD
HETATM   24  C   UNL     1     -40.697  52.853 -50.992  1.00  0.00     0.016 A 
HETATM   25  C   UNL     1     -40.570  52.138 -49.692  1.00  0.00     0.069 C 
ENDBRANCH   5  15
TORSDOF 2
ENDMDL
MODEL 3
REMARK VINA RESULT:      -8.1      1.796      2.656
REMARK  2 active torsions:
REMARK  status: ('A' for Active; 'I' for Inactive)
REMARK    1  A    between atoms: C_5  and  O_6 
REMARK    2  A    between atoms: C_5  and  C_7 
ROOT
HETATM    1  C   UNL     1     -44.905  59.500 -51.385  1.00  0.00     0.050 C 
HETATM    2  C   UNL     1     -43.599  58.785 -51.539  1.00  0.00    -0.035 A 
HETATM    3  C   UNL     1     -43.434  57.427 -51.316  1.00  0.00     0.051 A 
HETATM    4  C   UNL     1     -42.200  56.780 -51.481  1.00  0.00     0.018 A 
HETATM    5  C   UNL     1     -42.343  55.320 -51.133  1.00  0.00     0.199 A 
HETATM    6  C   UNL     1     -43.853  55.246 -50.729  1.00  0.00     0.266 A 
HETATM    7  O   UNL     1     -44.445  54.282 -50.265  1.00  0.00    -0.269 OA
HETATM    8  N   UNL     1     -44.396  56.514 -50.899  1.00  0.00    -0.323 N 
HETATM    9  C   UNL     1     -41.073  57.497 -51.861  1.00  0.00     0.013 A 
HETATM   10  C   UNL     1     -41.215  58.864 -52.106  1.00  0.00     0.001 A 
HETATM   11  C   UNL     1     -42.461  59.498 -51.952  1.00  0.00     0.009 A 
HETATM   12  H   UNL     1     -45.355  56.724 -50.671  1.00  0.00     0.169 HD
ENDROOT
BRANCH   5  13
HETATM   13  O   UNL     1     -41.494  55.060 -50.019  1.00  0.00    -0.371 OA
HETATM   14  H   UNL     1     -41.810  54.214 -49.660  1.00  0.00     0.212 HD
ENDBRANCH   5  13
BRANCH   5  15
HETATM   15  C   UNL     1     -42.048  54.437 -52.334  1.00  0.00     0.025 A 
HETATM   16  C   UNL     1     -41.074  53.368 -52.479  1.00  0.00     0.003 A 
HETATM   17  C   UNL     1     -41.180  52.869 -53.779  1.00  0.00     0.043 A 
HETATM   18  C   UNL     1     -40.104  52.765 -51.642  1.00  0.00     0.014 A 
HETATM   19  C   UNL     1     -40.403  51.812 -54.269  1.00  0.00     0.030 A 
HETATM   20  N   UNL     1     -42.140  53.605 -54.419  1.00  0.00    -0.359 N 
HETATM   21  C   UNL     1     -39.471  51.230 -53.408  1.00  0.00     0.002 A 
HETATM   22  C   UNL     1     -39.321  51.701 -52.111  1.00  0.00     0.001 A 
HETATM   23  H   UNL     1     -42.408  53.469 -55.384  1.00  0.00     0.166 HD
HETATM   24  C   UNL     1     -42.649  54.569 -53.591  1.00  0.00     0.016 A 
HETATM   25  C   UNL     1     -43.660  55.532 -54.107  1.00  0.00     0.069 C 
ENDBRANCH   5  15
TORSDOF 2
ENDMDL
MODEL 4
REMARK VINA RESULT:      -8.0      1.827      5.486
REMARK  2 active torsions:
REMARK  status: ('A' for Active; 'I' for Inactive)
REMARK    1  A    between atoms: C_5  and  O_6 
REMARK    2  A    between atoms: C_5  and  C_7 
ROOT
HETATM    1  C   UNL     1     -39.671  51.872 -51.819  1.00  0.00     0.050 C 
HETATM    2  C   UNL     1     -40.310  52.769 -52.833  1.00  0.00    -0.035 A 
HETATM    3  C   UNL     1     -41.427  53.547 -52.577  1.00  0.00     0.051 A 
HETATM    4  C   UNL     1     -41.998  54.390 -53.543  1.00  0.00     0.018 A 
HETATM    5  C   UNL     1     -43.213  55.072 -52.966  1.00  0.00     0.199 A 
HETATM    6  C   UNL     1     -43.250  54.469 -51.523  1.00  0.00     0.266 A 
HETATM    7  O   UNL     1     -44.118  54.632 -50.677  1.00  0.00    -0.269 OA
HETATM    8  N   UNL     1     -42.155  53.621 -51.394  1.00  0.00    -0.323 N 
HETATM    9  C   UNL     1     -41.464  54.459 -54.822  1.00  0.00     0.013 A 
HETATM   10  C   UNL     1     -40.328  53.697 -55.103  1.00  0.00     0.001 A 
HETATM   11  C   UNL     1     -39.757  52.867 -54.120  1.00  0.00     0.009 A 
HETATM   12  H   UNL     1     -41.982  53.089 -50.556  1.00  0.00     0.169 HD
ENDROOT
BRANCH   5  13
HETATM   13  O   UNL     1     -44.341  54.657 -53.731  1.00  0.00    -0.371 OA
HETATM   14  H   UNL     1     -44.195  53.709 -53.890  1.00  0.00     0.212 HD
ENDBRANCH   5  13
BRANCH   5  15
HETATM   15  C   UNL     1     -43.031  56.580 -52.931  1.00  0.00     0.025 A 
HETATM   16  C   UNL     1     -42.145  57.386 -52.106  1.00  0.00     0.003 A 
HETATM   17  C   UNL     1     -42.357  58.726 -52.437  1.00  0.00     0.043 A 
HETATM   18  C   UNL     1     -41.179  57.122 -51.106  1.00  0.00     0.014 A 
HETATM   19  C   UNL     1     -41.658  59.789 -51.851  1.00  0.00     0.030 A 
HETATM   20  N   UNL     1     -43.341  58.758 -53.388  1.00  0.00    -0.359 N 
HETATM   21  C   UNL     1     -40.699  59.487 -50.883  1.00  0.00     0.002 A 
HETATM   22  C   UNL     1     -40.463  58.170 -50.512  1.00  0.00     0.001 A 
HETATM   23  H   UNL     1     -43.708  59.608 -53.794  1.00  0.00     0.166 HD
HETATM   24  C   UNL     1     -43.784  57.495 -53.675  1.00  0.00     0.016 A 
HETATM   25  C   UNL     1     -44.906  57.302 -54.635  1.00  0.00     0.069 C 
ENDBRANCH   5  15
TORSDOF 2
ENDMDL
MODEL 5
REMARK VINA RESULT:      -7.7      2.212      3.171
REMARK  2 active torsions:
REMARK  status: ('A' for Active; 'I' for Inactive)
REMARK    1  A    between atoms: C_5  and  O_6 
REMARK    2  A    between atoms: C_5  and  C_7 
ROOT
HETATM    1  C   UNL     1     -42.201  59.157 -51.887  1.00  0.00     0.050 C 
HETATM    2  C   UNL     1     -42.634  57.724 -51.859  1.00  0.00    -0.035 A 
HETATM    3  C   UNL     1     -42.022  56.721 -52.595  1.00  0.00     0.051 A 
HETATM    4  C   UNL     1     -42.441  55.383 -52.540  1.00  0.00     0.018 A 
HETATM    5  C   UNL     1     -41.599  54.550 -53.473  1.00  0.00     0.199 A 
HETATM    6  C   UNL     1     -40.647  55.633 -54.079  1.00  0.00     0.266 A 
HETATM    7  O   UNL     1     -39.830  55.479 -54.976  1.00  0.00    -0.269 OA
HETATM    8  N   UNL     1     -40.958  56.849 -53.481  1.00  0.00    -0.323 N 
HETATM    9  C   UNL     1     -43.517  55.013 -51.746  1.00  0.00     0.013 A 
HETATM   10  C   UNL     1     -44.142  56.001 -50.982  1.00  0.00     0.001 A 
HETATM   11  C   UNL     1     -43.704  57.337 -51.035  1.00  0.00     0.009 A 
HETATM   12  H   UNL     1     -40.496  57.708 -53.733  1.00  0.00     0.169 HD
ENDROOT
BRANCH   5  13
HETATM   13  O   UNL     1     -42.467  54.009 -54.465  1.00  0.00    -0.371 OA
HETATM   14  H   UNL     1     -42.629  53.094 -54.179  1.00  0.00     0.212 HD
ENDBRANCH   5  13
BRANCH   5  15
HETATM   15  C   UNL     1     -40.819  53.491 -52.713  1.00  0.00     0.025 A 
HETATM   16  C   UNL     1     -40.476  52.134 -53.106  1.00  0.00     0.003 A 
HETATM   17  C   UNL     1     -39.761  51.554 -52.057  1.00  0.00     0.043 A 
HETATM   18  C   UNL     1     -40.698  51.327 -54.249  1.00  0.00     0.014 A 
HETATM   19  C   UNL     1     -39.250  50.250 -52.094  1.00  0.00     0.030 A 
HETATM   20  N   UNL     1     -39.690  52.482 -51.053  1.00  0.00    -0.359 N 
HETATM   21  C   UNL     1     -39.472  49.493 -53.245  1.00  0.00     0.002 A 
HETATM   22  C   UNL     1     -40.189  50.023 -54.310  1.00  0.00     0.001 A 
HETATM   23  H   UNL     1     -39.241  52.318 -50.162  1.00  0.00     0.166 HD
HETATM   24  C   UNL     1     -40.342  53.633 -51.405  1.00  0.00     0.016 A 
HETATM   25  C   UNL     1     -40.450  54.752 -50.430  1.00  0.00     0.069 C 
ENDBRANCH   5  15
TORSDOF 2
ENDMDL
MODEL 6
REMARK VINA RESULT:      -7.7      2.267      5.178
REMARK  2 active torsions:
REMARK  status: ('A' for Active; 'I' for Inactive)
REMARK    1  A    between atoms: C_5  and  O_6 
REMARK    2  A    between atoms: C_5  and  C_7 
ROOT
HETATM    1  C   UNL     1     -40.107  51.613 -53.078  1.00  0.00     0.050 C 
HETATM    2  C   UNL     1     -40.539  52.978 -53.515  1.00  0.00    -0.035 A 
HETATM    3  C   UNL     1     -41.482  53.739 -52.841  1.00  0.00     0.051 A 
HETATM    4  C   UNL     1     -41.859  55.022 -53.266  1.00  0.00     0.018 A 
HETATM    5  C   UNL     1     -42.921  55.569 -52.346  1.00  0.00     0.199 A 
HETATM    6  C   UNL     1     -43.098  54.382 -51.340  1.00  0.00     0.266 A 
HETATM    7  O   UNL     1     -43.928  54.291 -50.447  1.00  0.00    -0.269 OA
HETATM    8  N   UNL     1     -42.197  53.387 -51.702  1.00  0.00    -0.323 N 
HETATM    9  C   UNL     1     -41.303  55.578 -54.410  1.00  0.00     0.013 A 
HETATM   10  C   UNL     1     -40.339  54.839 -55.099  1.00  0.00     0.001 A 
HETATM   11  C   UNL     1     -39.959  53.559 -54.654  1.00  0.00     0.009 A 
HETATM   12  H   UNL     1     -42.146  52.505 -51.217  1.00  0.00     0.169 HD
ENDROOT
BRANCH   5  13
HETATM   13  O   UNL     1     -44.098  55.770 -53.122  1.00  0.00    -0.371 OA
HETATM   14  H   UNL     1     -44.081  56.714 -53.355  1.00  0.00     0.212 HD
ENDBRANCH   5  13
BRANCH   5  15
HETATM   15  C   UNL     1     -42.442  56.825 -51.639  1.00  0.00     0.025 A 
HETATM   16  C   UNL     1     -42.752  58.218 -51.918  1.00  0.00     0.003 A 
HETATM   17  C   UNL     1     -42.056  59.002 -50.996  1.00  0.00     0.043 A 
HETATM   18  C   UNL     1     -43.554  58.905 -52.861  1.00  0.00     0.014 A 
HETATM   19  C   UNL     1     -42.132  60.400 -50.953  1.00  0.00     0.030 A 
HETATM   20  N   UNL     1     -41.327  58.152 -50.209  1.00  0.00    -0.359 N 
HETATM   21  C   UNL     1     -42.948  61.040 -51.887  1.00  0.00     0.002 A 
HETATM   22  C   UNL     1     -43.650  60.303 -52.831  1.00  0.00     0.001 A 
HETATM   23  H   UNL     1     -40.712  58.455 -49.466  1.00  0.00     0.166 HD
HETATM   24  C   UNL     1     -41.513  56.851 -50.593  1.00  0.00     0.016 A 
HETATM   25  C   UNL     1     -40.758  55.762 -49.915  1.00  0.00     0.069 C 
ENDBRANCH   5  15
TORSDOF 2
ENDMDL
MODEL 7
REMARK VINA RESULT:      -7.5      2.765      3.640
REMARK  2 active torsions:
REMARK  status: ('A' for Active; 'I' for Inactive)
REMARK    1  A    between atoms: C_5  and  O_6 
REMARK    2  A    between atoms: C_5  and  C_7 
ROOT
HETATM    1  C   UNL     1     -43.286  61.207 -50.188  1.00  0.00     0.050 C 
HETATM    2  C   UNL     1     -43.572  59.979 -50.996  1.00  0.00    -0.035 A 
HETATM    3  C   UNL     1     -42.613  59.302 -51.733  1.00  0.00     0.051 A 
HETATM    4  C   UNL     1     -42.906  58.145 -52.471  1.00  0.00     0.018 A 
HETATM    5  C   UNL     1     -41.665  57.669 -53.182  1.00  0.00     0.199 A 
HETATM    6  C   UNL     1     -40.624  58.751 -52.742  1.00  0.00     0.266 A 
HETATM    7  O   UNL     1     -39.472  58.870 -53.137  1.00  0.00    -0.269 OA
HETATM    8  N   UNL     1     -41.270  59.632 -51.882  1.00  0.00    -0.323 N 
HETATM    9  C   UNL     1     -44.199  57.640 -52.505  1.00  0.00     0.013 A 
HETATM   10  C   UNL     1     -45.181  58.294 -51.759  1.00  0.00     0.001 A 
HETATM   11  C   UNL     1     -44.871  59.445 -51.011  1.00  0.00     0.009 A 
HETATM   12  H   UNL     1     -40.809  60.437 -51.489  1.00  0.00     0.169 HD
ENDROOT
BRANCH   5  13
HETATM   13  O   UNL     1     -41.922  57.735 -54.582  1.00  0.00    -0.371 OA
HETATM   14  H   UNL     1     -41.152  57.307 -54.994  1.00  0.00     0.212 HD
ENDBRANCH   5  13
BRANCH   5  15
HETATM   15  C   UNL     1     -41.257  56.284 -52.708  1.00  0.00     0.025 A 
HETATM   16  C   UNL     1     -40.902  55.108 -53.486  1.00  0.00     0.003 A 
HETATM   17  C   UNL     1     -40.615  54.076 -52.590  1.00  0.00     0.043 A 
HETATM   18  C   UNL     1     -40.793  54.804 -54.864  1.00  0.00     0.014 A 
HETATM   19  C   UNL     1     -40.216  52.794 -52.987  1.00  0.00     0.030 A 
HETATM   20  N   UNL     1     -40.812  54.568 -51.328  1.00  0.00    -0.359 N 
HETATM   21  C   UNL     1     -40.101  52.538 -54.354  1.00  0.00     0.002 A 
HETATM   22  C   UNL     1     -40.387  53.529 -55.282  1.00  0.00     0.001 A 
HETATM   23  H   UNL     1     -40.695  54.024 -50.484  1.00  0.00     0.166 HD
HETATM   24  C   UNL     1     -41.228  55.872 -51.371  1.00  0.00     0.016 A 
HETATM   25  C   UNL     1     -41.570  56.584 -50.110  1.00  0.00     0.069 C 
ENDBRANCH   5  15
TORSDOF 2
ENDMDL
MODEL 8
REMARK VINA RESULT:      -7.5      2.762      4.378
REMARK  2 active torsions:
REMARK  status: ('A' for Active; 'I' for Inactive)
REMARK    1  A    between atoms: C_5  and  O_6 
REMARK    2  A    between atoms: C_5  and  C_7 
ROOT
HETATM    1  C   UNL     1     -43.306  61.058 -50.063  1.00  0.00     0.050 C 
HETATM    2  C   UNL     1     -43.612  59.832 -50.864  1.00  0.00    -0.035 A 
HETATM    3  C   UNL     1     -42.681  59.175 -51.653  1.00  0.00     0.051 A 
HETATM    4  C   UNL     1     -42.992  58.018 -52.384  1.00  0.00     0.018 A 
HETATM    5  C   UNL     1     -41.780  57.567 -53.159  1.00  0.00     0.199 A 
HETATM    6  C   UNL     1     -40.736  58.663 -52.764  1.00  0.00     0.266 A 
HETATM    7  O   UNL     1     -39.607  58.802 -53.214  1.00  0.00    -0.269 OA
HETATM    8  N   UNL     1     -41.353  59.527 -51.866  1.00  0.00    -0.323 N 
HETATM    9  C   UNL     1     -44.277  57.493 -52.358  1.00  0.00     0.013 A 
HETATM   10  C   UNL     1     -45.231  58.126 -51.559  1.00  0.00     0.001 A 
HETATM   11  C   UNL     1     -44.902  59.277 -50.819  1.00  0.00     0.009 A 
HETATM   12  H   UNL     1     -40.885  60.337 -51.490  1.00  0.00     0.169 HD
ENDROOT
BRANCH   5  13
HETATM   13  O   UNL     1     -42.107  57.638 -54.544  1.00  0.00    -0.371 OA
HETATM   14  H   UNL     1     -41.386  57.164 -54.992  1.00  0.00     0.212 HD
ENDBRANCH   5  13
BRANCH   5  15
HETATM   15  C   UNL     1     -41.328  56.186 -52.717  1.00  0.00     0.025 A 
HETATM   16  C   UNL     1     -41.193  55.643 -51.375  1.00  0.00     0.003 A 
HETATM   17  C   UNL     1     -40.730  54.331 -51.491  1.00  0.00     0.043 A 
HETATM   18  C   UNL     1     -41.415  56.126 -50.063  1.00  0.00     0.014 A 
HETATM   19  C   UNL     1     -40.501  53.489 -50.395  1.00  0.00     0.030 A 
HETATM   20  N   UNL     1     -40.553  54.080 -52.825  1.00  0.00    -0.359 N 
HETATM   21  C   UNL     1     -40.749  53.996 -49.118  1.00  0.00     0.002 A 
HETATM   22  C   UNL     1     -41.199  55.298 -48.952  1.00  0.00     0.001 A 
HETATM   23  H   UNL     1     -40.203  53.206 -53.195  1.00  0.00     0.166 HD
HETATM   24  C   UNL     1     -40.869  55.180 -53.575  1.00  0.00     0.016 A 
HETATM   25  C   UNL     1     -40.682  55.151 -55.051  1.00  0.00     0.069 C 
ENDBRANCH   5  15
TORSDOF 2
ENDMDL
MODEL 9
REMARK VINA RESULT:      -7.4      2.618      5.609
REMARK  2 active torsions:
REMARK  status: ('A' for Active; 'I' for Inactive)
REMARK    1  A    between atoms: C_5  and  O_6 
REMARK    2  A    between atoms: C_5  and  C_7 
ROOT
HETATM    1  C   UNL     1     -40.442  53.730 -50.389  1.00  0.00     0.050 C 
HETATM    2  C   UNL     1     -40.842  53.689 -51.831  1.00  0.00    -0.035 A 
HETATM    3  C   UNL     1     -41.820  54.503 -52.381  1.00  0.00     0.051 A 
HETATM    4  C   UNL     1     -42.166  54.453 -53.740  1.00  0.00     0.018 A 
HETATM    5  C   UNL     1     -43.278  55.433 -54.017  1.00  0.00     0.199 A 
HETATM    6  C   UNL     1     -43.519  56.035 -52.593  1.00  0.00     0.266 A 
HETATM    7  O   UNL     1     -44.401  56.815 -52.261  1.00  0.00    -0.269 OA
HETATM    8  N   UNL     1     -42.603  55.447 -51.727  1.00  0.00    -0.323 N 
HETATM    9  C   UNL     1     -41.541  53.554 -54.594  1.00  0.00     0.013 A 
HETATM   10  C   UNL     1     -40.541  52.734 -54.069  1.00  0.00     0.001 A 
HETATM   11  C   UNL     1     -40.193  52.804 -52.707  1.00  0.00     0.009 A 
HETATM   12  H   UNL     1     -42.584  55.655 -50.741  1.00  0.00     0.169 HD
ENDROOT
BRANCH   5  13
HETATM   13  O   UNL     1     -44.406  54.686 -54.462  1.00  0.00    -0.371 OA
HETATM   14  H   UNL     1     -44.121  54.284 -55.300  1.00  0.00     0.212 HD
ENDBRANCH   5  13
BRANCH   5  15
HETATM   15  C   UNL     1     -42.836  56.502 -55.002  1.00  0.00     0.025 A 
HETATM   16  C   UNL     1     -42.859  56.487 -56.455  1.00  0.00     0.003 A 
HETATM   17  C   UNL     1     -42.335  57.702 -56.902  1.00  0.00     0.043 A 
HETATM   18  C   UNL     1     -43.269  55.565 -57.449  1.00  0.00     0.014 A 
HETATM   19  C   UNL     1     -42.221  58.046 -58.255  1.00  0.00     0.030 A 
HETATM   20  N   UNL     1     -41.976  58.420 -55.794  1.00  0.00    -0.359 N 
HETATM   21  C   UNL     1     -42.654  57.119 -59.205  1.00  0.00     0.002 A 
HETATM   22  C   UNL     1     -43.170  55.893 -58.808  1.00  0.00     0.001 A 
HETATM   23  H   UNL     1     -41.548  59.336 -55.827  1.00  0.00     0.166 HD
HETATM   24  C   UNL     1     -42.232  57.714 -54.650  1.00  0.00     0.016 A 
HETATM   25  C   UNL     1     -41.851  58.281 -53.327  1.00  0.00     0.069 C 
ENDBRANCH   5  15
TORSDOF 2
ENDMDL
MODEL 10
REMARK VINA RESULT:      -7.3      2.910      4.661
REMARK  2 active torsions:
REMARK  status: ('A' for Active; 'I' for Inactive)
REMARK    1  A    between atoms: C_5  and  O_6 
REMARK    2  A    between atoms: C_5  and  C_7 
ROOT
HETATM    1  C   UNL     1     -42.258  57.988 -58.531  1.00  0.00     0.050 C 
HETATM    2  C   UNL     1     -43.063  57.863 -57.276  1.00  0.00    -0.035 A 
HETATM    3  C   UNL     1     -42.876  56.859 -56.338  1.00  0.00     0.051 A 
HETATM    4  C   UNL     1     -43.637  56.773 -55.163  1.00  0.00     0.018 A 
HETATM    5  C   UNL     1     -43.216  55.560 -54.373  1.00  0.00     0.199 A 
HETATM    6  C   UNL     1     -42.104  54.961 -55.298  1.00  0.00     0.266 A 
HETATM    7  O   UNL     1     -41.511  53.902 -55.148  1.00  0.00    -0.269 OA
HETATM    8  N   UNL     1     -41.969  55.807 -56.393  1.00  0.00    -0.323 N 
HETATM    9  C   UNL     1     -44.639  57.699 -54.902  1.00  0.00     0.013 A 
HETATM   10  C   UNL     1     -44.838  58.730 -55.822  1.00  0.00     0.001 A 
HETATM   11  C   UNL     1     -44.058  58.813 -56.991  1.00  0.00     0.009 A 
HETATM   12  H   UNL     1     -41.330  55.613 -57.148  1.00  0.00     0.169 HD
ENDROOT
BRANCH   5  13
HETATM   13  O   UNL     1     -44.342  54.692 -54.288  1.00  0.00    -0.371 OA
HETATM   14  H   UNL     1     -44.859  55.032 -53.538  1.00  0.00     0.212 HD
ENDBRANCH   5  13
BRANCH   5  15
HETATM   15  C   UNL     1     -42.654  55.954 -53.017  1.00  0.00     0.025 A 
HETATM   16  C   UNL     1     -41.747  57.036 -52.671  1.00  0.00     0.003 A 
HETATM   17  C   UNL     1     -41.518  56.976 -51.295  1.00  0.00     0.043 A 
HETATM   18  C   UNL     1     -41.089  58.069 -53.382  1.00  0.00     0.014 A 
HETATM   19  C   UNL     1     -40.704  57.882 -50.605  1.00  0.00     0.030 A 
HETATM   20  N   UNL     1     -42.214  55.900 -50.815  1.00  0.00    -0.359 N 
HETATM   21  C   UNL     1     -40.088  58.898 -51.337  1.00  0.00     0.002 A 
HETATM   22  C   UNL     1     -40.275  58.990 -52.710  1.00  0.00     0.001 A 
HETATM   23  H   UNL     1     -42.210  55.610 -49.846  1.00  0.00     0.166 HD
HETATM   24  C   UNL     1     -42.872  55.253 -51.826  1.00  0.00     0.016 A 
HETATM   25  C   UNL     1     -43.637  54.009 -51.537  1.00  0.00     0.069 C 
ENDBRANCH   5  15
TORSDOF 2
ENDMDL
