MODEL 1
REMARK VINA RESULT:      -9.6      0.000      0.000
REMARK  6 active torsions:
REMARK  status: ('A' for Active; 'I' for Inactive)
REMARK    1  A    between atoms: C_9  and  C_10 
REMARK       I    between atoms: C_10  and  N_11 
REMARK    2  A    between atoms: N_11  and  N_12 
REMARK       I    between atoms: N_12  and  C_13 
REMARK       I    between atoms: C_13  and  N_14 
REMARK    3  A    between atoms: N_14  and  C_15 
REMARK    4  A    between atoms: C_15  and  C_16 
REMARK    5  A    between atoms: C_16  and  C_17 
REMARK    6  A    between atoms: C_16  and  C_27 
ROOT
HETATM    1  N   UNL     1     -45.092  56.212 -54.682  1.00  0.00    -0.249 N 
HETATM    2  C   UNL     1     -44.858  57.554 -54.877  1.00  0.00     0.334 C 
HETATM    3  N   UNL     1     -45.726  58.087 -55.797  1.00  0.00    -0.341 N 
HETATM    4  O   UNL     1     -43.970  58.181 -54.312  1.00  0.00    -0.246 OA
HETATM    5  H   UNL     1     -46.012  55.830 -54.872  1.00  0.00     0.192 HD
HETATM    6  H   UNL     1     -46.048  57.434 -56.499  1.00  0.00     0.164 HD
ENDROOT
BRANCH   1   7
HETATM    7  N   UNL     1     -44.324  55.528 -53.730  1.00  0.00    -0.261 N 
HETATM    8  C   UNL     1     -43.192  54.875 -54.174  1.00  0.00     0.291 C 
HETATM    9  O   UNL     1     -42.948  54.647 -55.350  1.00  0.00    -0.264 OA
HETATM   10  H   UNL     1     -44.343  55.894 -52.774  1.00  0.00     0.190 HD
BRANCH   8  11
HETATM   11  C   UNL     1     -42.224  54.493 -53.046  1.00  0.00     0.157 A 
HETATM   12  C   UNL     1     -41.309  53.333 -53.164  1.00  0.00     0.016 A 
HETATM   13  C   UNL     1     -41.308  52.431 -54.235  1.00  0.00     0.015 A 
HETATM   14  C   UNL     1     -40.392  53.147 -52.128  1.00  0.00     0.046 A 
HETATM   15  C   UNL     1     -40.378  51.386 -54.279  1.00  0.00     0.001 A 
HETATM   16  C   UNL     1     -39.450  51.225 -53.254  1.00  0.00     0.001 A 
HETATM   17  C   UNL     1     -39.459  52.102 -52.171  1.00  0.00     0.018 A 
HETATM   18  C   UNL     1     -40.423  54.047 -50.964  1.00  0.00     0.272 A 
HETATM   19  O   UNL     1     -39.638  53.918 -50.030  1.00  0.00    -0.266 OA
HETATM   20  N   UNL     1     -41.388  55.024 -50.981  1.00  0.00    -0.242 N 
HETATM   21  N   UNL     1     -42.255  55.273 -51.999  1.00  0.00    -0.166 NA
HETATM   22  H   UNL     1     -41.420  55.656 -50.186  1.00  0.00     0.192 HD
ENDBRANCH   8  11
ENDBRANCH   1   7
BRANCH   3  23
HETATM   23  C   UNL     1     -45.578  59.465 -56.238  1.00  0.00     0.139 C 
BRANCH  23  24
HETATM   24  C   UNL     1     -45.308  59.655 -57.750  1.00  0.00     0.079 C 
BRANCH  24  25
HETATM   25  C   UNL     1     -45.781  58.497 -58.603  1.00  0.00    -0.020 A 
HETATM   26  C   UNL     1     -45.043  57.292 -58.878  1.00  0.00    -0.001 A 
HETATM   27  C   UNL     1     -45.832  56.491 -59.704  1.00  0.00     0.042 A 
HETATM   28  C   UNL     1     -43.772  56.808 -58.500  1.00  0.00     0.014 A 
HETATM   29  C   UNL     1     -45.419  55.238 -60.171  1.00  0.00     0.030 A 
HETATM   30  N   UNL     1     -47.005  57.171 -59.925  1.00  0.00    -0.365 N 
HETATM   31  C   UNL     1     -44.156  54.784 -59.780  1.00  0.00     0.002 A 
HETATM   32  C   UNL     1     -43.342  55.556 -58.957  1.00  0.00     0.001 A 
HETATM   33  H   UNL     1     -47.767  56.827 -60.492  1.00  0.00     0.165 HD
HETATM   34  C   UNL     1     -46.986  58.373 -59.272  1.00  0.00     0.097 A 
ENDBRANCH  24  25
BRANCH  24  35
HETATM   35  C   UNL     1     -43.888  60.097 -58.093  1.00  0.00    -0.007 A 
HETATM   36  S   UNL     1     -42.619  60.145 -56.937  1.00  0.00    -0.106 SA
HETATM   37  C   UNL     1     -41.485  60.695 -58.090  1.00  0.00     0.050 A 
HETATM   38  C   UNL     1     -42.047  60.840 -59.336  1.00  0.00     0.008 A 
HETATM   39  C   UNL     1     -43.428  60.494 -59.339  1.00  0.00     0.016 A 
ENDBRANCH  24  35
ENDBRANCH  23  24
ENDBRANCH   3  23
TORSDOF 6
ENDMDL
MODEL 2
REMARK VINA RESULT:      -9.5      2.788      9.386
REMARK  6 active torsions:
REMARK  status: ('A' for Active; 'I' for Inactive)
REMARK    1  A    between atoms: C_9  and  C_10 
REMARK       I    between atoms: C_10  and  N_11 
REMARK    2  A    between atoms: N_11  and  N_12 
REMARK       I    between atoms: N_12  and  C_13 
REMARK       I    between atoms: C_13  and  N_14 
REMARK    3  A    between atoms: N_14  and  C_15 
REMARK    4  A    between atoms: C_15  and  C_16 
REMARK    5  A    between atoms: C_16  and  C_17 
REMARK    6  A    between atoms: C_16  and  C_27 
ROOT
HETATM    1  N   UNL     1     -42.174  56.475 -57.192  1.00  0.00    -0.249 N 
HETATM    2  C   UNL     1     -42.263  55.467 -56.260  1.00  0.00     0.334 C 
HETATM    3  N   UNL     1     -41.067  55.269 -55.618  1.00  0.00    -0.341 N 
HETATM    4  O   UNL     1     -43.282  54.820 -56.051  1.00  0.00    -0.246 OA
HETATM    5  H   UNL     1     -41.467  57.195 -57.087  1.00  0.00     0.192 HD
HETATM    6  H   UNL     1     -40.250  55.491 -56.171  1.00  0.00     0.164 HD
ENDROOT
BRANCH   1   7
HETATM    7  N   UNL     1     -43.327  56.842 -57.899  1.00  0.00    -0.261 N 
HETATM    8  C   UNL     1     -43.427  56.430 -59.213  1.00  0.00     0.291 C 
HETATM    9  O   UNL     1     -42.493  55.991 -59.867  1.00  0.00    -0.264 OA
HETATM   10  H   UNL     1     -44.184  56.964 -57.350  1.00  0.00     0.190 HD
BRANCH   8  11
HETATM   11  C   UNL     1     -44.850  56.532 -59.779  1.00  0.00     0.157 A 
HETATM   12  C   UNL     1     -45.456  57.837 -60.133  1.00  0.00     0.016 A 
HETATM   13  C   UNL     1     -44.857  59.079 -59.894  1.00  0.00     0.015 A 
HETATM   14  C   UNL     1     -46.710  57.803 -60.746  1.00  0.00     0.046 A 
HETATM   15  C   UNL     1     -45.489  60.260 -60.298  1.00  0.00     0.001 A 
HETATM   16  C   UNL     1     -46.727  60.214 -60.935  1.00  0.00     0.001 A 
HETATM   17  C   UNL     1     -47.344  58.985 -61.154  1.00  0.00     0.018 A 
HETATM   18  C   UNL     1     -47.383  56.510 -60.946  1.00  0.00     0.272 A 
HETATM   19  O   UNL     1     -48.485  56.434 -61.478  1.00  0.00    -0.266 OA
HETATM   20  N   UNL     1     -46.711  55.402 -60.488  1.00  0.00    -0.242 N 
HETATM   21  N   UNL     1     -45.465  55.392 -59.943  1.00  0.00    -0.166 NA
HETATM   22  H   UNL     1     -47.161  54.501 -60.622  1.00  0.00     0.192 HD
ENDBRANCH   8  11
ENDBRANCH   1   7
BRANCH   3  23
HETATM   23  C   UNL     1     -40.909  54.172 -54.675  1.00  0.00     0.139 C 
BRANCH  23  24
HETATM   24  C   UNL     1     -40.660  54.586 -53.206  1.00  0.00     0.079 C 
BRANCH  24  25
HETATM   25  C   UNL     1     -40.377  53.418 -52.284  1.00  0.00    -0.020 A 
HETATM   26  C   UNL     1     -40.069  52.073 -52.694  1.00  0.00    -0.001 A 
HETATM   27  C   UNL     1     -39.883  51.312 -51.540  1.00  0.00     0.042 A 
HETATM   28  C   UNL     1     -39.932  51.431 -53.943  1.00  0.00     0.014 A 
HETATM   29  C   UNL     1     -39.570  49.947 -51.569  1.00  0.00     0.030 A 
HETATM   30  N   UNL     1     -40.066  52.151 -50.467  1.00  0.00    -0.365 N 
HETATM   31  C   UNL     1     -39.439  49.339 -52.820  1.00  0.00     0.002 A 
HETATM   32  C   UNL     1     -39.617  50.068 -53.992  1.00  0.00     0.001 A 
HETATM   33  H   UNL     1     -39.992  51.867 -49.500  1.00  0.00     0.165 HD
HETATM   34  C   UNL     1     -40.363  53.413 -50.900  1.00  0.00     0.097 A 
ENDBRANCH  24  25
BRANCH  24  35
HETATM   35  C   UNL     1     -41.692  55.553 -52.632  1.00  0.00    -0.007 A 
HETATM   36  S   UNL     1     -41.277  57.093 -51.995  1.00  0.00    -0.106 SA
HETATM   37  C   UNL     1     -42.902  57.462 -51.622  1.00  0.00     0.050 A 
HETATM   38  C   UNL     1     -43.756  56.443 -51.974  1.00  0.00     0.008 A 
HETATM   39  C   UNL     1     -43.061  55.346 -52.557  1.00  0.00     0.016 A 
ENDBRANCH  24  35
ENDBRANCH  23  24
ENDBRANCH   3  23
TORSDOF 6
ENDMDL
MODEL 3
REMARK VINA RESULT:      -9.5      1.060      1.589
REMARK  6 active torsions:
REMARK  status: ('A' for Active; 'I' for Inactive)
REMARK    1  A    between atoms: C_9  and  C_10 
REMARK       I    between atoms: C_10  and  N_11 
REMARK    2  A    between atoms: N_11  and  N_12 
REMARK       I    between atoms: N_12  and  C_13 
REMARK       I    between atoms: C_13  and  N_14 
REMARK    3  A    between atoms: N_14  and  C_15 
REMARK    4  A    between atoms: C_15  and  C_16 
REMARK    5  A    between atoms: C_16  and  C_17 
REMARK    6  A    between atoms: C_16  and  C_27 
ROOT
HETATM    1  N   UNL     1     -45.004  56.460 -54.683  1.00  0.00    -0.249 N 
HETATM    2  C   UNL     1     -44.504  57.686 -55.058  1.00  0.00     0.334 C 
HETATM    3  N   UNL     1     -45.286  58.274 -56.021  1.00  0.00    -0.341 N 
HETATM    4  O   UNL     1     -43.479  58.173 -54.599  1.00  0.00    -0.246 OA
HETATM    5  H   UNL     1     -45.992  56.262 -54.802  1.00  0.00     0.192 HD
HETATM    6  H   UNL     1     -45.770  57.623 -56.625  1.00  0.00     0.164 HD
ENDROOT
BRANCH   1   7
HETATM    7  N   UNL     1     -44.352  55.750 -53.666  1.00  0.00    -0.261 N 
HETATM    8  C   UNL     1     -43.371  54.855 -54.042  1.00  0.00     0.291 C 
HETATM    9  O   UNL     1     -43.204  54.461 -55.187  1.00  0.00    -0.264 OA
HETATM   10  H   UNL     1     -44.278  56.214 -52.756  1.00  0.00     0.190 HD
BRANCH   8  11
HETATM   11  C   UNL     1     -42.461  54.422 -52.884  1.00  0.00     0.157 A 
HETATM   12  C   UNL     1     -41.452  53.349 -53.045  1.00  0.00     0.016 A 
HETATM   13  C   UNL     1     -41.302  52.569 -54.198  1.00  0.00     0.015 A 
HETATM   14  C   UNL     1     -40.602  53.117 -51.962  1.00  0.00     0.046 A 
HETATM   15  C   UNL     1     -40.293  51.602 -54.273  1.00  0.00     0.001 A 
HETATM   16  C   UNL     1     -39.432  51.398 -53.198  1.00  0.00     0.001 A 
HETATM   17  C   UNL     1     -39.589  52.150 -52.036  1.00  0.00     0.018 A 
HETATM   18  C   UNL     1     -40.788  53.882 -50.719  1.00  0.00     0.272 A 
HETATM   19  O   UNL     1     -40.066  53.709 -49.743  1.00  0.00    -0.266 OA
HETATM   20  N   UNL     1     -41.822  54.786 -50.715  1.00  0.00    -0.242 N 
HETATM   21  N   UNL     1     -42.629  55.082 -51.769  1.00  0.00    -0.166 NA
HETATM   22  H   UNL     1     -41.962  55.325 -49.865  1.00  0.00     0.192 HD
ENDBRANCH   8  11
ENDBRANCH   1   7
BRANCH   3  23
HETATM   23  C   UNL     1     -44.875  59.523 -56.643  1.00  0.00     0.139 C 
BRANCH  23  24
HETATM   24  C   UNL     1     -44.176  59.386 -58.016  1.00  0.00     0.079 C 
BRANCH  24  25
HETATM   25  C   UNL     1     -43.731  57.973 -58.333  1.00  0.00    -0.020 A 
HETATM   26  C   UNL     1     -44.482  56.997 -59.077  1.00  0.00    -0.001 A 
HETATM   27  C   UNL     1     -43.719  55.831 -59.136  1.00  0.00     0.042 A 
HETATM   28  C   UNL     1     -45.746  56.997 -59.706  1.00  0.00     0.014 A 
HETATM   29  C   UNL     1     -44.150  54.669 -59.788  1.00  0.00     0.030 A 
HETATM   30  N   UNL     1     -42.548  56.079 -58.461  1.00  0.00    -0.365 N 
HETATM   31  C   UNL     1     -45.405  54.699 -60.403  1.00  0.00     0.002 A 
HETATM   32  C   UNL     1     -46.193  55.845 -60.364  1.00  0.00     0.001 A 
HETATM   33  H   UNL     1     -41.803  55.407 -58.344  1.00  0.00     0.165 HD
HETATM   34  C   UNL     1     -42.544  57.357 -57.975  1.00  0.00     0.097 A 
ENDBRANCH  24  25
BRANCH  24  35
HETATM   35  C   UNL     1     -43.087  60.421 -58.285  1.00  0.00    -0.007 A 
HETATM   36  S   UNL     1     -42.101  61.083 -57.044  1.00  0.00    -0.106 SA
HETATM   37  C   UNL     1     -41.234  62.056 -58.147  1.00  0.00     0.050 A 
HETATM   38  C   UNL     1     -41.673  61.888 -59.439  1.00  0.00     0.008 A 
HETATM   39  C   UNL     1     -42.736  60.945 -59.519  1.00  0.00     0.016 A 
ENDBRANCH  24  35
ENDBRANCH  23  24
ENDBRANCH   3  23
TORSDOF 6
ENDMDL
MODEL 4
REMARK VINA RESULT:      -9.1      2.487      8.308
REMARK  6 active torsions:
REMARK  status: ('A' for Active; 'I' for Inactive)
REMARK    1  A    between atoms: C_9  and  C_10 
REMARK       I    between atoms: C_10  and  N_11 
REMARK    2  A    between atoms: N_11  and  N_12 
REMARK       I    between atoms: N_12  and  C_13 
REMARK       I    between atoms: C_13  and  N_14 
REMARK    3  A    between atoms: N_14  and  C_15 
REMARK    4  A    between atoms: C_15  and  C_16 
REMARK    5  A    between atoms: C_16  and  C_17 
REMARK    6  A    between atoms: C_16  and  C_27 
ROOT
HETATM    1  N   UNL     1     -45.176  58.190 -54.049  1.00  0.00    -0.249 N 
HETATM    2  C   UNL     1     -44.616  56.990 -53.676  1.00  0.00     0.334 C 
HETATM    3  N   UNL     1     -44.146  57.034 -52.387  1.00  0.00    -0.341 N 
HETATM    4  O   UNL     1     -44.532  56.017 -54.415  1.00  0.00    -0.246 OA
HETATM    5  H   UNL     1     -45.542  58.816 -53.339  1.00  0.00     0.192 HD
HETATM    6  H   UNL     1     -43.842  57.949 -52.081  1.00  0.00     0.164 HD
ENDROOT
BRANCH   1   7
HETATM    7  N   UNL     1     -45.755  58.295 -55.321  1.00  0.00    -0.261 N 
HETATM    8  C   UNL     1     -44.955  58.755 -56.348  1.00  0.00     0.291 C 
HETATM    9  O   UNL     1     -43.874  59.302 -56.185  1.00  0.00    -0.264 OA
HETATM   10  H   UNL     1     -46.513  57.642 -55.537  1.00  0.00     0.190 HD
BRANCH   8  11
HETATM   11  C   UNL     1     -45.532  58.476 -57.743  1.00  0.00     0.157 A 
HETATM   12  C   UNL     1     -45.011  57.382 -58.596  1.00  0.00     0.016 A 
HETATM   13  C   UNL     1     -43.905  56.585 -58.276  1.00  0.00     0.015 A 
HETATM   14  C   UNL     1     -45.685  57.145 -59.796  1.00  0.00     0.046 A 
HETATM   15  C   UNL     1     -43.509  55.548 -59.127  1.00  0.00     0.001 A 
HETATM   16  C   UNL     1     -44.205  55.301 -60.308  1.00  0.00     0.001 A 
HETATM   17  C   UNL     1     -45.291  56.104 -60.649  1.00  0.00     0.018 A 
HETATM   18  C   UNL     1     -46.808  58.014 -60.179  1.00  0.00     0.272 A 
HETATM   19  O   UNL     1     -47.426  57.843 -61.225  1.00  0.00    -0.266 OA
HETATM   20  N   UNL     1     -47.110  59.031 -59.306  1.00  0.00    -0.242 N 
HETATM   21  N   UNL     1     -46.518  59.253 -58.103  1.00  0.00    -0.166 NA
HETATM   22  H   UNL     1     -47.886  59.638 -59.555  1.00  0.00     0.192 HD
ENDBRANCH   8  11
ENDBRANCH   1   7
BRANCH   3  23
HETATM   23  C   UNL     1     -43.410  55.909 -51.831  1.00  0.00     0.139 C 
BRANCH  23  24
HETATM   24  C   UNL     1     -41.913  55.837 -52.214  1.00  0.00     0.079 C 
BRANCH  24  25
HETATM   25  C   UNL     1     -41.208  54.606 -51.683  1.00  0.00    -0.020 A 
HETATM   26  C   UNL     1     -40.711  53.510 -52.473  1.00  0.00    -0.001 A 
HETATM   27  C   UNL     1     -40.138  52.585 -51.600  1.00  0.00     0.042 A 
HETATM   28  C   UNL     1     -40.696  53.218 -53.854  1.00  0.00     0.014 A 
HETATM   29  C   UNL     1     -39.555  51.388 -52.033  1.00  0.00     0.030 A 
HETATM   30  N   UNL     1     -40.275  53.089 -50.329  1.00  0.00    -0.365 N 
HETATM   31  C   UNL     1     -39.554  51.126 -53.406  1.00  0.00     0.002 A 
HETATM   32  C   UNL     1     -40.115  52.027 -54.306  1.00  0.00     0.001 A 
HETATM   33  H   UNL     1     -39.948  52.627 -49.493  1.00  0.00     0.165 HD
HETATM   34  C   UNL     1     -40.914  54.297 -50.366  1.00  0.00     0.097 A 
ENDBRANCH  24  25
BRANCH  24  35
HETATM   35  C   UNL     1     -41.127  57.120 -51.961  1.00  0.00    -0.007 A 
HETATM   36  S   UNL     1     -40.513  58.105 -53.227  1.00  0.00    -0.106 SA
HETATM   37  C   UNL     1     -39.844  59.231 -52.131  1.00  0.00     0.050 A 
HETATM   38  C   UNL     1     -40.079  58.878 -50.823  1.00  0.00     0.008 A 
HETATM   39  C   UNL     1     -40.820  57.667 -50.724  1.00  0.00     0.016 A 
ENDBRANCH  24  35
ENDBRANCH  23  24
ENDBRANCH   3  23
TORSDOF 6
ENDMDL
MODEL 5
REMARK VINA RESULT:      -9.1      1.786      2.351
REMARK  6 active torsions:
REMARK  status: ('A' for Active; 'I' for Inactive)
REMARK    1  A    between atoms: C_9  and  C_10 
REMARK       I    between atoms: C_10  and  N_11 
REMARK    2  A    between atoms: N_11  and  N_12 
REMARK       I    between atoms: N_12  and  C_13 
REMARK       I    between atoms: C_13  and  N_14 
REMARK    3  A    between atoms: N_14  and  C_15 
REMARK    4  A    between atoms: C_15  and  C_16 
REMARK    5  A    between atoms: C_16  and  C_17 
REMARK    6  A    between atoms: C_16  and  C_27 
ROOT
HETATM    1  N   UNL     1     -43.715  57.545 -54.432  1.00  0.00    -0.249 N 
HETATM    2  C   UNL     1     -42.760  58.280 -55.096  1.00  0.00     0.334 C 
HETATM    3  N   UNL     1     -43.311  59.010 -56.120  1.00  0.00    -0.341 N 
HETATM    4  O   UNL     1     -41.568  58.262 -54.815  1.00  0.00    -0.246 OA
HETATM    5  H   UNL     1     -44.683  57.848 -54.448  1.00  0.00     0.192 HD
HETATM    6  H   UNL     1     -44.134  58.596 -56.536  1.00  0.00     0.164 HD
ENDROOT
BRANCH   1   7
HETATM    7  N   UNL     1     -43.325  56.785 -53.321  1.00  0.00    -0.261 N 
HETATM    8  C   UNL     1     -43.352  55.410 -53.448  1.00  0.00     0.291 C 
HETATM    9  O   UNL     1     -43.914  54.816 -54.356  1.00  0.00    -0.264 OA
HETATM   10  H   UNL     1     -42.643  57.211 -52.687  1.00  0.00     0.190 HD
BRANCH   8  11
HETATM   11  C   UNL     1     -42.560  54.680 -52.355  1.00  0.00     0.157 A 
HETATM   12  C   UNL     1     -41.551  53.645 -52.684  1.00  0.00     0.016 A 
HETATM   13  C   UNL     1     -41.302  53.164 -53.975  1.00  0.00     0.015 A 
HETATM   14  C   UNL     1     -40.810  53.128 -51.620  1.00  0.00     0.046 A 
HETATM   15  C   UNL     1     -40.300  52.211 -54.194  1.00  0.00     0.001 A 
HETATM   16  C   UNL     1     -39.547  51.723 -53.129  1.00  0.00     0.001 A 
HETATM   17  C   UNL     1     -39.805  52.176 -51.837  1.00  0.00     0.018 A 
HETATM   18  C   UNL     1     -41.105  53.574 -50.248  1.00  0.00     0.272 A 
HETATM   19  O   UNL     1     -40.480  53.145 -49.284  1.00  0.00    -0.266 OA
HETATM   20  N   UNL     1     -42.126  54.484 -50.116  1.00  0.00    -0.242 N 
HETATM   21  N   UNL     1     -42.826  55.054 -51.132  1.00  0.00    -0.166 NA
HETATM   22  H   UNL     1     -42.339  54.804 -49.175  1.00  0.00     0.192 HD
ENDBRANCH   8  11
ENDBRANCH   1   7
BRANCH   3  23
HETATM   23  C   UNL     1     -42.461  59.767 -57.025  1.00  0.00     0.139 C 
BRANCH  23  24
HETATM   24  C   UNL     1     -42.833  59.674 -58.524  1.00  0.00     0.079 C 
BRANCH  24  25
HETATM   25  C   UNL     1     -42.824  58.260 -59.066  1.00  0.00    -0.020 A 
HETATM   26  C   UNL     1     -43.983  57.485 -59.423  1.00  0.00    -0.001 A 
HETATM   27  C   UNL     1     -43.538  56.241 -59.872  1.00  0.00     0.042 A 
HETATM   28  C   UNL     1     -45.374  57.726 -59.407  1.00  0.00     0.014 A 
HETATM   29  C   UNL     1     -44.406  55.230 -60.301  1.00  0.00     0.030 A 
HETATM   30  N   UNL     1     -42.166  56.251 -59.796  1.00  0.00    -0.365 N 
HETATM   31  C   UNL     1     -45.777  55.498 -60.274  1.00  0.00     0.002 A 
HETATM   32  C   UNL     1     -46.257  56.728 -59.834  1.00  0.00     0.001 A 
HETATM   33  H   UNL     1     -41.573  55.476 -60.059  1.00  0.00     0.165 HD
HETATM   34  C   UNL     1     -41.728  57.453 -59.314  1.00  0.00     0.097 A 
ENDBRANCH  24  25
BRANCH  24  35
HETATM   35  C   UNL     1     -42.093  60.656 -59.428  1.00  0.00    -0.007 A 
HETATM   36  S   UNL     1     -42.316  60.709 -61.130  1.00  0.00    -0.106 SA
HETATM   37  C   UNL     1     -41.204  61.993 -61.313  1.00  0.00     0.050 A 
HETATM   38  C   UNL     1     -40.669  62.386 -60.109  1.00  0.00     0.008 A 
HETATM   39  C   UNL     1     -41.182  61.620 -59.025  1.00  0.00     0.016 A 
ENDBRANCH  24  35
ENDBRANCH  23  24
ENDBRANCH   3  23
TORSDOF 6
ENDMDL
MODEL 6
REMARK VINA RESULT:      -9.1      2.779      9.008
REMARK  6 active torsions:
REMARK  status: ('A' for Active; 'I' for Inactive)
REMARK    1  A    between atoms: C_9  and  C_10 
REMARK       I    between atoms: C_10  and  N_11 
REMARK    2  A    between atoms: N_11  and  N_12 
REMARK       I    between atoms: N_12  and  C_13 
REMARK       I    between atoms: C_13  and  N_14 
REMARK    3  A    between atoms: N_14  and  C_15 
REMARK    4  A    between atoms: C_15  and  C_16 
REMARK    5  A    between atoms: C_16  and  C_17 
REMARK    6  A    between atoms: C_16  and  C_27 
ROOT
HETATM    1  N   UNL     1     -44.170  57.012 -56.490  1.00  0.00    -0.249 N 
HETATM    2  C   UNL     1     -43.340  55.951 -56.208  1.00  0.00     0.334 C 
HETATM    3  N   UNL     1     -43.575  55.450 -54.953  1.00  0.00    -0.341 N 
HETATM    4  O   UNL     1     -42.488  55.528 -56.980  1.00  0.00    -0.246 OA
HETATM    5  H   UNL     1     -45.059  57.096 -56.010  1.00  0.00     0.192 HD
HETATM    6  H   UNL     1     -43.913  56.129 -54.285  1.00  0.00     0.164 HD
ENDROOT
BRANCH   1   7
HETATM    7  N   UNL     1     -44.096  57.605 -57.758  1.00  0.00    -0.261 N 
HETATM    8  C   UNL     1     -44.365  58.956 -57.846  1.00  0.00     0.291 C 
HETATM    9  O   UNL     1     -44.894  59.609 -56.959  1.00  0.00    -0.264 OA
HETATM   10  H   UNL     1     -43.442  57.185 -58.425  1.00  0.00     0.190 HD
BRANCH   8  11
HETATM   11  C   UNL     1     -43.893  59.589 -59.162  1.00  0.00     0.157 A 
HETATM   12  C   UNL     1     -42.736  60.515 -59.210  1.00  0.00     0.016 A 
HETATM   13  C   UNL     1     -42.046  60.979 -58.084  1.00  0.00     0.015 A 
HETATM   14  C   UNL     1     -42.323  60.940 -60.474  1.00  0.00     0.046 A 
HETATM   15  C   UNL     1     -40.939  61.823 -58.230  1.00  0.00     0.001 A 
HETATM   16  C   UNL     1     -40.518  62.219 -59.497  1.00  0.00     0.001 A 
HETATM   17  C   UNL     1     -41.213  61.784 -60.622  1.00  0.00     0.018 A 
HETATM   18  C   UNL     1     -43.078  60.515 -61.664  1.00  0.00     0.272 A 
HETATM   19  O   UNL     1     -42.751  60.867 -62.792  1.00  0.00    -0.266 OA
HETATM   20  N   UNL     1     -44.171  59.717 -61.431  1.00  0.00    -0.242 N 
HETATM   21  N   UNL     1     -44.566  59.234 -60.223  1.00  0.00    -0.166 NA
HETATM   22  H   UNL     1     -44.701  59.412 -62.243  1.00  0.00     0.192 HD
ENDBRANCH   8  11
ENDBRANCH   1   7
BRANCH   3  23
HETATM   23  C   UNL     1     -42.728  54.399 -54.408  1.00  0.00     0.139 C 
BRANCH  23  24
HETATM   24  C   UNL     1     -41.425  54.880 -53.728  1.00  0.00     0.079 C 
BRANCH  24  25
HETATM   25  C   UNL     1     -40.805  53.851 -52.805  1.00  0.00    -0.020 A 
HETATM   26  C   UNL     1     -40.449  52.503 -53.161  1.00  0.00    -0.001 A 
HETATM   27  C   UNL     1     -39.915  51.893 -52.026  1.00  0.00     0.042 A 
HETATM   28  C   UNL     1     -40.531  51.743 -54.347  1.00  0.00     0.014 A 
HETATM   29  C   UNL     1     -39.463  50.568 -52.013  1.00  0.00     0.030 A 
HETATM   30  N   UNL     1     -39.940  52.824 -51.016  1.00  0.00    -0.365 N 
HETATM   31  C   UNL     1     -39.556  49.840 -53.202  1.00  0.00     0.002 A 
HETATM   32  C   UNL     1     -40.082  50.417 -54.354  1.00  0.00     0.001 A 
HETATM   33  H   UNL     1     -39.612  52.657 -50.075  1.00  0.00     0.165 HD
HETATM   34  C   UNL     1     -40.471  54.000 -51.470  1.00  0.00     0.097 A 
ENDBRANCH  24  25
BRANCH  24  35
HETATM   35  C   UNL     1     -41.510  56.265 -53.092  1.00  0.00    -0.007 A 
HETATM   36  S   UNL     1     -42.517  56.615 -51.745  1.00  0.00    -0.106 SA
HETATM   37  C   UNL     1     -42.018  58.248 -51.699  1.00  0.00     0.050 A 
HETATM   38  C   UNL     1     -41.100  58.534 -52.682  1.00  0.00     0.008 A 
HETATM   39  C   UNL     1     -40.805  57.394 -53.481  1.00  0.00     0.016 A 
ENDBRANCH  24  35
ENDBRANCH  23  24
ENDBRANCH   3  23
TORSDOF 6
ENDMDL
MODEL 7
REMARK VINA RESULT:      -9.1      5.289      8.349
REMARK  6 active torsions:
REMARK  status: ('A' for Active; 'I' for Inactive)
REMARK    1  A    between atoms: C_9  and  C_10 
REMARK       I    between atoms: C_10  and  N_11 
REMARK    2  A    between atoms: N_11  and  N_12 
REMARK       I    between atoms: N_12  and  C_13 
REMARK       I    between atoms: C_13  and  N_14 
REMARK    3  A    between atoms: N_14  and  C_15 
REMARK    4  A    between atoms: C_15  and  C_16 
REMARK    5  A    between atoms: C_16  and  C_17 
REMARK    6  A    between atoms: C_16  and  C_27 
ROOT
HETATM    1  N   UNL     1     -44.713  57.524 -51.114  1.00  0.00    -0.249 N 
HETATM    2  C   UNL     1     -43.694  56.601 -51.162  1.00  0.00     0.334 C 
HETATM    3  N   UNL     1     -44.039  55.512 -51.924  1.00  0.00    -0.341 N 
HETATM    4  O   UNL     1     -42.626  56.733 -50.579  1.00  0.00    -0.246 OA
HETATM    5  H   UNL     1     -45.398  57.557 -51.861  1.00  0.00     0.192 HD
HETATM    6  H   UNL     1     -45.028  55.303 -51.935  1.00  0.00     0.164 HD
ENDROOT
BRANCH   1   7
HETATM    7  N   UNL     1     -44.501  58.723 -50.420  1.00  0.00    -0.261 N 
HETATM    8  C   UNL     1     -45.553  59.616 -50.353  1.00  0.00     0.291 C 
HETATM    9  O   UNL     1     -46.554  59.549 -51.051  1.00  0.00    -0.264 OA
HETATM   10  H   UNL     1     -43.823  58.697 -49.653  1.00  0.00     0.190 HD
BRANCH   8  11
HETATM   11  C   UNL     1     -45.373  60.694 -49.276  1.00  0.00     0.157 A 
HETATM   12  C   UNL     1     -44.556  61.907 -49.517  1.00  0.00     0.016 A 
HETATM   13  C   UNL     1     -43.800  62.135 -50.673  1.00  0.00     0.015 A 
HETATM   14  C   UNL     1     -44.555  62.874 -48.511  1.00  0.00     0.046 A 
HETATM   15  C   UNL     1     -43.088  63.331 -50.828  1.00  0.00     0.001 A 
HETATM   16  C   UNL     1     -43.116  64.302 -49.831  1.00  0.00     0.001 A 
HETATM   17  C   UNL     1     -43.844  64.073 -48.665  1.00  0.00     0.018 A 
HETATM   18  C   UNL     1     -45.291  62.621 -47.262  1.00  0.00     0.272 A 
HETATM   19  O   UNL     1     -45.315  63.442 -46.352  1.00  0.00    -0.266 OA
HETATM   20  N   UNL     1     -45.933  61.410 -47.175  1.00  0.00    -0.242 N 
HETATM   21  N   UNL     1     -46.006  60.471 -48.156  1.00  0.00    -0.166 NA
HETATM   22  H   UNL     1     -46.449  61.221 -46.319  1.00  0.00     0.192 HD
ENDBRANCH   8  11
ENDBRANCH   1   7
BRANCH   3  23
HETATM   23  C   UNL     1     -43.150  54.364 -52.013  1.00  0.00     0.139 C 
BRANCH  23  24
HETATM   24  C   UNL     1     -42.014  54.479 -53.056  1.00  0.00     0.079 C 
BRANCH  24  25
HETATM   25  C   UNL     1     -42.493  54.885 -54.434  1.00  0.00    -0.020 A 
HETATM   26  C   UNL     1     -42.414  56.205 -55.002  1.00  0.00    -0.001 A 
HETATM   27  C   UNL     1     -42.967  56.150 -56.281  1.00  0.00     0.042 A 
HETATM   28  C   UNL     1     -41.922  57.447 -54.543  1.00  0.00     0.014 A 
HETATM   29  C   UNL     1     -43.056  57.265 -57.122  1.00  0.00     0.030 A 
HETATM   30  N   UNL     1     -43.367  54.852 -56.493  1.00  0.00    -0.365 N 
HETATM   31  C   UNL     1     -42.561  58.480 -56.643  1.00  0.00     0.002 A 
HETATM   32  C   UNL     1     -42.001  58.572 -55.372  1.00  0.00     0.001 A 
HETATM   33  H   UNL     1     -43.804  54.520 -57.341  1.00  0.00     0.165 HD
HETATM   34  C   UNL     1     -43.089  54.086 -55.395  1.00  0.00     0.097 A 
ENDBRANCH  24  25
BRANCH  24  35
HETATM   35  C   UNL     1     -41.057  53.291 -53.091  1.00  0.00    -0.007 A 
HETATM   36  S   UNL     1     -40.196  52.743 -51.709  1.00  0.00    -0.106 SA
HETATM   37  C   UNL     1     -39.446  51.481 -52.582  1.00  0.00     0.050 A 
HETATM   38  C   UNL     1     -39.836  51.463 -53.900  1.00  0.00     0.008 A 
HETATM   39  C   UNL     1     -40.766  52.501 -54.193  1.00  0.00     0.016 A 
ENDBRANCH  24  35
ENDBRANCH  23  24
ENDBRANCH   3  23
TORSDOF 6
ENDMDL
MODEL 8
REMARK VINA RESULT:      -9.1      3.698      5.691
REMARK  6 active torsions:
REMARK  status: ('A' for Active; 'I' for Inactive)
REMARK    1  A    between atoms: C_9  and  C_10 
REMARK       I    between atoms: C_10  and  N_11 
REMARK    2  A    between atoms: N_11  and  N_12 
REMARK       I    between atoms: N_12  and  C_13 
REMARK       I    between atoms: C_13  and  N_14 
REMARK    3  A    between atoms: N_14  and  C_15 
REMARK    4  A    between atoms: C_15  and  C_16 
REMARK    5  A    between atoms: C_16  and  C_17 
REMARK    6  A    between atoms: C_16  and  C_27 
ROOT
HETATM    1  N   UNL     1     -42.984  55.958 -55.007  1.00  0.00    -0.249 N 
HETATM    2  C   UNL     1     -43.736  56.822 -54.246  1.00  0.00     0.334 C 
HETATM    3  N   UNL     1     -44.265  57.834 -55.008  1.00  0.00    -0.341 N 
HETATM    4  O   UNL     1     -43.892  56.707 -53.036  1.00  0.00    -0.246 OA
HETATM    5  H   UNL     1     -43.167  55.874 -56.002  1.00  0.00     0.192 HD
HETATM    6  H   UNL     1     -43.710  58.087 -55.815  1.00  0.00     0.164 HD
ENDROOT
BRANCH   1   7
HETATM    7  N   UNL     1     -42.417  54.836 -54.388  1.00  0.00    -0.261 N 
HETATM    8  C   UNL     1     -41.059  54.862 -54.140  1.00  0.00     0.291 C 
HETATM    9  O   UNL     1     -40.288  55.671 -54.634  1.00  0.00    -0.264 OA
HETATM   10  H   UNL     1     -43.026  54.299 -53.763  1.00  0.00     0.190 HD
BRANCH   8  11
HETATM   11  C   UNL     1     -40.600  53.795 -53.137  1.00  0.00     0.157 A 
HETATM   12  C   UNL     1     -40.675  54.019 -51.674  1.00  0.00     0.016 A 
HETATM   13  C   UNL     1     -41.057  55.226 -51.076  1.00  0.00     0.015 A 
HETATM   14  C   UNL     1     -40.340  52.940 -50.854  1.00  0.00     0.046 A 
HETATM   15  C   UNL     1     -41.135  55.332 -49.682  1.00  0.00     0.001 A 
HETATM   16  C   UNL     1     -40.825  54.241 -48.874  1.00  0.00     0.001 A 
HETATM   17  C   UNL     1     -40.420  53.043 -49.458  1.00  0.00     0.018 A 
HETATM   18  C   UNL     1     -39.874  51.684 -51.465  1.00  0.00     0.272 A 
HETATM   19  O   UNL     1     -39.567  50.713 -50.783  1.00  0.00    -0.266 OA
HETATM   20  N   UNL     1     -39.791  51.675 -52.836  1.00  0.00    -0.242 N 
HETATM   21  N   UNL     1     -40.168  52.683 -53.667  1.00  0.00    -0.166 NA
HETATM   22  H   UNL     1     -39.475  50.813 -53.274  1.00  0.00     0.192 HD
ENDBRANCH   8  11
ENDBRANCH   1   7
BRANCH   3  23
HETATM   23  C   UNL     1     -44.998  58.923 -54.382  1.00  0.00     0.139 C 
BRANCH  23  24
HETATM   24  C   UNL     1     -44.152  60.158 -53.991  1.00  0.00     0.079 C 
BRANCH  24  25
HETATM   25  C   UNL     1     -43.577  60.083 -52.591  1.00  0.00    -0.020 A 
HETATM   26  C   UNL     1     -42.249  59.651 -52.245  1.00  0.00    -0.001 A 
HETATM   27  C   UNL     1     -42.127  59.727 -50.857  1.00  0.00     0.042 A 
HETATM   28  C   UNL     1     -41.135  59.201 -52.986  1.00  0.00     0.014 A 
HETATM   29  C   UNL     1     -40.957  59.378 -50.174  1.00  0.00     0.030 A 
HETATM   30  N   UNL     1     -43.327  60.187 -50.371  1.00  0.00    -0.365 N 
HETATM   31  C   UNL     1     -39.870  58.936 -50.933  1.00  0.00     0.002 A 
HETATM   32  C   UNL     1     -39.955  58.848 -52.320  1.00  0.00     0.001 A 
HETATM   33  H   UNL     1     -43.526  60.341 -49.392  1.00  0.00     0.165 HD
HETATM   34  C   UNL     1     -44.203  60.402 -51.399  1.00  0.00     0.097 A 
ENDBRANCH  24  25
BRANCH  24  35
HETATM   35  C   UNL     1     -44.810  61.503 -54.286  1.00  0.00    -0.007 A 
HETATM   36  S   UNL     1     -43.914  62.920 -54.656  1.00  0.00    -0.106 SA
HETATM   37  C   UNL     1     -45.329  63.859 -54.838  1.00  0.00     0.050 A 
HETATM   38  C   UNL     1     -46.469  63.120 -54.628  1.00  0.00     0.008 A 
HETATM   39  C   UNL     1     -46.171  61.764 -54.314  1.00  0.00     0.016 A 
ENDBRANCH  24  35
ENDBRANCH  23  24
ENDBRANCH   3  23
TORSDOF 6
ENDMDL
MODEL 9
REMARK VINA RESULT:      -9.0      2.609      4.141
REMARK  6 active torsions:
REMARK  status: ('A' for Active; 'I' for Inactive)
REMARK    1  A    between atoms: C_9  and  C_10 
REMARK       I    between atoms: C_10  and  N_11 
REMARK    2  A    between atoms: N_11  and  N_12 
REMARK       I    between atoms: N_12  and  C_13 
REMARK       I    between atoms: C_13  and  N_14 
REMARK    3  A    between atoms: N_14  and  C_15 
REMARK    4  A    between atoms: C_15  and  C_16 
REMARK    5  A    between atoms: C_16  and  C_17 
REMARK    6  A    between atoms: C_16  and  C_27 
ROOT
HETATM    1  N   UNL     1     -42.052  55.224 -56.298  1.00  0.00    -0.249 N 
HETATM    2  C   UNL     1     -42.112  56.595 -56.201  1.00  0.00     0.334 C 
HETATM    3  N   UNL     1     -42.277  57.178 -57.433  1.00  0.00    -0.341 N 
HETATM    4  O   UNL     1     -42.010  57.210 -55.147  1.00  0.00    -0.246 OA
HETATM    5  H   UNL     1     -42.485  54.756 -57.087  1.00  0.00     0.192 HD
HETATM    6  H   UNL     1     -41.879  56.657 -58.202  1.00  0.00     0.164 HD
ENDROOT
BRANCH   1   7
HETATM    7  N   UNL     1     -41.941  54.472 -55.120  1.00  0.00    -0.261 N 
HETATM    8  C   UNL     1     -40.670  54.147 -54.689  1.00  0.00     0.291 C 
HETATM    9  O   UNL     1     -39.665  54.252 -55.377  1.00  0.00    -0.264 OA
HETATM   10  H   UNL     1     -42.685  54.589 -54.427  1.00  0.00     0.190 HD
BRANCH   8  11
HETATM   11  C   UNL     1     -40.622  53.675 -53.230  1.00  0.00     0.157 A 
HETATM   12  C   UNL     1     -40.260  52.283 -52.873  1.00  0.00     0.016 A 
HETATM   13  C   UNL     1     -40.040  51.259 -53.801  1.00  0.00     0.015 A 
HETATM   14  C   UNL     1     -40.135  51.995 -51.512  1.00  0.00     0.046 A 
HETATM   15  C   UNL     1     -39.664  49.981 -53.371  1.00  0.00     0.001 A 
HETATM   16  C   UNL     1     -39.514  49.711 -52.013  1.00  0.00     0.001 A 
HETATM   17  C   UNL     1     -39.756  50.716 -51.079  1.00  0.00     0.018 A 
HETATM   18  C   UNL     1     -40.427  53.042 -50.520  1.00  0.00     0.272 A 
HETATM   19  O   UNL     1     -40.332  52.831 -49.316  1.00  0.00    -0.266 OA
HETATM   20  N   UNL     1     -40.824  54.257 -51.024  1.00  0.00    -0.242 N 
HETATM   21  N   UNL     1     -40.897  54.591 -52.341  1.00  0.00    -0.166 NA
HETATM   22  H   UNL     1     -41.026  54.992 -50.352  1.00  0.00     0.192 HD
ENDBRANCH   8  11
ENDBRANCH   1   7
BRANCH   3  23
HETATM   23  C   UNL     1     -42.248  58.627 -57.572  1.00  0.00     0.139 C 
BRANCH  23  24
HETATM   24  C   UNL     1     -43.318  59.226 -58.515  1.00  0.00     0.079 C 
BRANCH  24  25
HETATM   25  C   UNL     1     -42.737  59.970 -59.699  1.00  0.00    -0.020 A 
HETATM   26  C   UNL     1     -41.739  61.006 -59.640  1.00  0.00    -0.001 A 
HETATM   27  C   UNL     1     -41.488  61.426 -60.946  1.00  0.00     0.042 A 
HETATM   28  C   UNL     1     -41.025  61.626 -58.593  1.00  0.00     0.014 A 
HETATM   29  C   UNL     1     -40.565  62.431 -61.260  1.00  0.00     0.030 A 
HETATM   30  N   UNL     1     -42.293  60.681 -61.773  1.00  0.00    -0.365 N 
HETATM   31  C   UNL     1     -39.872  63.027 -60.203  1.00  0.00     0.002 A 
HETATM   32  C   UNL     1     -40.097  62.632 -58.887  1.00  0.00     0.001 A 
HETATM   33  H   UNL     1     -42.321  60.773 -62.779  1.00  0.00     0.165 HD
HETATM   34  C   UNL     1     -43.046  59.807 -61.039  1.00  0.00     0.097 A 
ENDBRANCH  24  25
BRANCH  24  35
HETATM   35  C   UNL     1     -44.422  60.011 -57.811  1.00  0.00    -0.007 A 
HETATM   36  S   UNL     1     -46.045  60.048 -58.372  1.00  0.00    -0.106 SA
HETATM   37  C   UNL     1     -46.545  61.062 -57.091  1.00  0.00     0.050 A 
HETATM   38  C   UNL     1     -45.507  61.371 -56.244  1.00  0.00     0.008 A 
HETATM   39  C   UNL     1     -44.287  60.764 -56.655  1.00  0.00     0.016 A 
ENDBRANCH  24  35
ENDBRANCH  23  24
ENDBRANCH   3  23
TORSDOF 6
ENDMDL
MODEL 10
REMARK VINA RESULT:      -8.7      5.676      8.547
REMARK  6 active torsions:
REMARK  status: ('A' for Active; 'I' for Inactive)
REMARK    1  A    between atoms: C_9  and  C_10 
REMARK       I    between atoms: C_10  and  N_11 
REMARK    2  A    between atoms: N_11  and  N_12 
REMARK       I    between atoms: N_12  and  C_13 
REMARK       I    between atoms: C_13  and  N_14 
REMARK    3  A    between atoms: N_14  and  C_15 
REMARK    4  A    between atoms: C_15  and  C_16 
REMARK    5  A    between atoms: C_16  and  C_17 
REMARK    6  A    between atoms: C_16  and  C_27 
ROOT
HETATM    1  N   UNL     1     -43.242  58.827 -50.592  1.00  0.00    -0.249 N 
HETATM    2  C   UNL     1     -42.416  58.746 -51.689  1.00  0.00     0.334 C 
HETATM    3  N   UNL     1     -41.830  57.509 -51.787  1.00  0.00    -0.341 N 
HETATM    4  O   UNL     1     -42.218  59.674 -52.464  1.00  0.00    -0.246 OA
HETATM    5  H   UNL     1     -43.649  57.981 -50.206  1.00  0.00     0.192 HD
HETATM    6  H   UNL     1     -41.685  57.041 -50.902  1.00  0.00     0.164 HD
ENDROOT
BRANCH   1   7
HETATM    7  N   UNL     1     -43.963  60.010 -50.379  1.00  0.00    -0.261 N 
HETATM    8  C   UNL     1     -45.271  59.891 -49.952  1.00  0.00     0.291 C 
HETATM    9  O   UNL     1     -45.911  58.851 -49.984  1.00  0.00    -0.264 OA
HETATM   10  H   UNL     1     -43.422  60.834 -50.100  1.00  0.00     0.190 HD
BRANCH   8  11
HETATM   11  C   UNL     1     -45.848  61.194 -49.381  1.00  0.00     0.157 A 
HETATM   12  C   UNL     1     -45.651  61.577 -47.963  1.00  0.00     0.016 A 
HETATM   13  C   UNL     1     -45.034  60.767 -47.002  1.00  0.00     0.015 A 
HETATM   14  C   UNL     1     -46.120  62.835 -47.581  1.00  0.00     0.046 A 
HETATM   15  C   UNL     1     -44.859  61.230 -45.693  1.00  0.00     0.001 A 
HETATM   16  C   UNL     1     -45.304  62.498 -45.329  1.00  0.00     0.001 A 
HETATM   17  C   UNL     1     -45.943  63.302 -46.270  1.00  0.00     0.018 A 
HETATM   18  C   UNL     1     -46.829  63.672 -48.561  1.00  0.00     0.272 A 
HETATM   19  O   UNL     1     -47.259  64.782 -48.268  1.00  0.00    -0.266 OA
HETATM   20  N   UNL     1     -46.991  63.130 -49.813  1.00  0.00    -0.242 N 
HETATM   21  N   UNL     1     -46.495  61.937 -50.238  1.00  0.00    -0.166 NA
HETATM   22  H   UNL     1     -47.476  63.697 -50.503  1.00  0.00     0.192 HD
ENDBRANCH   8  11
ENDBRANCH   1   7
BRANCH   3  23
HETATM   23  C   UNL     1     -40.828  57.246 -52.809  1.00  0.00     0.139 C 
BRANCH  23  24
HETATM   24  C   UNL     1     -41.283  56.326 -53.966  1.00  0.00     0.079 C 
BRANCH  24  25
HETATM   25  C   UNL     1     -42.738  56.503 -54.348  1.00  0.00    -0.020 A 
HETATM   26  C   UNL     1     -43.277  57.565 -55.156  1.00  0.00    -0.001 A 
HETATM   27  C   UNL     1     -44.653  57.359 -55.261  1.00  0.00     0.042 A 
HETATM   28  C   UNL     1     -42.720  58.685 -55.810  1.00  0.00     0.014 A 
HETATM   29  C   UNL     1     -45.498  58.212 -55.981  1.00  0.00     0.030 A 
HETATM   30  N   UNL     1     -44.948  56.221 -54.551  1.00  0.00    -0.365 N 
HETATM   31  C   UNL     1     -44.919  59.313 -56.618  1.00  0.00     0.002 A 
HETATM   32  C   UNL     1     -43.549  59.548 -56.535  1.00  0.00     0.001 A 
HETATM   33  H   UNL     1     -45.875  55.831 -54.455  1.00  0.00     0.165 HD
HETATM   34  C   UNL     1     -43.810  55.700 -53.999  1.00  0.00     0.097 A 
ENDBRANCH  24  25
BRANCH  24  35
HETATM   35  C   UNL     1     -40.889  54.860 -53.809  1.00  0.00    -0.007 A 
HETATM   36  S   UNL     1     -40.847  54.062 -52.288  1.00  0.00    -0.106 SA
HETATM   37  C   UNL     1     -40.359  52.584 -52.991  1.00  0.00     0.050 A 
HETATM   38  C   UNL     1     -40.230  52.680 -54.356  1.00  0.00     0.008 A 
HETATM   39  C   UNL     1     -40.538  53.988 -54.827  1.00  0.00     0.016 A 
ENDBRANCH  24  35
ENDBRANCH  23  24
ENDBRANCH   3  23
TORSDOF 6
ENDMDL
