MODEL 1
REMARK VINA RESULT:      -9.3      0.000      0.000
REMARK  9 active torsions:
REMARK  status: ('A' for Active; 'I' for Inactive)
REMARK    1  A    between atoms: C_2  and  O_3 
REMARK    2  A    between atoms: O_3  and  C_4 
REMARK    3  A    between atoms: C_4  and  C_5 
REMARK    4  A    between atoms: C_8  and  N_9 
REMARK       I    between atoms: N_9  and  C_10 
REMARK    5  A    between atoms: C_10  and  C_11 
REMARK    6  A    between atoms: C_13  and  N_14 
REMARK    7  A    between atoms: N_17  and  C_19 
REMARK    8  A    between atoms: C_19  and  C_20 
REMARK    9  A    between atoms: C_19  and  C_26 
ROOT
HETATM    1  C   UNL     1     -44.622  59.561 -51.094  1.00  0.00     0.200 C 
HETATM    2  N   UNL     1     -44.834  59.896 -52.494  1.00  0.00    -0.211 N 
HETATM    3  C   UNL     1     -43.764  60.146 -53.287  1.00  0.00     0.702 C 
HETATM    4  N   UNL     1     -42.556  60.337 -52.883  1.00  0.00    -0.028 NA
HETATM    5  C   UNL     1     -42.300  60.205 -51.538  1.00  0.00     0.263 C 
HETATM    6  O   UNL     1     -41.159  60.047 -51.113  1.00  0.00    -0.271 OA
HETATM    7  C   UNL     1     -43.449  60.362 -50.573  1.00  0.00     0.141 C 
HETATM    8  H   UNL     1     -45.619  59.431 -52.934  1.00  0.00     0.178 HD
ENDROOT
BRANCH   3   9
HETATM    9  N   UNL     1     -44.117  60.254 -54.612  1.00  0.00    -0.213 N 
HETATM   10  C   UNL     1     -45.158  59.319 -55.100  1.00  0.00     0.169 C 
HETATM   11  C   UNL     1     -44.544  57.964 -55.517  1.00  0.00     0.256 C 
HETATM   12  N   UNL     1     -43.482  58.201 -56.594  1.00  0.00    -0.056 N 
HETATM   13  H   UNL     1     -43.902  58.758 -57.342  1.00  0.00     0.281 HD
HETATM   14  C   UNL     1     -42.382  59.090 -56.009  1.00  0.00     0.256 C 
HETATM   15  C   UNL     1     -43.002  60.435 -55.573  1.00  0.00     0.169 C 
BRANCH  12  16
HETATM   16  C   UNL     1     -42.953  56.949 -57.287  1.00  0.00     0.254 C 
BRANCH  16  17
HETATM   17  C   UNL     1     -42.540  55.842 -56.324  1.00  0.00    -0.023 A 
HETATM   18  C   UNL     1     -43.311  54.677 -56.160  1.00  0.00     0.009 A 
HETATM   19  C   UNL     1     -42.917  53.683 -55.264  1.00  0.00     0.001 A 
HETATM   20  C   UNL     1     -41.748  53.834 -54.522  1.00  0.00     0.000 A 
HETATM   21  C   UNL     1     -40.970  54.977 -54.675  1.00  0.00     0.001 A 
HETATM   22  C   UNL     1     -41.361  55.976 -55.568  1.00  0.00     0.009 A 
ENDBRANCH  16  17
BRANCH  16  23
HETATM   23  C   UNL     1     -43.799  56.468 -58.477  1.00  0.00    -0.023 A 
HETATM   24  C   UNL     1     -43.484  55.351 -59.274  1.00  0.00     0.009 A 
HETATM   25  C   UNL     1     -44.325  54.953 -60.319  1.00  0.00     0.001 A 
HETATM   26  C   UNL     1     -45.491  55.659 -60.592  1.00  0.00     0.000 A 
HETATM   27  C   UNL     1     -45.827  56.764 -59.819  1.00  0.00     0.001 A 
HETATM   28  C   UNL     1     -44.994  57.161 -58.770  1.00  0.00     0.009 A 
ENDBRANCH  16  23
ENDBRANCH  12  16
ENDBRANCH   3   9
BRANCH   1  29
HETATM   29  C   UNL     1     -44.412  58.041 -50.898  1.00  0.00     0.246 C 
HETATM   30  N   UNL     1     -43.068  57.697 -50.866  1.00  0.00    -0.325 N 
HETATM   31  H   UNL     1     -42.392  58.453 -50.884  1.00  0.00     0.169 HD
HETATM   32  O   UNL     1     -45.366  57.277 -50.766  1.00  0.00    -0.271 OA
BRANCH  30  33
HETATM   33  C   UNL     1     -42.500  56.407 -50.821  1.00  0.00     0.034 A 
HETATM   34  C   UNL     1     -43.094  55.266 -51.358  1.00  0.00     0.030 A 
HETATM   35  C   UNL     1     -42.421  54.035 -51.322  1.00  0.00     0.020 A 
HETATM   36  C   UNL     1     -41.147  53.932 -50.752  1.00  0.00     0.039 A 
HETATM   37  C   UNL     1     -40.561  55.070 -50.189  1.00  0.00     0.020 A 
HETATM   38  C   UNL     1     -41.235  56.296 -50.224  1.00  0.00     0.030 A 
BRANCH  36  39
HETATM   39  C   UNL     1     -40.451  52.616 -50.795  1.00  0.00     0.293 C 
HETATM   40  O   UNL     1     -40.522  51.791 -49.899  1.00  0.00    -0.259 OA
BRANCH  39  41
HETATM   41  O   UNL     1     -39.788  52.472 -51.968  1.00  0.00    -0.318 OA
BRANCH  41  42
HETATM   42  C   UNL     1     -39.435  51.129 -52.332  1.00  0.00     0.174 C 
HETATM   43  C   UNL     1     -39.769  50.870 -53.789  1.00  0.00     0.034 C 
ENDBRANCH  41  42
ENDBRANCH  39  41
ENDBRANCH  36  39
ENDBRANCH  30  33
ENDBRANCH   1  29
TORSDOF 9
ENDMDL
MODEL 2
REMARK VINA RESULT:      -9.1      2.144      3.304
REMARK  9 active torsions:
REMARK  status: ('A' for Active; 'I' for Inactive)
REMARK    1  A    between atoms: C_2  and  O_3 
REMARK    2  A    between atoms: O_3  and  C_4 
REMARK    3  A    between atoms: C_4  and  C_5 
REMARK    4  A    between atoms: C_8  and  N_9 
REMARK       I    between atoms: N_9  and  C_10 
REMARK    5  A    between atoms: C_10  and  C_11 
REMARK    6  A    between atoms: C_13  and  N_14 
REMARK    7  A    between atoms: N_17  and  C_19 
REMARK    8  A    between atoms: C_19  and  C_20 
REMARK    9  A    between atoms: C_19  and  C_26 
ROOT
HETATM    1  C   UNL     1     -43.183  58.958 -51.545  1.00  0.00     0.200 C 
HETATM    2  N   UNL     1     -44.052  59.353 -52.643  1.00  0.00    -0.211 N 
HETATM    3  C   UNL     1     -43.522  59.543 -53.875  1.00  0.00     0.702 C 
HETATM    4  N   UNL     1     -42.266  59.625 -54.149  1.00  0.00    -0.028 NA
HETATM    5  C   UNL     1     -41.370  59.432 -53.123  1.00  0.00     0.263 C 
HETATM    6  O   UNL     1     -40.190  59.172 -53.340  1.00  0.00    -0.271 OA
HETATM    7  C   UNL     1     -41.847  59.649 -51.709  1.00  0.00     0.141 C 
HETATM    8  H   UNL     1     -44.987  58.965 -52.613  1.00  0.00     0.178 HD
ENDROOT
BRANCH   3   9
HETATM    9  N   UNL     1     -44.491  59.720 -54.834  1.00  0.00    -0.213 N 
HETATM   10  C   UNL     1     -45.141  58.493 -55.355  1.00  0.00     0.169 C 
HETATM   11  C   UNL     1     -44.318  57.866 -56.501  1.00  0.00     0.256 C 
HETATM   12  N   UNL     1     -44.138  58.898 -57.617  1.00  0.00    -0.056 N 
HETATM   13  H   UNL     1     -45.059  59.264 -57.868  1.00  0.00     0.281 HD
HETATM   14  C   UNL     1     -43.375  60.100 -57.054  1.00  0.00     0.256 C 
HETATM   15  C   UNL     1     -44.191  60.712 -55.894  1.00  0.00     0.169 C 
BRANCH  12  16
HETATM   16  C   UNL     1     -43.558  58.365 -58.924  1.00  0.00     0.254 C 
BRANCH  16  17
HETATM   17  C   UNL     1     -44.218  57.080 -59.410  1.00  0.00    -0.023 A 
HETATM   18  C   UNL     1     -45.563  57.048 -59.820  1.00  0.00     0.009 A 
HETATM   19  C   UNL     1     -46.147  55.856 -60.251  1.00  0.00     0.001 A 
HETATM   20  C   UNL     1     -45.399  54.682 -60.282  1.00  0.00     0.000 A 
HETATM   21  C   UNL     1     -44.066  54.696 -59.884  1.00  0.00     0.001 A 
HETATM   22  C   UNL     1     -43.477  55.885 -59.451  1.00  0.00     0.009 A 
ENDBRANCH  16  17
BRANCH  16  23
HETATM   23  C   UNL     1     -43.361  59.426 -60.018  1.00  0.00    -0.023 A 
HETATM   24  C   UNL     1     -44.378  60.277 -60.489  1.00  0.00     0.009 A 
HETATM   25  C   UNL     1     -44.112  61.245 -61.465  1.00  0.00     0.001 A 
HETATM   26  C   UNL     1     -42.832  61.381 -61.991  1.00  0.00     0.000 A 
HETATM   27  C   UNL     1     -41.809  60.554 -61.542  1.00  0.00     0.001 A 
HETATM   28  C   UNL     1     -42.069  59.592 -60.563  1.00  0.00     0.009 A 
ENDBRANCH  16  23
ENDBRANCH  12  16
ENDBRANCH   3   9
BRANCH   1  29
HETATM   29  C   UNL     1     -43.030  57.421 -51.464  1.00  0.00     0.246 C 
HETATM   30  N   UNL     1     -41.712  57.035 -51.263  1.00  0.00    -0.325 N 
HETATM   31  H   UNL     1     -41.029  57.770 -51.108  1.00  0.00     0.169 HD
HETATM   32  O   UNL     1     -44.005  56.677 -51.549  1.00  0.00    -0.271 OA
BRANCH  30  33
HETATM   33  C   UNL     1     -41.178  55.731 -51.255  1.00  0.00     0.034 A 
HETATM   34  C   UNL     1     -40.736  55.067 -50.111  1.00  0.00     0.030 A 
HETATM   35  C   UNL     1     -40.281  53.743 -50.193  1.00  0.00     0.020 A 
HETATM   36  C   UNL     1     -40.263  53.066 -51.418  1.00  0.00     0.039 A 
HETATM   37  C   UNL     1     -40.680  53.738 -52.571  1.00  0.00     0.020 A 
HETATM   38  C   UNL     1     -41.133  55.060 -52.487  1.00  0.00     0.030 A 
BRANCH  36  39
HETATM   39  C   UNL     1     -39.828  51.642 -51.440  1.00  0.00     0.293 C 
HETATM   40  O   UNL     1     -39.988  50.878 -50.503  1.00  0.00    -0.259 OA
BRANCH  39  41
HETATM   41  O   UNL     1     -39.287  51.333 -52.644  1.00  0.00    -0.318 OA
BRANCH  41  42
HETATM   42  C   UNL     1     -39.596  50.029 -53.159  1.00  0.00     0.174 C 
HETATM   43  C   UNL     1     -40.394  50.142 -54.443  1.00  0.00     0.034 C 
ENDBRANCH  41  42
ENDBRANCH  39  41
ENDBRANCH  36  39
ENDBRANCH  30  33
ENDBRANCH   1  29
TORSDOF 9
ENDMDL
MODEL 3
REMARK VINA RESULT:      -8.9      2.260      6.412
REMARK  9 active torsions:
REMARK  status: ('A' for Active; 'I' for Inactive)
REMARK    1  A    between atoms: C_2  and  O_3 
REMARK    2  A    between atoms: O_3  and  C_4 
REMARK    3  A    between atoms: C_4  and  C_5 
REMARK    4  A    between atoms: C_8  and  N_9 
REMARK       I    between atoms: N_9  and  C_10 
REMARK    5  A    between atoms: C_10  and  C_11 
REMARK    6  A    between atoms: C_13  and  N_14 
REMARK    7  A    between atoms: N_17  and  C_19 
REMARK    8  A    between atoms: C_19  and  C_20 
REMARK    9  A    between atoms: C_19  and  C_26 
ROOT
HETATM    1  C   UNL     1     -43.405  57.680 -58.706  1.00  0.00     0.200 C 
HETATM    2  N   UNL     1     -43.169  58.865 -57.896  1.00  0.00    -0.211 N 
HETATM    3  C   UNL     1     -44.185  59.386 -57.167  1.00  0.00     0.702 C 
HETATM    4  N   UNL     1     -45.429  59.071 -57.278  1.00  0.00    -0.028 NA
HETATM    5  C   UNL     1     -45.761  58.067 -58.157  1.00  0.00     0.263 C 
HETATM    6  O   UNL     1     -46.842  57.488 -58.092  1.00  0.00    -0.271 OA
HETATM    7  C   UNL     1     -44.804  57.753 -59.279  1.00  0.00     0.141 C 
HETATM    8  H   UNL     1     -42.245  58.929 -57.486  1.00  0.00     0.178 HD
ENDROOT
BRANCH   3   9
HETATM    9  N   UNL     1     -43.756  60.376 -56.315  1.00  0.00    -0.213 N 
HETATM   10  C   UNL     1     -42.528  60.094 -55.534  1.00  0.00     0.169 C 
HETATM   11  C   UNL     1     -42.852  59.313 -54.241  1.00  0.00     0.256 C 
HETATM   12  N   UNL     1     -43.852  60.115 -53.405  1.00  0.00    -0.056 N 
HETATM   13  H   UNL     1     -43.483  61.061 -53.282  1.00  0.00     0.281 HD
HETATM   14  C   UNL     1     -45.138  60.293 -54.217  1.00  0.00     0.256 C 
HETATM   15  C   UNL     1     -44.807  61.056 -55.518  1.00  0.00     0.169 C 
BRANCH  12  16
HETATM   16  C   UNL     1     -44.091  59.601 -51.988  1.00  0.00     0.254 C 
BRANCH  16  17
HETATM   17  C   UNL     1     -43.228  58.401 -51.616  1.00  0.00    -0.023 A 
HETATM   18  C   UNL     1     -43.696  57.081 -51.752  1.00  0.00     0.009 A 
HETATM   19  C   UNL     1     -42.889  56.000 -51.395  1.00  0.00     0.001 A 
HETATM   20  C   UNL     1     -41.606  56.218 -50.901  1.00  0.00     0.000 A 
HETATM   21  C   UNL     1     -41.124  57.517 -50.764  1.00  0.00     0.001 A 
HETATM   22  C   UNL     1     -41.928  58.602 -51.118  1.00  0.00     0.009 A 
ENDBRANCH  16  17
BRANCH  16  23
HETATM   23  C   UNL     1     -44.148  60.695 -50.910  1.00  0.00    -0.023 A 
HETATM   24  C   UNL     1     -43.385  61.878 -50.940  1.00  0.00     0.009 A 
HETATM   25  C   UNL     1     -43.518  62.845 -49.937  1.00  0.00     0.001 A 
HETATM   26  C   UNL     1     -44.410  62.653 -48.888  1.00  0.00     0.000 A 
HETATM   27  C   UNL     1     -45.176  61.495 -48.835  1.00  0.00     0.001 A 
HETATM   28  C   UNL     1     -45.051  60.530 -49.837  1.00  0.00     0.009 A 
ENDBRANCH  16  23
ENDBRANCH  12  16
ENDBRANCH   3   9
BRANCH   1  29
HETATM   29  C   UNL     1     -43.183  56.382 -57.894  1.00  0.00     0.246 C 
HETATM   30  N   UNL     1     -42.650  56.634 -56.638  1.00  0.00    -0.325 N 
HETATM   31  H   UNL     1     -42.548  57.605 -56.360  1.00  0.00     0.169 HD
HETATM   32  O   UNL     1     -43.487  55.283 -58.353  1.00  0.00    -0.271 OA
BRANCH  30  33
HETATM   33  C   UNL     1     -42.209  55.702 -55.676  1.00  0.00     0.034 A 
HETATM   34  C   UNL     1     -42.885  54.527 -55.351  1.00  0.00     0.030 A 
HETATM   35  C   UNL     1     -42.335  53.627 -54.426  1.00  0.00     0.020 A 
HETATM   36  C   UNL     1     -41.102  53.891 -53.816  1.00  0.00     0.039 A 
HETATM   37  C   UNL     1     -40.436  55.082 -54.120  1.00  0.00     0.020 A 
HETATM   38  C   UNL     1     -40.988  55.979 -55.042  1.00  0.00     0.030 A 
BRANCH  36  39
HETATM   39  C   UNL     1     -40.534  52.875 -52.889  1.00  0.00     0.293 C 
HETATM   40  O   UNL     1     -40.881  52.761 -51.725  1.00  0.00    -0.259 OA
BRANCH  39  41
HETATM   41  O   UNL     1     -39.634  52.095 -53.538  1.00  0.00    -0.318 OA
BRANCH  41  42
HETATM   42  C   UNL     1     -39.693  50.690 -53.250  1.00  0.00     0.174 C 
HETATM   43  C   UNL     1     -39.845  49.893 -54.531  1.00  0.00     0.034 C 
ENDBRANCH  41  42
ENDBRANCH  39  41
ENDBRANCH  36  39
ENDBRANCH  30  33
ENDBRANCH   1  29
TORSDOF 9
ENDMDL
MODEL 4
REMARK VINA RESULT:      -8.9      2.170      6.369
REMARK  9 active torsions:
REMARK  status: ('A' for Active; 'I' for Inactive)
REMARK    1  A    between atoms: C_2  and  O_3 
REMARK    2  A    between atoms: O_3  and  C_4 
REMARK    3  A    between atoms: C_4  and  C_5 
REMARK    4  A    between atoms: C_8  and  N_9 
REMARK       I    between atoms: N_9  and  C_10 
REMARK    5  A    between atoms: C_10  and  C_11 
REMARK    6  A    between atoms: C_13  and  N_14 
REMARK    7  A    between atoms: N_17  and  C_19 
REMARK    8  A    between atoms: C_19  and  C_20 
REMARK    9  A    between atoms: C_19  and  C_26 
ROOT
HETATM    1  C   UNL     1     -43.985  57.896 -58.486  1.00  0.00     0.200 C 
HETATM    2  N   UNL     1     -43.451  59.084 -57.838  1.00  0.00    -0.211 N 
HETATM    3  C   UNL     1     -44.110  59.619 -56.782  1.00  0.00     0.702 C 
HETATM    4  N   UNL     1     -45.304  59.314 -56.408  1.00  0.00    -0.028 NA
HETATM    5  C   UNL     1     -45.953  58.307 -57.084  1.00  0.00     0.263 C 
HETATM    6  O   UNL     1     -46.931  57.739 -56.608  1.00  0.00    -0.271 OA
HETATM    7  C   UNL     1     -45.497  57.977 -58.484  1.00  0.00     0.141 C 
HETATM    8  H   UNL     1     -42.440  59.141 -57.811  1.00  0.00     0.178 HD
ENDROOT
BRANCH   3   9
HETATM    9  N   UNL     1     -43.383  60.610 -56.167  1.00  0.00    -0.213 N 
HETATM   10  C   UNL     1     -41.997  60.267 -55.769  1.00  0.00     0.169 C 
HETATM   11  C   UNL     1     -41.964  59.577 -54.387  1.00  0.00     0.256 C 
HETATM   12  N   UNL     1     -42.613  60.496 -53.349  1.00  0.00    -0.056 N 
HETATM   13  H   UNL     1     -42.166  61.414 -53.408  1.00  0.00     0.281 HD
HETATM   14  C   UNL     1     -44.070  60.739 -53.753  1.00  0.00     0.256 C 
HETATM   15  C   UNL     1     -44.100  61.409 -55.143  1.00  0.00     0.169 C 
BRANCH  12  16
HETATM   16  C   UNL     1     -42.445  60.071 -51.893  1.00  0.00     0.254 C 
BRANCH  16  17
HETATM   17  C   UNL     1     -43.188  60.961 -50.904  1.00  0.00    -0.023 A 
HETATM   18  C   UNL     1     -44.262  60.480 -50.134  1.00  0.00     0.009 A 
HETATM   19  C   UNL     1     -44.931  61.319 -49.243  1.00  0.00     0.001 A 
HETATM   20  C   UNL     1     -44.539  62.648 -49.105  1.00  0.00     0.000 A 
HETATM   21  C   UNL     1     -43.476  63.141 -49.855  1.00  0.00     0.001 A 
HETATM   22  C   UNL     1     -42.804  62.306 -50.749  1.00  0.00     0.009 A 
ENDBRANCH  16  17
BRANCH  16  23
HETATM   23  C   UNL     1     -42.621  58.565 -51.640  1.00  0.00    -0.023 A 
HETATM   24  C   UNL     1     -43.730  57.812 -52.070  1.00  0.00     0.009 A 
HETATM   25  C   UNL     1     -43.801  56.435 -51.832  1.00  0.00     0.001 A 
HETATM   26  C   UNL     1     -42.772  55.783 -51.162  1.00  0.00     0.000 A 
HETATM   27  C   UNL     1     -41.665  56.502 -50.729  1.00  0.00     0.001 A 
HETATM   28  C   UNL     1     -41.587  57.876 -50.970  1.00  0.00     0.009 A 
ENDBRANCH  16  23
ENDBRANCH  12  16
ENDBRANCH   3   9
BRANCH   1  29
HETATM   29  C   UNL     1     -43.479  56.601 -57.807  1.00  0.00     0.246 C 
HETATM   30  N   UNL     1     -43.175  56.795 -56.467  1.00  0.00    -0.325 N 
HETATM   31  H   UNL     1     -43.391  57.702 -56.066  1.00  0.00     0.169 HD
HETATM   32  O   UNL     1     -43.399  55.543 -58.429  1.00  0.00    -0.271 OA
BRANCH  30  33
HETATM   33  C   UNL     1     -42.584  55.885 -55.567  1.00  0.00     0.034 A 
HETATM   34  C   UNL     1     -43.171  54.688 -55.157  1.00  0.00     0.030 A 
HETATM   35  C   UNL     1     -42.476  53.815 -54.308  1.00  0.00     0.020 A 
HETATM   36  C   UNL     1     -41.187  54.125 -53.860  1.00  0.00     0.039 A 
HETATM   37  C   UNL     1     -40.608  55.337 -54.247  1.00  0.00     0.020 A 
HETATM   38  C   UNL     1     -41.303  56.208 -55.093  1.00  0.00     0.030 A 
BRANCH  36  39
HETATM   39  C   UNL     1     -40.470  53.135 -53.010  1.00  0.00     0.293 C 
HETATM   40  O   UNL     1     -40.600  53.072 -51.799  1.00  0.00    -0.259 OA
BRANCH  39  41
HETATM   41  O   UNL     1     -39.711  52.316 -53.779  1.00  0.00    -0.318 OA
BRANCH  41  42
HETATM   42  C   UNL     1     -39.592  50.959 -53.328  1.00  0.00     0.174 C 
HETATM   43  C   UNL     1     -40.100  50.002 -54.388  1.00  0.00     0.034 C 
ENDBRANCH  41  42
ENDBRANCH  39  41
ENDBRANCH  36  39
ENDBRANCH  30  33
ENDBRANCH   1  29
TORSDOF 9
ENDMDL
MODEL 5
REMARK VINA RESULT:      -8.5      2.034      4.025
REMARK  9 active torsions:
REMARK  status: ('A' for Active; 'I' for Inactive)
REMARK    1  A    between atoms: C_2  and  O_3 
REMARK    2  A    between atoms: O_3  and  C_4 
REMARK    3  A    between atoms: C_4  and  C_5 
REMARK    4  A    between atoms: C_8  and  N_9 
REMARK       I    between atoms: N_9  and  C_10 
REMARK    5  A    between atoms: C_10  and  C_11 
REMARK    6  A    between atoms: C_13  and  N_14 
REMARK    7  A    between atoms: N_17  and  C_19 
REMARK    8  A    between atoms: C_19  and  C_20 
REMARK    9  A    between atoms: C_19  and  C_26 
ROOT
HETATM    1  C   UNL     1     -42.948  58.700 -51.766  1.00  0.00     0.200 C 
HETATM    2  N   UNL     1     -43.656  59.580 -52.683  1.00  0.00    -0.211 N 
HETATM    3  C   UNL     1     -42.989  60.130 -53.725  1.00  0.00     0.702 C 
HETATM    4  N   UNL     1     -41.710  60.135 -53.882  1.00  0.00    -0.028 NA
HETATM    5  C   UNL     1     -40.947  59.463 -52.956  1.00  0.00     0.263 C 
HETATM    6  O   UNL     1     -39.786  59.142 -53.191  1.00  0.00    -0.271 OA
HETATM    7  C   UNL     1     -41.536  59.214 -51.590  1.00  0.00     0.141 C 
HETATM    8  H   UNL     1     -44.626  59.338 -52.849  1.00  0.00     0.178 HD
ENDROOT
BRANCH   3   9
HETATM    9  N   UNL     1     -43.834  60.772 -54.600  1.00  0.00    -0.213 N 
HETATM   10  C   UNL     1     -45.249  60.330 -54.601  1.00  0.00     0.169 C 
HETATM   11  C   UNL     1     -45.453  59.106 -55.520  1.00  0.00     0.256 C 
HETATM   12  N   UNL     1     -44.995  59.457 -56.938  1.00  0.00    -0.056 N 
HETATM   13  H   UNL     1     -45.463  60.321 -57.223  1.00  0.00     0.281 HD
HETATM   14  C   UNL     1     -43.506  59.809 -56.898  1.00  0.00     0.256 C 
HETATM   15  C   UNL     1     -43.302  61.020 -55.962  1.00  0.00     0.169 C 
BRANCH  12  16
HETATM   16  C   UNL     1     -45.354  58.442 -58.019  1.00  0.00     0.254 C 
BRANCH  16  17
HETATM   17  C   UNL     1     -46.453  58.914 -58.963  1.00  0.00    -0.023 A 
HETATM   18  C   UNL     1     -47.260  60.026 -58.665  1.00  0.00     0.009 A 
HETATM   19  C   UNL     1     -48.267  60.432 -59.542  1.00  0.00     0.001 A 
HETATM   20  C   UNL     1     -48.482  59.736 -60.729  1.00  0.00     0.000 A 
HETATM   21  C   UNL     1     -47.691  58.636 -61.043  1.00  0.00     0.001 A 
HETATM   22  C   UNL     1     -46.683  58.225 -60.169  1.00  0.00     0.009 A 
ENDBRANCH  16  17
BRANCH  16  23
HETATM   23  C   UNL     1     -44.147  57.803 -58.726  1.00  0.00    -0.023 A 
HETATM   24  C   UNL     1     -43.755  56.461 -58.566  1.00  0.00     0.009 A 
HETATM   25  C   UNL     1     -42.663  55.941 -59.272  1.00  0.00     0.001 A 
HETATM   26  C   UNL     1     -41.943  56.748 -60.146  1.00  0.00     0.000 A 
HETATM   27  C   UNL     1     -42.310  58.076 -60.323  1.00  0.00     0.001 A 
HETATM   28  C   UNL     1     -43.403  58.597 -59.625  1.00  0.00     0.009 A 
ENDBRANCH  16  23
ENDBRANCH  12  16
ENDBRANCH   3   9
BRANCH   1  29
HETATM   29  C   UNL     1     -42.968  57.232 -52.255  1.00  0.00     0.246 C 
HETATM   30  N   UNL     1     -41.734  56.615 -52.111  1.00  0.00    -0.325 N 
HETATM   31  H   UNL     1     -41.003  57.136 -51.639  1.00  0.00     0.169 HD
HETATM   32  O   UNL     1     -43.998  56.719 -52.689  1.00  0.00    -0.271 OA
BRANCH  30  33
HETATM   33  C   UNL     1     -41.345  55.333 -52.551  1.00  0.00     0.034 A 
HETATM   34  C   UNL     1     -41.064  55.007 -53.877  1.00  0.00     0.030 A 
HETATM   35  C   UNL     1     -40.621  53.718 -54.209  1.00  0.00     0.020 A 
HETATM   36  C   UNL     1     -40.451  52.741 -53.220  1.00  0.00     0.039 A 
HETATM   37  C   UNL     1     -40.759  53.058 -51.894  1.00  0.00     0.020 A 
HETATM   38  C   UNL     1     -41.202  54.344 -51.565  1.00  0.00     0.030 A 
BRANCH  36  39
HETATM   39  C   UNL     1     -39.920  51.409 -53.618  1.00  0.00     0.293 C 
HETATM   40  O   UNL     1     -40.147  50.892 -54.700  1.00  0.00    -0.259 OA
BRANCH  39  41
HETATM   41  O   UNL     1     -39.134  50.902 -52.636  1.00  0.00    -0.318 OA
BRANCH  41  42
HETATM   42  C   UNL     1     -39.529  49.627 -52.107  1.00  0.00     0.174 C 
HETATM   43  C   UNL     1     -39.841  49.741 -50.628  1.00  0.00     0.034 C 
ENDBRANCH  41  42
ENDBRANCH  39  41
ENDBRANCH  36  39
ENDBRANCH  30  33
ENDBRANCH   1  29
TORSDOF 9
ENDMDL
MODEL 6
REMARK VINA RESULT:      -8.5      1.496      2.000
REMARK  9 active torsions:
REMARK  status: ('A' for Active; 'I' for Inactive)
REMARK    1  A    between atoms: C_2  and  O_3 
REMARK    2  A    between atoms: O_3  and  C_4 
REMARK    3  A    between atoms: C_4  and  C_5 
REMARK    4  A    between atoms: C_8  and  N_9 
REMARK       I    between atoms: N_9  and  C_10 
REMARK    5  A    between atoms: C_10  and  C_11 
REMARK    6  A    between atoms: C_13  and  N_14 
REMARK    7  A    between atoms: N_17  and  C_19 
REMARK    8  A    between atoms: C_19  and  C_20 
REMARK    9  A    between atoms: C_19  and  C_26 
ROOT
HETATM    1  C   UNL     1     -45.787  59.323 -52.451  1.00  0.00     0.200 C 
HETATM    2  N   UNL     1     -44.906  59.655 -53.561  1.00  0.00    -0.211 N 
HETATM    3  C   UNL     1     -44.131  60.763 -53.485  1.00  0.00     0.702 C 
HETATM    4  N   UNL     1     -44.242  61.701 -52.610  1.00  0.00    -0.028 NA
HETATM    5  C   UNL     1     -45.178  61.544 -51.615  1.00  0.00     0.263 C 
HETATM    6  O   UNL     1     -45.134  62.204 -50.581  1.00  0.00    -0.271 OA
HETATM    7  C   UNL     1     -46.333  60.605 -51.861  1.00  0.00     0.141 C 
HETATM    8  H   UNL     1     -44.507  58.861 -54.046  1.00  0.00     0.178 HD
ENDROOT
BRANCH   3   9
HETATM    9  N   UNL     1     -43.224  60.830 -54.517  1.00  0.00    -0.213 N 
HETATM   10  C   UNL     1     -43.755  60.614 -55.883  1.00  0.00     0.169 C 
HETATM   11  C   UNL     1     -43.824  59.109 -56.227  1.00  0.00     0.256 C 
HETATM   12  N   UNL     1     -42.429  58.495 -56.085  1.00  0.00    -0.056 N 
HETATM   13  H   UNL     1     -41.773  59.056 -56.634  1.00  0.00     0.281 HD
HETATM   14  C   UNL     1     -41.968  58.656 -54.634  1.00  0.00     0.256 C 
HETATM   15  C   UNL     1     -41.921  60.160 -54.287  1.00  0.00     0.169 C 
BRANCH  12  16
HETATM   16  C   UNL     1     -42.275  57.074 -56.621  1.00  0.00     0.254 C 
BRANCH  16  17
HETATM   17  C   UNL     1     -42.260  56.007 -55.534  1.00  0.00    -0.023 A 
HETATM   18  C   UNL     1     -41.058  55.533 -54.976  1.00  0.00     0.009 A 
HETATM   19  C   UNL     1     -41.072  54.547 -53.989  1.00  0.00     0.001 A 
HETATM   20  C   UNL     1     -42.282  54.021 -53.542  1.00  0.00     0.000 A 
HETATM   21  C   UNL     1     -43.480  54.481 -54.078  1.00  0.00     0.001 A 
HETATM   22  C   UNL     1     -43.472  55.466 -55.067  1.00  0.00     0.009 A 
ENDBRANCH  16  17
BRANCH  16  23
HETATM   23  C   UNL     1     -43.175  56.740 -57.821  1.00  0.00    -0.023 A 
HETATM   24  C   UNL     1     -42.915  55.710 -58.744  1.00  0.00     0.009 A 
HETATM   25  C   UNL     1     -43.802  55.443 -59.793  1.00  0.00     0.001 A 
HETATM   26  C   UNL     1     -44.961  56.196 -59.944  1.00  0.00     0.000 A 
HETATM   27  C   UNL     1     -45.242  57.218 -59.045  1.00  0.00     0.001 A 
HETATM   28  C   UNL     1     -44.363  57.484 -57.993  1.00  0.00     0.009 A 
ENDBRANCH  16  23
ENDBRANCH  12  16
ENDBRANCH   3   9
BRANCH   1  29
HETATM   29  C   UNL     1     -45.063  58.463 -51.388  1.00  0.00     0.246 C 
HETATM   30  N   UNL     1     -43.923  57.854 -51.894  1.00  0.00    -0.325 N 
HETATM   31  H   UNL     1     -43.645  58.095 -52.839  1.00  0.00     0.169 HD
HETATM   32  O   UNL     1     -45.483  58.387 -50.235  1.00  0.00    -0.271 OA
BRANCH  30  33
HETATM   33  C   UNL     1     -43.083  56.915 -51.260  1.00  0.00     0.034 A 
HETATM   34  C   UNL     1     -41.711  57.081 -51.081  1.00  0.00     0.030 A 
HETATM   35  C   UNL     1     -40.968  56.119 -50.379  1.00  0.00     0.020 A 
HETATM   36  C   UNL     1     -41.589  54.983 -49.846  1.00  0.00     0.039 A 
HETATM   37  C   UNL     1     -42.961  54.802 -50.049  1.00  0.00     0.020 A 
HETATM   38  C   UNL     1     -43.699  55.762 -50.751  1.00  0.00     0.030 A 
BRANCH  36  39
HETATM   39  C   UNL     1     -40.767  54.025 -49.058  1.00  0.00     0.293 C 
HETATM   40  O   UNL     1     -40.918  53.838 -47.862  1.00  0.00    -0.259 OA
BRANCH  39  41
HETATM   41  O   UNL     1     -39.886  53.384 -49.865  1.00  0.00    -0.318 OA
BRANCH  41  42
HETATM   42  C   UNL     1     -40.374  52.203 -50.520  1.00  0.00     0.174 C 
HETATM   43  C   UNL     1     -39.548  51.903 -51.755  1.00  0.00     0.034 C 
ENDBRANCH  41  42
ENDBRANCH  39  41
ENDBRANCH  36  39
ENDBRANCH  30  33
ENDBRANCH   1  29
TORSDOF 9
ENDMDL
MODEL 7
REMARK VINA RESULT:      -8.4      3.857      7.322
REMARK  9 active torsions:
REMARK  status: ('A' for Active; 'I' for Inactive)
REMARK    1  A    between atoms: C_2  and  O_3 
REMARK    2  A    between atoms: O_3  and  C_4 
REMARK    3  A    between atoms: C_4  and  C_5 
REMARK    4  A    between atoms: C_8  and  N_9 
REMARK       I    between atoms: N_9  and  C_10 
REMARK    5  A    between atoms: C_10  and  C_11 
REMARK    6  A    between atoms: C_13  and  N_14 
REMARK    7  A    between atoms: N_17  and  C_19 
REMARK    8  A    between atoms: C_19  and  C_20 
REMARK    9  A    between atoms: C_19  and  C_26 
ROOT
HETATM    1  C   UNL     1     -45.914  59.896 -51.785  1.00  0.00     0.200 C 
HETATM    2  N   UNL     1     -44.972  58.863 -51.383  1.00  0.00    -0.211 N 
HETATM    3  C   UNL     1     -43.650  59.040 -51.619  1.00  0.00     0.702 C 
HETATM    4  N   UNL     1     -43.135  59.948 -52.373  1.00  0.00    -0.028 NA
HETATM    5  C   UNL     1     -43.984  60.873 -52.937  1.00  0.00     0.263 C 
HETATM    6  O   UNL     1     -43.569  61.936 -53.387  1.00  0.00    -0.271 OA
HETATM    7  C   UNL     1     -45.440  60.508 -53.086  1.00  0.00     0.141 C 
HETATM    8  H   UNL     1     -45.213  58.368 -50.533  1.00  0.00     0.178 HD
ENDROOT
BRANCH   3   9
HETATM    9  N   UNL     1     -42.883  58.074 -51.012  1.00  0.00    -0.213 N 
HETATM   10  C   UNL     1     -41.419  58.152 -51.235  1.00  0.00     0.169 C 
HETATM   11  C   UNL     1     -41.014  57.449 -52.550  1.00  0.00     0.256 C 
HETATM   12  N   UNL     1     -41.478  55.992 -52.507  1.00  0.00    -0.056 N 
HETATM   13  H   UNL     1     -41.132  55.569 -51.642  1.00  0.00     0.281 HD
HETATM   14  C   UNL     1     -43.003  55.967 -52.376  1.00  0.00     0.256 C 
HETATM   15  C   UNL     1     -43.406  56.688 -51.071  1.00  0.00     0.169 C 
BRANCH  12  16
HETATM   16  C   UNL     1     -40.946  55.095 -53.621  1.00  0.00     0.254 C 
BRANCH  16  17
HETATM   17  C   UNL     1     -40.466  53.733 -53.137  1.00  0.00    -0.023 A 
HETATM   18  C   UNL     1     -40.404  53.412 -51.769  1.00  0.00     0.009 A 
HETATM   19  C   UNL     1     -39.951  52.160 -51.351  1.00  0.00     0.001 A 
HETATM   20  C   UNL     1     -39.556  51.210 -52.289  1.00  0.00     0.000 A 
HETATM   21  C   UNL     1     -39.615  51.508 -53.647  1.00  0.00     0.001 A 
HETATM   22  C   UNL     1     -40.066  52.759 -54.071  1.00  0.00     0.009 A 
ENDBRANCH  16  17
BRANCH  16  23
HETATM   23  C   UNL     1     -41.828  55.043 -54.879  1.00  0.00    -0.023 A 
HETATM   24  C   UNL     1     -42.732  54.004 -55.170  1.00  0.00     0.009 A 
HETATM   25  C   UNL     1     -43.529  54.044 -56.320  1.00  0.00     0.001 A 
HETATM   26  C   UNL     1     -43.439  55.117 -57.201  1.00  0.00     0.000 A 
HETATM   27  C   UNL     1     -42.556  56.156 -56.936  1.00  0.00     0.001 A 
HETATM   28  C   UNL     1     -41.764  56.123 -55.785  1.00  0.00     0.009 A 
ENDBRANCH  16  23
ENDBRANCH  12  16
ENDBRANCH   3   9
BRANCH   1  29
HETATM   29  C   UNL     1     -46.095  60.963 -50.680  1.00  0.00     0.246 C 
HETATM   30  N   UNL     1     -45.412  60.635 -49.517  1.00  0.00    -0.325 N 
HETATM   31  H   UNL     1     -44.819  59.811 -49.541  1.00  0.00     0.169 HD
HETATM   32  O   UNL     1     -46.759  61.979 -50.876  1.00  0.00    -0.271 OA
BRANCH  30  33
HETATM   33  C   UNL     1     -45.438  61.300 -48.275  1.00  0.00     0.034 A 
HETATM   34  C   UNL     1     -45.787  60.699 -47.066  1.00  0.00     0.030 A 
HETATM   35  C   UNL     1     -45.720  61.427 -45.869  1.00  0.00     0.020 A 
HETATM   36  C   UNL     1     -45.302  62.763 -45.865  1.00  0.00     0.039 A 
HETATM   37  C   UNL     1     -44.977  63.376 -47.079  1.00  0.00     0.020 A 
HETATM   38  C   UNL     1     -45.046  62.648 -48.273  1.00  0.00     0.030 A 
BRANCH  36  39
HETATM   39  C   UNL     1     -45.190  63.471 -44.561  1.00  0.00     0.293 C 
HETATM   40  O   UNL     1     -46.018  64.272 -44.159  1.00  0.00    -0.259 OA
BRANCH  39  41
HETATM   41  O   UNL     1     -44.081  63.063 -43.896  1.00  0.00    -0.318 OA
BRANCH  41  42
HETATM   42  C   UNL     1     -44.189  63.004 -42.466  1.00  0.00     0.174 C 
HETATM   43  C   UNL     1     -43.193  63.949 -41.821  1.00  0.00     0.034 C 
ENDBRANCH  41  42
ENDBRANCH  39  41
ENDBRANCH  36  39
ENDBRANCH  30  33
ENDBRANCH   1  29
TORSDOF 9
ENDMDL
MODEL 8
REMARK VINA RESULT:      -8.3      2.954      7.537
REMARK  9 active torsions:
REMARK  status: ('A' for Active; 'I' for Inactive)
REMARK    1  A    between atoms: C_2  and  O_3 
REMARK    2  A    between atoms: O_3  and  C_4 
REMARK    3  A    between atoms: C_4  and  C_5 
REMARK    4  A    between atoms: C_8  and  N_9 
REMARK       I    between atoms: N_9  and  C_10 
REMARK    5  A    between atoms: C_10  and  C_11 
REMARK    6  A    between atoms: C_13  and  N_14 
REMARK    7  A    between atoms: N_17  and  C_19 
REMARK    8  A    between atoms: C_19  and  C_20 
REMARK    9  A    between atoms: C_19  and  C_26 
ROOT
HETATM    1  C   UNL     1     -45.021  58.775 -55.248  1.00  0.00     0.200 C 
HETATM    2  N   UNL     1     -44.727  57.377 -55.520  1.00  0.00    -0.211 N 
HETATM    3  C   UNL     1     -43.436  56.973 -55.601  1.00  0.00     0.702 C 
HETATM    4  N   UNL     1     -42.409  57.745 -55.679  1.00  0.00    -0.028 NA
HETATM    5  C   UNL     1     -42.618  59.103 -55.601  1.00  0.00     0.263 C 
HETATM    6  O   UNL     1     -41.705  59.880 -55.342  1.00  0.00    -0.271 OA
HETATM    7  C   UNL     1     -43.987  59.635 -55.943  1.00  0.00     0.141 C 
HETATM    8  H   UNL     1     -45.380  56.714 -55.120  1.00  0.00     0.178 HD
ENDROOT
BRANCH   3   9
HETATM    9  N   UNL     1     -43.326  55.604 -55.668  1.00  0.00    -0.213 N 
HETATM   10  C   UNL     1     -43.844  54.839 -54.508  1.00  0.00     0.169 C 
HETATM   11  C   UNL     1     -42.784  54.730 -53.389  1.00  0.00     0.256 C 
HETATM   12  N   UNL     1     -41.522  54.072 -53.952  1.00  0.00    -0.056 N 
HETATM   13  H   UNL     1     -41.792  53.196 -54.408  1.00  0.00     0.281 HD
HETATM   14  C   UNL     1     -40.972  54.950 -55.079  1.00  0.00     0.256 C 
HETATM   15  C   UNL     1     -42.042  55.074 -56.186  1.00  0.00     0.169 C 
BRANCH  12  16
HETATM   16  C   UNL     1     -40.470  53.670 -52.922  1.00  0.00     0.254 C 
BRANCH  16  17
HETATM   17  C   UNL     1     -40.712  54.256 -51.536  1.00  0.00    -0.023 A 
HETATM   18  C   UNL     1     -40.779  55.645 -51.320  1.00  0.00     0.009 A 
HETATM   19  C   UNL     1     -40.992  56.156 -50.040  1.00  0.00     0.001 A 
HETATM   20  C   UNL     1     -41.143  55.293 -48.958  1.00  0.00     0.000 A 
HETATM   21  C   UNL     1     -41.086  53.916 -49.153  1.00  0.00     0.001 A 
HETATM   22  C   UNL     1     -40.872  53.399 -50.432  1.00  0.00     0.009 A 
ENDBRANCH  16  17
BRANCH  16  23
HETATM   23  C   UNL     1     -40.112  52.175 -52.921  1.00  0.00    -0.023 A 
HETATM   24  C   UNL     1     -39.641  51.474 -51.794  1.00  0.00     0.009 A 
HETATM   25  C   UNL     1     -39.370  50.103 -51.862  1.00  0.00     0.001 A 
HETATM   26  C   UNL     1     -39.559  49.406 -53.051  1.00  0.00     0.000 A 
HETATM   27  C   UNL     1     -40.025  50.074 -54.177  1.00  0.00     0.001 A 
HETATM   28  C   UNL     1     -40.303  51.441 -54.111  1.00  0.00     0.009 A 
ENDBRANCH  16  23
ENDBRANCH  12  16
ENDBRANCH   3   9
BRANCH   1  29
HETATM   29  C   UNL     1     -45.078  59.060 -53.728  1.00  0.00     0.246 C 
HETATM   30  N   UNL     1     -45.371  60.389 -53.455  1.00  0.00    -0.325 N 
HETATM   31  H   UNL     1     -45.596  60.989 -54.241  1.00  0.00     0.169 HD
HETATM   32  O   UNL     1     -44.899  58.166 -52.904  1.00  0.00    -0.271 OA
BRANCH  30  33
HETATM   33  C   UNL     1     -45.390  61.036 -52.202  1.00  0.00     0.034 A 
HETATM   34  C   UNL     1     -46.551  61.383 -51.512  1.00  0.00     0.030 A 
HETATM   35  C   UNL     1     -46.469  61.967 -50.239  1.00  0.00     0.020 A 
HETATM   36  C   UNL     1     -45.227  62.209 -49.641  1.00  0.00     0.039 A 
HETATM   37  C   UNL     1     -44.061  61.888 -50.343  1.00  0.00     0.020 A 
HETATM   38  C   UNL     1     -44.146  61.307 -51.613  1.00  0.00     0.030 A 
BRANCH  36  39
HETATM   39  C   UNL     1     -45.197  62.774 -48.264  1.00  0.00     0.293 C 
HETATM   40  O   UNL     1     -45.866  63.734 -47.918  1.00  0.00    -0.259 OA
BRANCH  39  41
HETATM   41  O   UNL     1     -44.369  62.047 -47.474  1.00  0.00    -0.318 OA
BRANCH  41  42
HETATM   42  C   UNL     1     -44.987  61.003 -46.705  1.00  0.00     0.174 C 
HETATM   43  C   UNL     1     -44.843  61.282 -45.222  1.00  0.00     0.034 C 
ENDBRANCH  41  42
ENDBRANCH  39  41
ENDBRANCH  36  39
ENDBRANCH  30  33
ENDBRANCH   1  29
TORSDOF 9
ENDMDL
MODEL 9
REMARK VINA RESULT:      -8.3      3.346      6.924
REMARK  9 active torsions:
REMARK  status: ('A' for Active; 'I' for Inactive)
REMARK    1  A    between atoms: C_2  and  O_3 
REMARK    2  A    between atoms: O_3  and  C_4 
REMARK    3  A    between atoms: C_4  and  C_5 
REMARK    4  A    between atoms: C_8  and  N_9 
REMARK       I    between atoms: N_9  and  C_10 
REMARK    5  A    between atoms: C_10  and  C_11 
REMARK    6  A    between atoms: C_13  and  N_14 
REMARK    7  A    between atoms: N_17  and  C_19 
REMARK    8  A    between atoms: C_19  and  C_20 
REMARK    9  A    between atoms: C_19  and  C_26 
ROOT
HETATM    1  C   UNL     1     -45.683  61.238 -56.117  1.00  0.00     0.200 C 
HETATM    2  N   UNL     1     -45.674  59.785 -56.196  1.00  0.00    -0.211 N 
HETATM    3  C   UNL     1     -44.518  59.143 -56.491  1.00  0.00     0.702 C 
HETATM    4  N   UNL     1     -43.442  59.695 -56.933  1.00  0.00    -0.028 NA
HETATM    5  C   UNL     1     -43.425  61.066 -57.051  1.00  0.00     0.263 C 
HETATM    6  O   UNL     1     -42.372  61.690 -57.145  1.00  0.00    -0.271 OA
HETATM    7  C   UNL     1     -44.743  61.789 -57.167  1.00  0.00     0.141 C 
HETATM    8  H   UNL     1     -46.295  59.315 -55.549  1.00  0.00     0.178 HD
ENDROOT
BRANCH   3   9
HETATM    9  N   UNL     1     -44.629  57.781 -56.337  1.00  0.00    -0.213 N 
HETATM   10  C   UNL     1     -45.418  57.306 -55.175  1.00  0.00     0.169 C 
HETATM   11  C   UNL     1     -44.550  57.240 -53.898  1.00  0.00     0.256 C 
HETATM   12  N   UNL     1     -43.351  56.322 -54.150  1.00  0.00    -0.056 N 
HETATM   13  H   UNL     1     -43.699  55.429 -54.508  1.00  0.00     0.281 HD
HETATM   14  C   UNL     1     -42.517  56.909 -55.291  1.00  0.00     0.256 C 
HETATM   15  C   UNL     1     -43.392  56.993 -56.560  1.00  0.00     0.169 C 
BRANCH  12  16
HETATM   16  C   UNL     1     -42.529  55.956 -52.918  1.00  0.00     0.254 C 
BRANCH  16  17
HETATM   17  C   UNL     1     -41.715  54.678 -53.081  1.00  0.00    -0.023 A 
HETATM   18  C   UNL     1     -41.724  53.940 -54.279  1.00  0.00     0.009 A 
HETATM   19  C   UNL     1     -40.978  52.768 -54.398  1.00  0.00     0.001 A 
HETATM   20  C   UNL     1     -40.211  52.315 -53.328  1.00  0.00     0.000 A 
HETATM   21  C   UNL     1     -40.185  53.033 -52.137  1.00  0.00     0.001 A 
HETATM   22  C   UNL     1     -40.931  54.206 -52.011  1.00  0.00     0.009 A 
ENDBRANCH  16  17
BRANCH  16  23
HETATM   23  C   UNL     1     -41.749  57.125 -52.296  1.00  0.00    -0.023 A 
HETATM   24  C   UNL     1     -41.902  57.563 -50.967  1.00  0.00     0.009 A 
HETATM   25  C   UNL     1     -41.128  58.614 -50.462  1.00  0.00     0.001 A 
HETATM   26  C   UNL     1     -40.192  59.250 -51.269  1.00  0.00     0.000 A 
HETATM   27  C   UNL     1     -40.020  58.836 -52.585  1.00  0.00     0.001 A 
HETATM   28  C   UNL     1     -40.785  57.783 -53.091  1.00  0.00     0.009 A 
ENDBRANCH  16  23
ENDBRANCH  12  16
ENDBRANCH   3   9
BRANCH   1  29
HETATM   29  C   UNL     1     -45.315  61.733 -54.698  1.00  0.00     0.246 C 
HETATM   30  N   UNL     1     -45.658  60.814 -53.717  1.00  0.00    -0.325 N 
HETATM   31  H   UNL     1     -46.017  59.916 -54.023  1.00  0.00     0.169 HD
HETATM   32  O   UNL     1     -44.760  62.816 -54.525  1.00  0.00    -0.271 OA
BRANCH  30  33
HETATM   33  C   UNL     1     -45.584  60.966 -52.317  1.00  0.00     0.034 A 
HETATM   34  C   UNL     1     -46.448  61.760 -51.564  1.00  0.00     0.030 A 
HETATM   35  C   UNL     1     -46.336  61.798 -50.166  1.00  0.00     0.020 A 
HETATM   36  C   UNL     1     -45.361  61.041 -49.505  1.00  0.00     0.039 A 
HETATM   37  C   UNL     1     -44.476  60.266 -50.260  1.00  0.00     0.020 A 
HETATM   38  C   UNL     1     -44.589  60.232 -51.654  1.00  0.00     0.030 A 
BRANCH  36  39
HETATM   39  C   UNL     1     -45.325  61.070 -48.017  1.00  0.00     0.293 C 
HETATM   40  O   UNL     1     -44.728  61.920 -47.377  1.00  0.00    -0.259 OA
BRANCH  39  41
HETATM   41  O   UNL     1     -46.073  60.060 -47.508  1.00  0.00    -0.318 OA
BRANCH  41  42
HETATM   42  C   UNL     1     -46.227  60.047 -46.080  1.00  0.00     0.174 C 
HETATM   43  C   UNL     1     -46.917  58.773 -45.634  1.00  0.00     0.034 C 
ENDBRANCH  41  42
ENDBRANCH  39  41
ENDBRANCH  36  39
ENDBRANCH  30  33
ENDBRANCH   1  29
TORSDOF 9
ENDMDL
MODEL 10
REMARK VINA RESULT:      -8.2      3.044      6.568
REMARK  9 active torsions:
REMARK  status: ('A' for Active; 'I' for Inactive)
REMARK    1  A    between atoms: C_2  and  O_3 
REMARK    2  A    between atoms: O_3  and  C_4 
REMARK    3  A    between atoms: C_4  and  C_5 
REMARK    4  A    between atoms: C_8  and  N_9 
REMARK       I    between atoms: N_9  and  C_10 
REMARK    5  A    between atoms: C_10  and  C_11 
REMARK    6  A    between atoms: C_13  and  N_14 
REMARK    7  A    between atoms: N_17  and  C_19 
REMARK    8  A    between atoms: C_19  and  C_20 
REMARK    9  A    between atoms: C_19  and  C_26 
ROOT
HETATM    1  C   UNL     1     -42.855  61.978 -53.957  1.00  0.00     0.200 C 
HETATM    2  N   UNL     1     -43.025  61.041 -52.858  1.00  0.00    -0.211 N 
HETATM    3  C   UNL     1     -44.204  61.003 -52.192  1.00  0.00     0.702 C 
HETATM    4  N   UNL     1     -45.148  61.875 -52.283  1.00  0.00    -0.028 NA
HETATM    5  C   UNL     1     -44.990  62.901 -53.186  1.00  0.00     0.263 C 
HETATM    6  O   UNL     1     -45.943  63.572 -53.570  1.00  0.00    -0.271 OA
HETATM    7  C   UNL     1     -43.591  63.258 -53.624  1.00  0.00     0.141 C 
HETATM    8  H   UNL     1     -42.545  60.156 -52.969  1.00  0.00     0.178 HD
ENDROOT
BRANCH   3   9
HETATM    9  N   UNL     1     -44.273  59.942 -51.320  1.00  0.00    -0.213 N 
HETATM   10  C   UNL     1     -43.078  59.699 -50.476  1.00  0.00     0.169 C 
HETATM   11  C   UNL     1     -42.031  58.841 -51.220  1.00  0.00     0.256 C 
HETATM   12  N   UNL     1     -42.673  57.517 -51.644  1.00  0.00    -0.056 N 
HETATM   13  H   UNL     1     -43.106  57.091 -50.821  1.00  0.00     0.281 HD
HETATM   14  C   UNL     1     -43.836  57.819 -52.592  1.00  0.00     0.256 C 
HETATM   15  C   UNL     1     -44.871  58.694 -51.853  1.00  0.00     0.169 C 
BRANCH  12  16
HETATM   16  C   UNL     1     -41.712  56.457 -52.175  1.00  0.00     0.254 C 
BRANCH  16  17
HETATM   17  C   UNL     1     -41.249  55.463 -51.116  1.00  0.00    -0.023 A 
HETATM   18  C   UNL     1     -41.451  55.695 -49.743  1.00  0.00     0.009 A 
HETATM   19  C   UNL     1     -41.008  54.773 -48.793  1.00  0.00     0.001 A 
HETATM   20  C   UNL     1     -40.362  53.608 -49.198  1.00  0.00     0.000 A 
HETATM   21  C   UNL     1     -40.159  53.359 -50.552  1.00  0.00     0.001 A 
HETATM   22  C   UNL     1     -40.598  54.278 -51.506  1.00  0.00     0.009 A 
ENDBRANCH  16  17
BRANCH  16  23
HETATM   23  C   UNL     1     -42.139  55.811 -53.503  1.00  0.00    -0.023 A 
HETATM   24  C   UNL     1     -43.202  54.897 -53.634  1.00  0.00     0.009 A 
HETATM   25  C   UNL     1     -43.554  54.378 -54.885  1.00  0.00     0.001 A 
HETATM   26  C   UNL     1     -42.854  54.757 -56.026  1.00  0.00     0.000 A 
HETATM   27  C   UNL     1     -41.802  55.658 -55.924  1.00  0.00     0.001 A 
HETATM   28  C   UNL     1     -41.452  56.184 -54.678  1.00  0.00     0.009 A 
ENDBRANCH  16  23
ENDBRANCH  12  16
ENDBRANCH   3   9
BRANCH   1  29
HETATM   29  C   UNL     1     -43.329  61.374 -55.300  1.00  0.00     0.246 C 
HETATM   30  N   UNL     1     -42.924  60.055 -55.453  1.00  0.00    -0.325 N 
HETATM   31  H   UNL     1     -42.457  59.616 -54.668  1.00  0.00     0.169 HD
HETATM   32  O   UNL     1     -44.008  62.028 -56.089  1.00  0.00    -0.271 OA
BRANCH  30  33
HETATM   33  C   UNL     1     -43.069  59.227 -56.585  1.00  0.00     0.034 A 
HETATM   34  C   UNL     1     -42.099  59.069 -57.575  1.00  0.00     0.030 A 
HETATM   35  C   UNL     1     -42.308  58.170 -58.631  1.00  0.00     0.020 A 
HETATM   36  C   UNL     1     -43.485  57.417 -58.710  1.00  0.00     0.039 A 
HETATM   37  C   UNL     1     -44.470  57.594 -57.733  1.00  0.00     0.020 A 
HETATM   38  C   UNL     1     -44.261  58.492 -56.681  1.00  0.00     0.030 A 
BRANCH  36  39
HETATM   39  C   UNL     1     -43.630  56.433 -59.817  1.00  0.00     0.293 C 
HETATM   40  O   UNL     1     -42.899  55.466 -59.955  1.00  0.00    -0.259 OA
BRANCH  39  41
HETATM   41  O   UNL     1     -44.696  56.750 -60.594  1.00  0.00    -0.318 OA
BRANCH  41  42
HETATM   42  C   UNL     1     -45.704  55.737 -60.726  1.00  0.00     0.174 C 
HETATM   43  C   UNL     1     -47.049  56.265 -60.267  1.00  0.00     0.034 C 
ENDBRANCH  41  42
ENDBRANCH  39  41
ENDBRANCH  36  39
ENDBRANCH  30  33
ENDBRANCH   1  29
TORSDOF 9
ENDMDL
