MODEL 1
REMARK VINA RESULT:      -7.2      0.000      0.000
REMARK  6 active torsions:
REMARK  status: ('A' for Active; 'I' for Inactive)
REMARK    1  A    between atoms: C_6  and  C_7 
REMARK    2  A    between atoms: C_7  and  N_8 
REMARK    3  A    between atoms: C_7  and  C_24 
REMARK       I    between atoms: N_8  and  C_9 
REMARK       I    between atoms: C_9  and  N_10 
REMARK    4  A    between atoms: N_10  and  C_11 
REMARK    5  A    between atoms: C_14  and  C_15 
REMARK    6  A    between atoms: C_24  and  O_25 
ROOT
HETATM    1  N   UNL     1     -42.659  57.593 -57.926  1.00  0.00    -0.331 N 
HETATM    2  C   UNL     1     -42.472  57.227 -56.629  1.00  0.00     0.321 C 
HETATM    3  N   UNL     1     -42.517  55.887 -56.366  1.00  0.00    -0.309 N 
HETATM    4  O   UNL     1     -42.276  58.127 -55.818  1.00  0.00    -0.247 OA
HETATM    5  H   UNL     1     -42.621  58.598 -58.029  1.00  0.00     0.165 HD
HETATM    6  H   UNL     1     -42.697  55.282 -57.147  1.00  0.00     0.170 HD
ENDROOT
BRANCH   1   7
HETATM    7  C   UNL     1     -42.972  56.811 -59.118  1.00  0.00     0.161 C 
BRANCH   7   8
HETATM    8  C   UNL     1     -44.449  56.886 -59.355  1.00  0.00     0.056 A 
HETATM    9  N   UNL     1     -45.205  55.818 -59.782  1.00  0.00    -0.277 N 
HETATM   10  C   UNL     1     -44.762  54.469 -60.050  1.00  0.00     0.179 C 
HETATM   11  N   UNL     1     -46.503  56.122 -59.962  1.00  0.00    -0.185 NA
HETATM   12  C   UNL     1     -46.587  57.407 -59.621  1.00  0.00     0.141 A 
HETATM   13  C   UNL     1     -45.345  57.936 -59.242  1.00  0.00     0.050 A 
ENDBRANCH   7   8
BRANCH   7  14
HETATM   14  C   UNL     1     -42.189  57.338 -60.342  1.00  0.00     0.198 C 
BRANCH  14  15
HETATM   15  O   UNL     1     -41.698  58.652 -60.054  1.00  0.00    -0.394 OA
HETATM   16  C   UNL     1     -42.108  59.596 -61.033  1.00  0.00     0.201 C 
ENDBRANCH  14  15
ENDBRANCH   7  14
ENDBRANCH   1   7
BRANCH   3  17
HETATM   17  C   UNL     1     -42.350  55.245 -55.122  1.00  0.00     0.036 A 
HETATM   18  C   UNL     1     -41.336  54.337 -54.837  1.00  0.00     0.030 A 
HETATM   19  C   UNL     1     -41.239  53.750 -53.567  1.00  0.00     0.010 A 
HETATM   20  C   UNL     1     -42.138  54.065 -52.534  1.00  0.00    -0.054 A 
HETATM   21  C   UNL     1     -43.175  54.954 -52.849  1.00  0.00     0.010 A 
HETATM   22  C   UNL     1     -43.272  55.544 -54.116  1.00  0.00     0.030 A 
BRANCH  20  23
HETATM   23  C   UNL     1     -42.003  53.387 -51.168  1.00  0.00     0.018 C 
HETATM   24  C   UNL     1     -40.633  52.702 -50.948  1.00  0.00     0.009 C 
HETATM   25  C   UNL     1     -39.509  53.708 -50.707  1.00  0.00     0.001 C 
HETATM   26  C   UNL     1     -39.814  54.605 -49.513  1.00  0.00     0.000 C 
HETATM   27  C   UNL     1     -41.176  55.281 -49.642  1.00  0.00     0.001 C 
HETATM   28  C   UNL     1     -42.290  54.272 -49.932  1.00  0.00     0.009 C 
ENDBRANCH  20  23
ENDBRANCH   3  17
TORSDOF 6
ENDMDL
MODEL 2
REMARK VINA RESULT:      -7.1      2.754      8.816
REMARK  6 active torsions:
REMARK  status: ('A' for Active; 'I' for Inactive)
REMARK    1  A    between atoms: C_6  and  C_7 
REMARK    2  A    between atoms: C_7  and  N_8 
REMARK    3  A    between atoms: C_7  and  C_24 
REMARK       I    between atoms: N_8  and  C_9 
REMARK       I    between atoms: C_9  and  N_10 
REMARK    4  A    between atoms: N_10  and  C_11 
REMARK    5  A    between atoms: C_14  and  C_15 
REMARK    6  A    between atoms: C_24  and  O_25 
ROOT
HETATM    1  N   UNL     1     -41.380  55.376 -52.425  1.00  0.00    -0.331 N 
HETATM    2  C   UNL     1     -41.631  56.068 -53.569  1.00  0.00     0.321 C 
HETATM    3  N   UNL     1     -42.599  55.556 -54.386  1.00  0.00    -0.309 N 
HETATM    4  O   UNL     1     -40.974  57.087 -53.760  1.00  0.00    -0.247 OA
HETATM    5  H   UNL     1     -40.646  55.816 -51.887  1.00  0.00     0.165 HD
HETATM    6  H   UNL     1     -43.037  54.704 -54.083  1.00  0.00     0.170 HD
ENDROOT
BRANCH   1   7
HETATM    7  C   UNL     1     -41.915  54.117 -51.916  1.00  0.00     0.161 C 
BRANCH   7   8
HETATM    8  C   UNL     1     -40.841  53.077 -52.007  1.00  0.00     0.056 A 
HETATM    9  N   UNL     1     -40.569  52.362 -53.151  1.00  0.00    -0.277 N 
HETATM   10  C   UNL     1     -41.210  52.476 -54.441  1.00  0.00     0.179 C 
HETATM   11  N   UNL     1     -39.587  51.457 -52.993  1.00  0.00    -0.185 NA
HETATM   12  C   UNL     1     -39.203  51.611 -51.727  1.00  0.00     0.141 A 
HETATM   13  C   UNL     1     -39.948  52.597 -51.064  1.00  0.00     0.050 A 
ENDBRANCH   7   8
BRANCH   7  14
HETATM   14  C   UNL     1     -42.408  54.277 -50.461  1.00  0.00     0.198 C 
BRANCH  14  15
HETATM   15  O   UNL     1     -41.731  55.385 -49.857  1.00  0.00    -0.394 OA
HETATM   16  C   UNL     1     -41.013  54.997 -48.694  1.00  0.00     0.201 C 
ENDBRANCH  14  15
ENDBRANCH   7  14
ENDBRANCH   1   7
BRANCH   3  17
HETATM   17  C   UNL     1     -43.055  56.075 -55.615  1.00  0.00     0.036 A 
HETATM   18  C   UNL     1     -43.811  57.235 -55.745  1.00  0.00     0.030 A 
HETATM   19  C   UNL     1     -44.216  57.685 -57.010  1.00  0.00     0.010 A 
HETATM   20  C   UNL     1     -43.865  57.002 -58.186  1.00  0.00    -0.054 A 
HETATM   21  C   UNL     1     -43.135  55.816 -58.035  1.00  0.00     0.010 A 
HETATM   22  C   UNL     1     -42.726  55.366 -56.772  1.00  0.00     0.030 A 
BRANCH  20  23
HETATM   23  C   UNL     1     -44.345  57.522 -59.544  1.00  0.00     0.018 C 
HETATM   24  C   UNL     1     -44.425  56.427 -60.636  1.00  0.00     0.009 C 
HETATM   25  C   UNL     1     -45.608  55.483 -60.430  1.00  0.00     0.001 C 
HETATM   26  C   UNL     1     -46.927  56.247 -60.395  1.00  0.00     0.000 C 
HETATM   27  C   UNL     1     -46.904  57.375 -59.368  1.00  0.00     0.001 C 
HETATM   28  C   UNL     1     -45.689  58.289 -59.549  1.00  0.00     0.009 C 
ENDBRANCH  20  23
ENDBRANCH   3  17
TORSDOF 6
ENDMDL
MODEL 3
REMARK VINA RESULT:      -7.1      3.182      8.982
REMARK  6 active torsions:
REMARK  status: ('A' for Active; 'I' for Inactive)
REMARK    1  A    between atoms: C_6  and  C_7 
REMARK    2  A    between atoms: C_7  and  N_8 
REMARK    3  A    between atoms: C_7  and  C_24 
REMARK       I    between atoms: N_8  and  C_9 
REMARK       I    between atoms: C_9  and  N_10 
REMARK    4  A    between atoms: N_10  and  C_11 
REMARK    5  A    between atoms: C_14  and  C_15 
REMARK    6  A    between atoms: C_24  and  O_25 
ROOT
HETATM    1  N   UNL     1     -42.264  53.905 -52.223  1.00  0.00    -0.331 N 
HETATM    2  C   UNL     1     -42.953  54.440 -53.267  1.00  0.00     0.321 C 
HETATM    3  N   UNL     1     -42.223  55.159 -54.169  1.00  0.00    -0.309 N 
HETATM    4  O   UNL     1     -44.161  54.224 -53.307  1.00  0.00    -0.247 OA
HETATM    5  H   UNL     1     -42.880  53.401 -51.600  1.00  0.00     0.165 HD
HETATM    6  H   UNL     1     -41.240  55.247 -53.983  1.00  0.00     0.170 HD
ENDROOT
BRANCH   1   7
HETATM    7  C   UNL     1     -40.862  54.010 -51.832  1.00  0.00     0.161 C 
BRANCH   7   8
HETATM    8  C   UNL     1     -40.792  54.073 -50.338  1.00  0.00     0.056 A 
HETATM    9  N   UNL     1     -41.067  55.209 -49.611  1.00  0.00    -0.277 N 
HETATM   10  C   UNL     1     -41.483  56.500 -50.109  1.00  0.00     0.179 C 
HETATM   11  N   UNL     1     -40.907  55.046 -48.286  1.00  0.00    -0.185 NA
HETATM   12  C   UNL     1     -40.544  53.771 -48.157  1.00  0.00     0.141 A 
HETATM   13  C   UNL     1     -40.451  53.118 -49.394  1.00  0.00     0.050 A 
ENDBRANCH   7   8
BRANCH   7  14
HETATM   14  C   UNL     1     -40.050  52.811 -52.373  1.00  0.00     0.198 C 
BRANCH  14  15
HETATM   15  O   UNL     1     -40.159  52.778 -53.801  1.00  0.00    -0.394 OA
HETATM   16  C   UNL     1     -40.306  51.452 -54.290  1.00  0.00     0.201 C 
ENDBRANCH  14  15
ENDBRANCH   7  14
ENDBRANCH   1   7
BRANCH   3  17
HETATM   17  C   UNL     1     -42.684  55.806 -55.334  1.00  0.00     0.036 A 
HETATM   18  C   UNL     1     -43.192  57.101 -55.365  1.00  0.00     0.030 A 
HETATM   19  C   UNL     1     -43.621  57.671 -56.572  1.00  0.00     0.010 A 
HETATM   20  C   UNL     1     -43.540  56.976 -57.790  1.00  0.00    -0.054 A 
HETATM   21  C   UNL     1     -43.060  55.660 -57.736  1.00  0.00     0.010 A 
HETATM   22  C   UNL     1     -42.628  55.089 -56.531  1.00  0.00     0.030 A 
BRANCH  20  23
HETATM   23  C   UNL     1     -44.036  57.633 -59.081  1.00  0.00     0.018 C 
HETATM   24  C   UNL     1     -44.252  56.634 -60.243  1.00  0.00     0.009 C 
HETATM   25  C   UNL     1     -45.497  55.771 -60.048  1.00  0.00     0.001 C 
HETATM   26  C   UNL     1     -46.747  56.629 -59.891  1.00  0.00     0.000 C 
HETATM   27  C   UNL     1     -46.588  57.670 -58.787  1.00  0.00     0.001 C 
HETATM   28  C   UNL     1     -45.313  58.499 -58.962  1.00  0.00     0.009 C 
ENDBRANCH  20  23
ENDBRANCH   3  17
TORSDOF 6
ENDMDL
MODEL 4
REMARK VINA RESULT:      -6.9      2.748      8.835
REMARK  6 active torsions:
REMARK  status: ('A' for Active; 'I' for Inactive)
REMARK    1  A    between atoms: C_6  and  C_7 
REMARK    2  A    between atoms: C_7  and  N_8 
REMARK    3  A    between atoms: C_7  and  C_24 
REMARK       I    between atoms: N_8  and  C_9 
REMARK       I    between atoms: C_9  and  N_10 
REMARK    4  A    between atoms: N_10  and  C_11 
REMARK    5  A    between atoms: C_14  and  C_15 
REMARK    6  A    between atoms: C_24  and  O_25 
ROOT
HETATM    1  N   UNL     1     -41.768  56.534 -52.306  1.00  0.00    -0.331 N 
HETATM    2  C   UNL     1     -41.863  56.905 -53.612  1.00  0.00     0.321 C 
HETATM    3  N   UNL     1     -42.826  56.279 -54.350  1.00  0.00    -0.309 N 
HETATM    4  O   UNL     1     -41.083  57.768 -54.004  1.00  0.00    -0.247 OA
HETATM    5  H   UNL     1     -41.026  57.036 -51.838  1.00  0.00     0.165 HD
HETATM    6  H   UNL     1     -43.377  55.587 -53.875  1.00  0.00     0.170 HD
ENDROOT
BRANCH   1   7
HETATM    7  C   UNL     1     -42.476  55.518 -51.533  1.00  0.00     0.161 C 
BRANCH   7   8
HETATM    8  C   UNL     1     -41.503  54.883 -50.588  1.00  0.00     0.056 A 
HETATM    9  N   UNL     1     -40.650  53.864 -50.945  1.00  0.00    -0.277 N 
HETATM   10  C   UNL     1     -40.504  53.245 -52.242  1.00  0.00     0.179 C 
HETATM   11  N   UNL     1     -39.890  53.423 -49.927  1.00  0.00    -0.185 NA
HETATM   12  C   UNL     1     -40.246  54.192 -48.898  1.00  0.00     0.141 A 
HETATM   13  C   UNL     1     -41.246  55.112 -49.246  1.00  0.00     0.050 A 
ENDBRANCH   7   8
BRANCH   7  14
HETATM   14  C   UNL     1     -43.666  56.139 -50.768  1.00  0.00     0.198 C 
BRANCH  14  15
HETATM   15  O   UNL     1     -44.493  56.856 -51.691  1.00  0.00    -0.394 OA
HETATM   16  C   UNL     1     -44.787  58.168 -51.231  1.00  0.00     0.201 C 
ENDBRANCH  14  15
ENDBRANCH   7  14
ENDBRANCH   1   7
BRANCH   3  17
HETATM   17  C   UNL     1     -43.139  56.479 -55.710  1.00  0.00     0.036 A 
HETATM   18  C   UNL     1     -42.769  55.617 -56.736  1.00  0.00     0.030 A 
HETATM   19  C   UNL     1     -43.130  55.889 -58.064  1.00  0.00     0.010 A 
HETATM   20  C   UNL     1     -43.888  57.021 -58.408  1.00  0.00    -0.054 A 
HETATM   21  C   UNL     1     -44.221  57.899 -57.367  1.00  0.00     0.010 A 
HETATM   22  C   UNL     1     -43.864  57.627 -56.040  1.00  0.00     0.030 A 
BRANCH  20  23
HETATM   23  C   UNL     1     -44.244  57.287 -59.873  1.00  0.00     0.018 C 
HETATM   24  C   UNL     1     -44.473  55.998 -60.700  1.00  0.00     0.009 C 
HETATM   25  C   UNL     1     -45.798  55.317 -60.363  1.00  0.00     0.001 C 
HETATM   26  C   UNL     1     -46.977  56.261 -60.576  1.00  0.00     0.000 C 
HETATM   27  C   UNL     1     -46.796  57.575 -59.822  1.00  0.00     0.001 C 
HETATM   28  C   UNL     1     -45.445  58.228 -60.127  1.00  0.00     0.009 C 
ENDBRANCH  20  23
ENDBRANCH   3  17
TORSDOF 6
ENDMDL
MODEL 5
REMARK VINA RESULT:      -6.7      6.066      8.843
REMARK  6 active torsions:
REMARK  status: ('A' for Active; 'I' for Inactive)
REMARK    1  A    between atoms: C_6  and  C_7 
REMARK    2  A    between atoms: C_7  and  N_8 
REMARK    3  A    between atoms: C_7  and  C_24 
REMARK       I    between atoms: N_8  and  C_9 
REMARK       I    between atoms: C_9  and  N_10 
REMARK    4  A    between atoms: N_10  and  C_11 
REMARK    5  A    between atoms: C_14  and  C_15 
REMARK    6  A    between atoms: C_24  and  O_25 
ROOT
HETATM    1  N   UNL     1     -45.608  60.224 -49.364  1.00  0.00    -0.331 N 
HETATM    2  C   UNL     1     -45.573  59.202 -50.262  1.00  0.00     0.321 C 
HETATM    3  N   UNL     1     -44.342  58.673 -50.529  1.00  0.00    -0.309 N 
HETATM    4  O   UNL     1     -46.644  58.845 -50.743  1.00  0.00    -0.247 OA
HETATM    5  H   UNL     1     -46.552  60.562 -49.234  1.00  0.00     0.165 HD
HETATM    6  H   UNL     1     -43.562  59.089 -50.053  1.00  0.00     0.170 HD
ENDROOT
BRANCH   1   7
HETATM    7  C   UNL     1     -44.543  60.930 -48.658  1.00  0.00     0.161 C 
BRANCH   7   8
HETATM    8  C   UNL     1     -44.287  62.224 -49.366  1.00  0.00     0.056 A 
HETATM    9  N   UNL     1     -43.304  62.390 -50.315  1.00  0.00    -0.277 N 
HETATM   10  C   UNL     1     -42.383  61.397 -50.819  1.00  0.00     0.179 C 
HETATM   11  N   UNL     1     -43.230  63.644 -50.793  1.00  0.00    -0.185 NA
HETATM   12  C   UNL     1     -44.202  64.294 -50.154  1.00  0.00     0.141 A 
HETATM   13  C   UNL     1     -44.888  63.467 -49.252  1.00  0.00     0.050 A 
ENDBRANCH   7   8
BRANCH   7  14
HETATM   14  C   UNL     1     -44.931  61.175 -47.182  1.00  0.00     0.198 C 
BRANCH  14  15
HETATM   15  O   UNL     1     -46.291  60.772 -46.983  1.00  0.00    -0.394 OA
HETATM   16  C   UNL     1     -47.043  61.766 -46.300  1.00  0.00     0.201 C 
ENDBRANCH  14  15
ENDBRANCH   7  14
ENDBRANCH   1   7
BRANCH   3  17
HETATM   17  C   UNL     1     -44.029  57.613 -51.405  1.00  0.00     0.036 A 
HETATM   18  C   UNL     1     -44.171  57.669 -52.787  1.00  0.00     0.030 A 
HETATM   19  C   UNL     1     -43.827  56.569 -53.586  1.00  0.00     0.010 A 
HETATM   20  C   UNL     1     -43.312  55.384 -53.032  1.00  0.00    -0.054 A 
HETATM   21  C   UNL     1     -43.209  55.332 -51.635  1.00  0.00     0.010 A 
HETATM   22  C   UNL     1     -43.550  56.431 -50.836  1.00  0.00     0.030 A 
BRANCH  20  23
HETATM   23  C   UNL     1     -42.965  54.202 -53.941  1.00  0.00     0.018 C 
HETATM   24  C   UNL     1     -42.645  54.613 -55.399  1.00  0.00     0.009 C 
HETATM   25  C   UNL     1     -41.279  55.284 -55.529  1.00  0.00     0.001 C 
HETATM   26  C   UNL     1     -40.166  54.381 -55.011  1.00  0.00     0.000 C 
HETATM   27  C   UNL     1     -40.438  53.900 -53.589  1.00  0.00     0.001 C 
HETATM   28  C   UNL     1     -41.829  53.273 -53.454  1.00  0.00     0.009 C 
ENDBRANCH  20  23
ENDBRANCH   3  17
TORSDOF 6
ENDMDL
MODEL 6
REMARK VINA RESULT:      -6.7      6.185      8.864
REMARK  6 active torsions:
REMARK  status: ('A' for Active; 'I' for Inactive)
REMARK    1  A    between atoms: C_6  and  C_7 
REMARK    2  A    between atoms: C_7  and  N_8 
REMARK    3  A    between atoms: C_7  and  C_24 
REMARK       I    between atoms: N_8  and  C_9 
REMARK       I    between atoms: C_9  and  N_10 
REMARK    4  A    between atoms: N_10  and  C_11 
REMARK    5  A    between atoms: C_14  and  C_15 
REMARK    6  A    between atoms: C_24  and  O_25 
ROOT
HETATM    1  N   UNL     1     -44.039  60.845 -49.721  1.00  0.00    -0.331 N 
HETATM    2  C   UNL     1     -43.480  59.844 -50.454  1.00  0.00     0.321 C 
HETATM    3  N   UNL     1     -44.324  58.853 -50.868  1.00  0.00    -0.309 N 
HETATM    4  O   UNL     1     -42.276  59.924 -50.680  1.00  0.00    -0.247 OA
HETATM    5  H   UNL     1     -43.344  61.527 -49.448  1.00  0.00     0.165 HD
HETATM    6  H   UNL     1     -45.284  58.936 -50.588  1.00  0.00     0.170 HD
ENDROOT
BRANCH   1   7
HETATM    7  C   UNL     1     -45.396  61.038 -49.221  1.00  0.00     0.161 C 
BRANCH   7   8
HETATM    8  C   UNL     1     -45.324  61.850 -47.965  1.00  0.00     0.056 A 
HETATM    9  N   UNL     1     -45.669  61.363 -46.725  1.00  0.00    -0.277 N 
HETATM   10  C   UNL     1     -46.122  60.033 -46.389  1.00  0.00     0.179 C 
HETATM   11  N   UNL     1     -45.561  62.277 -45.744  1.00  0.00    -0.185 NA
HETATM   12  C   UNL     1     -45.114  63.369 -46.365  1.00  0.00     0.141 A 
HETATM   13  C   UNL     1     -44.954  63.166 -47.743  1.00  0.00     0.050 A 
ENDBRANCH   7   8
BRANCH   7  14
HETATM   14  C   UNL     1     -46.278  61.737 -50.281  1.00  0.00     0.198 C 
BRANCH  14  15
HETATM   15  O   UNL     1     -46.595  60.801 -51.317  1.00  0.00    -0.394 OA
HETATM   16  C   UNL     1     -46.292  61.315 -52.607  1.00  0.00     0.201 C 
ENDBRANCH  14  15
ENDBRANCH   7  14
ENDBRANCH   1   7
BRANCH   3  17
HETATM   17  C   UNL     1     -44.008  57.716 -51.639  1.00  0.00     0.036 A 
HETATM   18  C   UNL     1     -44.274  57.589 -52.998  1.00  0.00     0.030 A 
HETATM   19  C   UNL     1     -43.917  56.423 -53.690  1.00  0.00     0.010 A 
HETATM   20  C   UNL     1     -43.267  55.352 -53.052  1.00  0.00    -0.054 A 
HETATM   21  C   UNL     1     -43.039  55.481 -51.675  1.00  0.00     0.010 A 
HETATM   22  C   UNL     1     -43.392  56.647 -50.983  1.00  0.00     0.030 A 
BRANCH  20  23
HETATM   23  C   UNL     1     -42.911  54.091 -53.844  1.00  0.00     0.018 C 
HETATM   24  C   UNL     1     -42.673  54.351 -55.351  1.00  0.00     0.009 C 
HETATM   25  C   UNL     1     -41.343  55.054 -55.619  1.00  0.00     0.001 C 
HETATM   26  C   UNL     1     -40.171  54.255 -55.061  1.00  0.00     0.000 C 
HETATM   27  C   UNL     1     -40.361  53.923 -53.583  1.00  0.00     0.001 C 
HETATM   28  C   UNL     1     -41.716  53.263 -53.315  1.00  0.00     0.009 C 
ENDBRANCH  20  23
ENDBRANCH   3  17
TORSDOF 6
ENDMDL
MODEL 7
REMARK VINA RESULT:      -6.5      2.179      3.503
REMARK  6 active torsions:
REMARK  status: ('A' for Active; 'I' for Inactive)
REMARK    1  A    between atoms: C_6  and  C_7 
REMARK    2  A    between atoms: C_7  and  N_8 
REMARK    3  A    between atoms: C_7  and  C_24 
REMARK       I    between atoms: N_8  and  C_9 
REMARK       I    between atoms: C_9  and  N_10 
REMARK    4  A    between atoms: N_10  and  C_11 
REMARK    5  A    between atoms: C_14  and  C_15 
REMARK    6  A    between atoms: C_24  and  O_25 
ROOT
HETATM    1  N   UNL     1     -42.780  57.778 -58.104  1.00  0.00    -0.331 N 
HETATM    2  C   UNL     1     -42.707  56.749 -57.217  1.00  0.00     0.321 C 
HETATM    3  N   UNL     1     -42.411  57.083 -55.926  1.00  0.00    -0.309 N 
HETATM    4  O   UNL     1     -42.918  55.621 -57.653  1.00  0.00    -0.247 OA
HETATM    5  H   UNL     1     -42.992  57.443 -59.034  1.00  0.00     0.165 HD
HETATM    6  H   UNL     1     -42.258  58.057 -55.738  1.00  0.00     0.170 HD
ENDROOT
BRANCH   1   7
HETATM    7  C   UNL     1     -42.532  59.208 -57.952  1.00  0.00     0.161 C 
BRANCH   7   8
HETATM    8  C   UNL     1     -42.215  59.777 -59.301  1.00  0.00     0.056 A 
HETATM    9  N   UNL     1     -41.493  60.934 -59.487  1.00  0.00    -0.277 N 
HETATM   10  C   UNL     1     -40.899  61.781 -58.478  1.00  0.00     0.179 C 
HETATM   11  N   UNL     1     -41.360  61.277 -60.780  1.00  0.00    -0.185 NA
HETATM   12  C   UNL     1     -41.990  60.306 -61.441  1.00  0.00     0.141 A 
HETATM   13  C   UNL     1     -42.545  59.352 -60.576  1.00  0.00     0.050 A 
ENDBRANCH   7   8
BRANCH   7  14
HETATM   14  C   UNL     1     -43.756  59.915 -57.327  1.00  0.00     0.198 C 
BRANCH  14  15
HETATM   15  O   UNL     1     -43.646  59.867 -55.900  1.00  0.00    -0.394 OA
HETATM   16  C   UNL     1     -42.466  60.510 -55.439  1.00  0.00     0.201 C 
ENDBRANCH  14  15
ENDBRANCH   7  14
ENDBRANCH   1   7
BRANCH   3  17
HETATM   17  C   UNL     1     -42.283  56.220 -54.818  1.00  0.00     0.036 A 
HETATM   18  C   UNL     1     -41.255  55.298 -54.655  1.00  0.00     0.030 A 
HETATM   19  C   UNL     1     -41.200  54.484 -53.515  1.00  0.00     0.010 A 
HETATM   20  C   UNL     1     -42.159  54.575 -52.492  1.00  0.00    -0.054 A 
HETATM   21  C   UNL     1     -43.208  55.483 -52.689  1.00  0.00     0.010 A 
HETATM   22  C   UNL     1     -43.263  56.300 -53.827  1.00  0.00     0.030 A 
BRANCH  20  23
HETATM   23  C   UNL     1     -42.068  53.653 -51.273  1.00  0.00     0.018 C 
HETATM   24  C   UNL     1     -40.737  52.867 -51.187  1.00  0.00     0.009 C 
HETATM   25  C   UNL     1     -39.563  53.752 -50.770  1.00  0.00     0.001 C 
HETATM   26  C   UNL     1     -39.828  54.431 -49.432  1.00  0.00     0.000 C 
HETATM   27  C   UNL     1     -41.152  55.191 -49.431  1.00  0.00     0.001 C 
HETATM   28  C   UNL     1     -42.316  54.312 -49.895  1.00  0.00     0.009 C 
ENDBRANCH  20  23
ENDBRANCH   3  17
TORSDOF 6
ENDMDL
MODEL 8
REMARK VINA RESULT:      -6.5     16.220     19.448
REMARK  6 active torsions:
REMARK  status: ('A' for Active; 'I' for Inactive)
REMARK    1  A    between atoms: C_6  and  C_7 
REMARK    2  A    between atoms: C_7  and  N_8 
REMARK    3  A    between atoms: C_7  and  C_24 
REMARK       I    between atoms: N_8  and  C_9 
REMARK       I    between atoms: C_9  and  N_10 
REMARK    4  A    between atoms: N_10  and  C_11 
REMARK    5  A    between atoms: C_14  and  C_15 
REMARK    6  A    between atoms: C_24  and  O_25 
ROOT
HETATM    1  N   UNL     1     -33.776  40.891 -53.710  1.00  0.00    -0.331 N 
HETATM    2  C   UNL     1     -34.198  40.714 -54.992  1.00  0.00     0.321 C 
HETATM    3  N   UNL     1     -35.526  40.444 -55.160  1.00  0.00    -0.309 N 
HETATM    4  O   UNL     1     -33.353  40.819 -55.876  1.00  0.00    -0.247 OA
HETATM    5  H   UNL     1     -32.783  41.075 -53.676  1.00  0.00     0.165 HD
HETATM    6  H   UNL     1     -36.081  40.385 -54.326  1.00  0.00     0.170 HD
ENDROOT
BRANCH   1   7
HETATM    7  C   UNL     1     -34.478  40.780 -52.435  1.00  0.00     0.161 C 
BRANCH   7   8
HETATM    8  C   UNL     1     -33.507  40.295 -51.404  1.00  0.00     0.056 A 
HETATM    9  N   UNL     1     -33.882  39.614 -50.268  1.00  0.00    -0.277 N 
HETATM   10  C   UNL     1     -35.214  39.221 -49.869  1.00  0.00     0.179 C 
HETATM   11  N   UNL     1     -32.848  39.306 -49.465  1.00  0.00    -0.185 NA
HETATM   12  C   UNL     1     -31.783  39.780 -50.111  1.00  0.00     0.141 A 
HETATM   13  C   UNL     1     -32.130  40.409 -51.316  1.00  0.00     0.050 A 
ENDBRANCH   7   8
BRANCH   7  14
HETATM   14  C   UNL     1     -35.089  42.139 -52.024  1.00  0.00     0.198 C 
BRANCH  14  15
HETATM   15  O   UNL     1     -36.274  42.372 -52.794  1.00  0.00    -0.394 OA
HETATM   16  C   UNL     1     -37.323  41.485 -52.431  1.00  0.00     0.201 C 
ENDBRANCH  14  15
ENDBRANCH   7  14
ENDBRANCH   1   7
BRANCH   3  17
HETATM   17  C   UNL     1     -36.217  40.228 -56.370  1.00  0.00     0.036 A 
HETATM   18  C   UNL     1     -36.297  41.153 -57.405  1.00  0.00     0.030 A 
HETATM   19  C   UNL     1     -36.999  40.852 -58.581  1.00  0.00     0.010 A 
HETATM   20  C   UNL     1     -37.630  39.610 -58.769  1.00  0.00    -0.054 A 
HETATM   21  C   UNL     1     -37.571  38.703 -57.702  1.00  0.00     0.010 A 
HETATM   22  C   UNL     1     -36.867  39.002 -56.528  1.00  0.00     0.030 A 
BRANCH  20  23
HETATM   23  C   UNL     1     -38.400  39.332 -60.062  1.00  0.00     0.018 C 
HETATM   24  C   UNL     1     -37.551  39.516 -61.343  1.00  0.00     0.009 C 
HETATM   25  C   UNL     1     -36.544  38.385 -61.543  1.00  0.00     0.001 C 
HETATM   26  C   UNL     1     -37.237  37.029 -61.598  1.00  0.00     0.000 C 
HETATM   27  C   UNL     1     -38.130  36.797 -60.382  1.00  0.00     0.001 C 
HETATM   28  C   UNL     1     -39.104  37.957 -60.159  1.00  0.00     0.009 C 
ENDBRANCH  20  23
ENDBRANCH   3  17
TORSDOF 6
ENDMDL
MODEL 9
REMARK VINA RESULT:      -6.4      3.231      8.720
REMARK  6 active torsions:
REMARK  status: ('A' for Active; 'I' for Inactive)
REMARK    1  A    between atoms: C_6  and  C_7 
REMARK    2  A    between atoms: C_7  and  N_8 
REMARK    3  A    between atoms: C_7  and  C_24 
REMARK       I    between atoms: N_8  and  C_9 
REMARK       I    between atoms: C_9  and  N_10 
REMARK    4  A    between atoms: N_10  and  C_11 
REMARK    5  A    between atoms: C_14  and  C_15 
REMARK    6  A    between atoms: C_24  and  O_25 
ROOT
HETATM    1  N   UNL     1     -42.689  55.679 -52.313  1.00  0.00    -0.331 N 
HETATM    2  C   UNL     1     -43.069  55.545 -53.612  1.00  0.00     0.321 C 
HETATM    3  N   UNL     1     -42.916  56.647 -54.405  1.00  0.00    -0.309 N 
HETATM    4  O   UNL     1     -43.507  54.451 -53.955  1.00  0.00    -0.247 OA
HETATM    5  H   UNL     1     -42.846  54.824 -51.797  1.00  0.00     0.165 HD
HETATM    6  H   UNL     1     -42.548  57.470 -53.962  1.00  0.00     0.170 HD
ENDROOT
BRANCH   1   7
HETATM    7  C   UNL     1     -42.194  56.829 -51.561  1.00  0.00     0.161 C 
BRANCH   7   8
HETATM    8  C   UNL     1     -43.345  57.750 -51.299  1.00  0.00     0.056 A 
HETATM    9  N   UNL     1     -43.222  59.119 -51.224  1.00  0.00    -0.277 N 
HETATM   10  C   UNL     1     -42.027  59.912 -51.400  1.00  0.00     0.179 C 
HETATM   11  N   UNL     1     -44.379  59.744 -50.944  1.00  0.00    -0.185 NA
HETATM   12  C   UNL     1     -45.270  58.757 -50.861  1.00  0.00     0.141 A 
HETATM   13  C   UNL     1     -44.687  57.498 -51.066  1.00  0.00     0.050 A 
ENDBRANCH   7   8
BRANCH   7  14
HETATM   14  C   UNL     1     -41.534  56.378 -50.239  1.00  0.00     0.198 C 
BRANCH  14  15
HETATM   15  O   UNL     1     -42.144  55.158 -49.803  1.00  0.00    -0.394 OA
HETATM   16  C   UNL     1     -41.195  54.266 -49.234  1.00  0.00     0.201 C 
ENDBRANCH  14  15
ENDBRANCH   7  14
ENDBRANCH   1   7
BRANCH   3  17
HETATM   17  C   UNL     1     -43.221  56.775 -55.775  1.00  0.00     0.036 A 
HETATM   18  C   UNL     1     -42.734  55.934 -56.770  1.00  0.00     0.030 A 
HETATM   19  C   UNL     1     -43.096  56.128 -58.110  1.00  0.00     0.010 A 
HETATM   20  C   UNL     1     -43.971  57.157 -58.499  1.00  0.00    -0.054 A 
HETATM   21  C   UNL     1     -44.424  58.017 -57.490  1.00  0.00     0.010 A 
HETATM   22  C   UNL     1     -44.065  57.822 -56.149  1.00  0.00     0.030 A 
BRANCH  20  23
HETATM   23  C   UNL     1     -44.326  57.342 -59.977  1.00  0.00     0.018 C 
HETATM   24  C   UNL     1     -44.547  56.010 -60.734  1.00  0.00     0.009 C 
HETATM   25  C   UNL     1     -45.870  55.341 -60.364  1.00  0.00     0.001 C 
HETATM   26  C   UNL     1     -47.052  56.266 -60.629  1.00  0.00     0.000 C 
HETATM   27  C   UNL     1     -46.880  57.621 -59.947  1.00  0.00     0.001 C 
HETATM   28  C   UNL     1     -45.531  58.262 -60.284  1.00  0.00     0.009 C 
ENDBRANCH  20  23
ENDBRANCH   3  17
TORSDOF 6
ENDMDL
MODEL 10
REMARK VINA RESULT:      -6.4      4.808      7.735
REMARK  6 active torsions:
REMARK  status: ('A' for Active; 'I' for Inactive)
REMARK    1  A    between atoms: C_6  and  C_7 
REMARK    2  A    between atoms: C_7  and  N_8 
REMARK    3  A    between atoms: C_7  and  C_24 
REMARK       I    between atoms: N_8  and  C_9 
REMARK       I    between atoms: C_9  and  N_10 
REMARK    4  A    between atoms: N_10  and  C_11 
REMARK    5  A    between atoms: C_14  and  C_15 
REMARK    6  A    between atoms: C_24  and  O_25 
ROOT
HETATM    1  N   UNL     1     -42.013  54.077 -52.890  1.00  0.00    -0.331 N 
HETATM    2  C   UNL     1     -42.583  55.211 -52.399  1.00  0.00     0.321 C 
HETATM    3  N   UNL     1     -41.937  56.382 -52.675  1.00  0.00    -0.309 N 
HETATM    4  O   UNL     1     -43.623  55.081 -51.761  1.00  0.00    -0.247 OA
HETATM    5  H   UNL     1     -42.547  53.259 -52.631  1.00  0.00     0.165 HD
HETATM    6  H   UNL     1     -41.087  56.311 -53.206  1.00  0.00     0.170 HD
ENDROOT
BRANCH   1   7
HETATM    7  C   UNL     1     -40.770  53.857 -53.622  1.00  0.00     0.161 C 
BRANCH   7   8
HETATM    8  C   UNL     1     -40.312  52.455 -53.362  1.00  0.00     0.056 A 
HETATM    9  N   UNL     1     -39.870  52.014 -52.135  1.00  0.00    -0.277 N 
HETATM   10  C   UNL     1     -39.785  52.764 -50.903  1.00  0.00     0.179 C 
HETATM   11  N   UNL     1     -39.475  50.729 -52.140  1.00  0.00    -0.185 NA
HETATM   12  C   UNL     1     -39.691  50.328 -53.393  1.00  0.00     0.141 A 
HETATM   13  C   UNL     1     -40.203  51.356 -54.197  1.00  0.00     0.050 A 
ENDBRANCH   7   8
BRANCH   7  14
HETATM   14  C   UNL     1     -40.973  54.100 -55.135  1.00  0.00     0.198 C 
BRANCH  14  15
HETATM   15  O   UNL     1     -41.274  55.483 -55.350  1.00  0.00    -0.394 OA
HETATM   16  C   UNL     1     -42.456  55.654 -56.121  1.00  0.00     0.201 C 
ENDBRANCH  14  15
ENDBRANCH   7  14
ENDBRANCH   1   7
BRANCH   3  17
HETATM   17  C   UNL     1     -42.313  57.687 -52.296  1.00  0.00     0.036 A 
HETATM   18  C   UNL     1     -41.744  58.394 -51.243  1.00  0.00     0.030 A 
HETATM   19  C   UNL     1     -42.174  59.694 -50.940  1.00  0.00     0.010 A 
HETATM   20  C   UNL     1     -43.173  60.337 -51.690  1.00  0.00    -0.054 A 
HETATM   21  C   UNL     1     -43.762  59.597 -52.725  1.00  0.00     0.010 A 
HETATM   22  C   UNL     1     -43.331  58.299 -53.031  1.00  0.00     0.030 A 
BRANCH  20  23
HETATM   23  C   UNL     1     -43.623  61.751 -51.312  1.00  0.00     0.018 C 
HETATM   24  C   UNL     1     -45.087  62.064 -51.706  1.00  0.00     0.009 C 
HETATM   25  C   UNL     1     -46.097  61.358 -50.804  1.00  0.00     0.001 C 
HETATM   26  C   UNL     1     -45.887  61.728 -49.340  1.00  0.00     0.000 C 
HETATM   27  C   UNL     1     -44.448  61.486 -48.893  1.00  0.00     0.001 C 
HETATM   28  C   UNL     1     -43.439  62.156 -49.830  1.00  0.00     0.009 C 
ENDBRANCH  20  23
ENDBRANCH   3  17
TORSDOF 6
ENDMDL
