MODEL 1
REMARK VINA RESULT:      -9.2      0.000      0.000
REMARK  4 active torsions:
REMARK  status: ('A' for Active; 'I' for Inactive)
REMARK    1  A    between atoms: N_4  and  C_5 
REMARK    2  A    between atoms: C_16  and  C_17 
REMARK    3  A    between atoms: C_24  and  C_25 
REMARK    4  A    between atoms: C_25  and  O_26 
ROOT
HETATM    1  C   UNL     1     -42.491  55.405 -56.253  1.00  0.00     0.073 C 
HETATM    2  C   UNL     1     -41.946  54.824 -55.000  1.00  0.00     0.065 A 
HETATM    3  N   UNL     1     -41.384  53.613 -55.011  1.00  0.00    -0.170 NA
HETATM    4  N   UNL     1     -41.008  53.376 -53.717  1.00  0.00    -0.215 N 
HETATM    5  C   UNL     1     -41.307  54.469 -52.901  1.00  0.00     0.165 A 
HETATM    6  C   UNL     1     -41.942  55.400 -53.711  1.00  0.00     0.039 A 
HETATM    7  N   UNL     1     -41.069  54.616 -51.578  1.00  0.00    -0.216 NA
HETATM    8  C   UNL     1     -41.533  55.770 -51.052  1.00  0.00     0.137 A 
HETATM    9 CL   UNL     1     -41.205  55.848 -49.360  1.00  0.00    -0.062 Cl
HETATM   10  C   UNL     1     -42.208  56.779 -51.739  1.00  0.00     0.011 A 
HETATM   11  C   UNL     1     -42.406  56.588 -53.121  1.00  0.00     0.030 A 
ENDROOT
BRANCH  10  12
HETATM   12  C   UNL     1     -42.761  58.016 -51.056  1.00  0.00     0.164 C 
HETATM   13  N   UNL     1     -44.192  57.825 -50.869  1.00  0.00    -0.330 N 
HETATM   14  C   UNL     1     -45.127  58.796 -50.997  1.00  0.00     0.321 C 
HETATM   15  H   UNL     1     -44.522  56.997 -50.392  1.00  0.00     0.165 HD
HETATM   16  O   UNL     1     -46.289  58.616 -50.650  1.00  0.00    -0.247 OA
HETATM   17  N   UNL     1     -44.713  59.965 -51.556  1.00  0.00    -0.312 N 
HETATM   18  C   UNL     1     -43.432  60.239 -51.979  1.00  0.00     0.024 C 
HETATM   19  H   UNL     1     -45.446  60.656 -51.671  1.00  0.00     0.170 HD
HETATM   20  C   UNL     1     -43.238  61.599 -52.592  1.00  0.00     0.069 C 
HETATM   21  C   UNL     1     -42.478  59.314 -51.768  1.00  0.00     0.067 C 
BRANCH  21  22
HETATM   22  C   UNL     1     -41.087  59.559 -52.207  1.00  0.00     0.293 C 
HETATM   23  O   UNL     1     -40.700  59.451 -53.359  1.00  0.00    -0.259 OA
BRANCH  22  24
HETATM   24  O   UNL     1     -40.335  59.910 -51.137  1.00  0.00    -0.323 OA
HETATM   25  C   UNL     1     -39.116  59.173 -51.018  1.00  0.00     0.213 C 
ENDBRANCH  22  24
ENDBRANCH  21  22
ENDBRANCH  10  12
BRANCH   4  26
HETATM   26  C   UNL     1     -40.427  52.117 -53.371  1.00  0.00     0.060 A 
HETATM   27  C   UNL     1     -40.342  51.110 -54.349  1.00  0.00     0.031 A 
HETATM   28  C   UNL     1     -39.807  49.857 -54.036  1.00  0.00     0.002 A 
HETATM   29  C   UNL     1     -39.345  49.597 -52.749  1.00  0.00     0.000 A 
HETATM   30  C   UNL     1     -39.416  50.590 -51.774  1.00  0.00     0.002 A 
HETATM   31  C   UNL     1     -39.954  51.845 -52.080  1.00  0.00     0.031 A 
ENDBRANCH   4  26
TORSDOF 4
ENDMDL
MODEL 2
REMARK VINA RESULT:      -8.8      2.138      3.800
REMARK  4 active torsions:
REMARK  status: ('A' for Active; 'I' for Inactive)
REMARK    1  A    between atoms: N_4  and  C_5 
REMARK    2  A    between atoms: C_16  and  C_17 
REMARK    3  A    between atoms: C_24  and  C_25 
REMARK    4  A    between atoms: C_25  and  O_26 
ROOT
HETATM    1  C   UNL     1     -40.502  54.065 -48.119  1.00  0.00     0.073 C 
HETATM    2  C   UNL     1     -40.516  53.829 -49.584  1.00  0.00     0.065 A 
HETATM    3  N   UNL     1     -40.253  52.614 -50.070  1.00  0.00    -0.170 NA
HETATM    4  N   UNL     1     -40.332  52.743 -51.430  1.00  0.00    -0.215 N 
HETATM    5  C   UNL     1     -40.686  54.044 -51.790  1.00  0.00     0.165 A 
HETATM    6  C   UNL     1     -40.778  54.766 -50.608  1.00  0.00     0.039 A 
HETATM    7  N   UNL     1     -40.879  54.548 -53.030  1.00  0.00    -0.216 NA
HETATM    8  C   UNL     1     -41.155  55.868 -53.060  1.00  0.00     0.137 A 
HETATM    9 CL   UNL     1     -41.357  56.416 -54.684  1.00  0.00    -0.062 Cl
HETATM   10  C   UNL     1     -41.253  56.718 -51.958  1.00  0.00     0.011 A 
HETATM   11  C   UNL     1     -41.069  56.138 -50.687  1.00  0.00     0.030 A 
ENDROOT
BRANCH  10  12
HETATM   12  C   UNL     1     -41.495  58.210 -52.083  1.00  0.00     0.164 C 
HETATM   13  N   UNL     1     -40.414  58.902 -51.397  1.00  0.00    -0.330 N 
HETATM   14  C   UNL     1     -40.557  60.033 -50.667  1.00  0.00     0.321 C 
HETATM   15  H   UNL     1     -39.457  58.690 -51.645  1.00  0.00     0.165 HD
HETATM   16  O   UNL     1     -39.585  60.665 -50.268  1.00  0.00    -0.247 OA
HETATM   17  N   UNL     1     -41.832  60.410 -50.379  1.00  0.00    -0.312 N 
HETATM   18  C   UNL     1     -42.970  59.750 -50.780  1.00  0.00     0.024 C 
HETATM   19  H   UNL     1     -41.901  61.239 -49.799  1.00  0.00     0.170 HD
HETATM   20  C   UNL     1     -44.263  60.355 -50.303  1.00  0.00     0.069 C 
HETATM   21  C   UNL     1     -42.838  58.679 -51.585  1.00  0.00     0.067 C 
BRANCH  21  22
HETATM   22  C   UNL     1     -44.031  57.934 -52.041  1.00  0.00     0.293 C 
HETATM   23  O   UNL     1     -44.626  57.108 -51.369  1.00  0.00    -0.259 OA
BRANCH  22  24
HETATM   24  O   UNL     1     -44.340  58.312 -53.305  1.00  0.00    -0.323 OA
HETATM   25  C   UNL     1     -44.742  57.233 -54.151  1.00  0.00     0.213 C 
ENDBRANCH  22  24
ENDBRANCH  21  22
ENDBRANCH  10  12
BRANCH   4  26
HETATM   26  C   UNL     1     -40.033  51.620 -52.264  1.00  0.00     0.060 A 
HETATM   27  C   UNL     1     -40.162  51.749 -53.658  1.00  0.00     0.031 A 
HETATM   28  C   UNL     1     -39.906  50.663 -54.500  1.00  0.00     0.002 A 
HETATM   29  C   UNL     1     -39.514  49.440 -53.962  1.00  0.00     0.000 A 
HETATM   30  C   UNL     1     -39.375  49.303 -52.583  1.00  0.00     0.002 A 
HETATM   31  C   UNL     1     -39.633  50.386 -51.735  1.00  0.00     0.031 A 
ENDBRANCH   4  26
TORSDOF 4
ENDMDL
MODEL 3
REMARK VINA RESULT:      -8.8      1.629      2.828
REMARK  4 active torsions:
REMARK  status: ('A' for Active; 'I' for Inactive)
REMARK    1  A    between atoms: N_4  and  C_5 
REMARK    2  A    between atoms: C_16  and  C_17 
REMARK    3  A    between atoms: C_24  and  C_25 
REMARK    4  A    between atoms: C_25  and  O_26 
ROOT
HETATM    1  C   UNL     1     -40.056  54.038 -47.883  1.00  0.00     0.073 C 
HETATM    2  C   UNL     1     -40.390  53.909 -49.324  1.00  0.00     0.065 A 
HETATM    3  N   UNL     1     -40.061  52.802 -49.992  1.00  0.00    -0.170 NA
HETATM    4  N   UNL     1     -40.490  53.011 -51.274  1.00  0.00    -0.215 N 
HETATM    5  C   UNL     1     -41.126  54.248 -51.393  1.00  0.00     0.165 A 
HETATM    6  C   UNL     1     -41.041  54.854 -50.147  1.00  0.00     0.039 A 
HETATM    7  N   UNL     1     -41.695  54.796 -52.491  1.00  0.00    -0.216 NA
HETATM    8  C   UNL     1     -42.179  56.042 -52.307  1.00  0.00     0.137 A 
HETATM    9 CL   UNL     1     -42.857  56.659 -53.769  1.00  0.00    -0.062 Cl
HETATM   10  C   UNL     1     -42.140  56.777 -51.122  1.00  0.00     0.011 A 
HETATM   11  C   UNL     1     -41.560  56.151 -50.001  1.00  0.00     0.030 A 
ENDROOT
BRANCH  10  12
HETATM   12  C   UNL     1     -42.643  58.205 -51.018  1.00  0.00     0.164 C 
HETATM   13  N   UNL     1     -44.098  58.173 -51.040  1.00  0.00    -0.330 N 
HETATM   14  C   UNL     1     -44.885  59.083 -51.661  1.00  0.00     0.321 C 
HETATM   15  H   UNL     1     -44.589  57.589 -50.376  1.00  0.00     0.165 HD
HETATM   16  O   UNL     1     -46.099  59.104 -51.490  1.00  0.00    -0.247 OA
HETATM   17  N   UNL     1     -44.259  59.950 -52.502  1.00  0.00    -0.312 N 
HETATM   18  C   UNL     1     -42.907  59.984 -52.754  1.00  0.00     0.024 C 
HETATM   19  H   UNL     1     -44.882  60.593 -52.978  1.00  0.00     0.170 HD
HETATM   20  C   UNL     1     -42.467  61.022 -53.750  1.00  0.00     0.069 C 
HETATM   21  C   UNL     1     -42.108  59.145 -52.068  1.00  0.00     0.067 C 
BRANCH  21  22
HETATM   22  C   UNL     1     -40.648  59.139 -52.305  1.00  0.00     0.293 C 
HETATM   23  O   UNL     1     -40.114  58.682 -53.301  1.00  0.00    -0.259 OA
BRANCH  22  24
HETATM   24  O   UNL     1     -40.022  59.713 -51.249  1.00  0.00    -0.323 OA
HETATM   25  C   UNL     1     -38.728  59.169 -50.979  1.00  0.00     0.213 C 
ENDBRANCH  22  24
ENDBRANCH  21  22
ENDBRANCH  10  12
BRANCH   4  26
HETATM   26  C   UNL     1     -40.226  52.026 -52.276  1.00  0.00     0.060 A 
HETATM   27  C   UNL     1     -39.795  50.747 -51.882  1.00  0.00     0.031 A 
HETATM   28  C   UNL     1     -39.500  49.769 -52.837  1.00  0.00     0.002 A 
HETATM   29  C   UNL     1     -39.638  50.054 -54.192  1.00  0.00     0.000 A 
HETATM   30  C   UNL     1     -40.073  51.315 -54.594  1.00  0.00     0.002 A 
HETATM   31  C   UNL     1     -40.366  52.299 -53.643  1.00  0.00     0.031 A 
ENDBRANCH   4  26
TORSDOF 4
ENDMDL
MODEL 4
REMARK VINA RESULT:      -8.3      3.833      7.158
REMARK  4 active torsions:
REMARK  status: ('A' for Active; 'I' for Inactive)
REMARK    1  A    between atoms: N_4  and  C_5 
REMARK    2  A    between atoms: C_16  and  C_17 
REMARK    3  A    between atoms: C_24  and  C_25 
REMARK    4  A    between atoms: C_25  and  O_26 
ROOT
HETATM    1  C   UNL     1     -44.084  54.356 -59.325  1.00  0.00     0.073 C 
HETATM    2  C   UNL     1     -43.533  55.470 -58.513  1.00  0.00     0.065 A 
HETATM    3  N   UNL     1     -43.253  56.643 -59.086  1.00  0.00    -0.170 NA
HETATM    4  N   UNL     1     -42.757  57.428 -58.081  1.00  0.00    -0.215 N 
HETATM    5  C   UNL     1     -42.765  56.746 -56.863  1.00  0.00     0.165 A 
HETATM    6  C   UNL     1     -43.234  55.468 -57.133  1.00  0.00     0.039 A 
HETATM    7  N   UNL     1     -42.373  57.194 -55.649  1.00  0.00    -0.216 NA
HETATM    8  C   UNL     1     -42.441  56.274 -54.664  1.00  0.00     0.137 A 
HETATM    9 CL   UNL     1     -41.895  56.935 -53.167  1.00  0.00    -0.062 Cl
HETATM   10  C   UNL     1     -42.867  54.953 -54.797  1.00  0.00     0.011 A 
HETATM   11  C   UNL     1     -43.291  54.543 -56.077  1.00  0.00     0.030 A 
ENDROOT
BRANCH  10  12
HETATM   12  C   UNL     1     -42.845  53.958 -53.651  1.00  0.00     0.164 C 
HETATM   13  N   UNL     1     -43.617  54.519 -52.552  1.00  0.00    -0.330 N 
HETATM   14  C   UNL     1     -43.302  54.396 -51.241  1.00  0.00     0.321 C 
HETATM   15  H   UNL     1     -44.567  54.823 -52.720  1.00  0.00     0.165 HD
HETATM   16  O   UNL     1     -44.085  54.733 -50.360  1.00  0.00    -0.247 OA
HETATM   17  N   UNL     1     -42.064  53.908 -50.959  1.00  0.00    -0.312 N 
HETATM   18  C   UNL     1     -41.127  53.520 -51.890  1.00  0.00     0.024 C 
HETATM   19  H   UNL     1     -41.847  53.865 -49.970  1.00  0.00     0.170 HD
HETATM   20  C   UNL     1     -39.819  53.043 -51.320  1.00  0.00     0.069 C 
HETATM   21  C   UNL     1     -41.469  53.550 -53.191  1.00  0.00     0.067 C 
BRANCH  21  22
HETATM   22  C   UNL     1     -40.497  53.146 -54.230  1.00  0.00     0.293 C 
HETATM   23  O   UNL     1     -39.659  53.888 -54.715  1.00  0.00    -0.259 OA
BRANCH  22  24
HETATM   24  O   UNL     1     -40.695  51.843 -54.546  1.00  0.00    -0.323 OA
HETATM   25  C   UNL     1     -39.636  50.979 -54.129  1.00  0.00     0.213 C 
ENDBRANCH  22  24
ENDBRANCH  21  22
ENDBRANCH  10  12
BRANCH   4  26
HETATM   26  C   UNL     1     -42.292  58.747 -58.380  1.00  0.00     0.060 A 
HETATM   27  C   UNL     1     -42.213  59.157 -59.723  1.00  0.00     0.031 A 
HETATM   28  C   UNL     1     -41.735  60.428 -60.052  1.00  0.00     0.002 A 
HETATM   29  C   UNL     1     -41.337  61.306 -59.047  1.00  0.00     0.000 A 
HETATM   30  C   UNL     1     -41.419  60.914 -57.713  1.00  0.00     0.002 A 
HETATM   31  C   UNL     1     -41.893  59.640 -57.378  1.00  0.00     0.031 A 
ENDBRANCH   4  26
TORSDOF 4
ENDMDL
MODEL 5
REMARK VINA RESULT:      -8.2      5.603      7.730
REMARK  4 active torsions:
REMARK  status: ('A' for Active; 'I' for Inactive)
REMARK    1  A    between atoms: N_4  and  C_5 
REMARK    2  A    between atoms: C_16  and  C_17 
REMARK    3  A    between atoms: C_24  and  C_25 
REMARK    4  A    between atoms: C_25  and  O_26 
ROOT
HETATM    1  C   UNL     1     -42.150  59.891 -55.062  1.00  0.00     0.073 C 
HETATM    2  C   UNL     1     -42.228  58.452 -55.422  1.00  0.00     0.065 A 
HETATM    3  N   UNL     1     -41.775  57.524 -54.577  1.00  0.00    -0.170 NA
HETATM    4  N   UNL     1     -41.977  56.328 -55.209  1.00  0.00    -0.215 N 
HETATM    5  C   UNL     1     -42.597  56.514 -56.446  1.00  0.00     0.165 A 
HETATM    6  C   UNL     1     -42.737  57.885 -56.611  1.00  0.00     0.039 A 
HETATM    7  N   UNL     1     -42.974  55.577 -57.344  1.00  0.00    -0.216 NA
HETATM    8  C   UNL     1     -43.497  56.073 -58.485  1.00  0.00     0.137 A 
HETATM    9 CL   UNL     1     -43.918  54.801 -59.572  1.00  0.00    -0.062 Cl
HETATM   10  C   UNL     1     -43.672  57.422 -58.795  1.00  0.00     0.011 A 
HETATM   11  C   UNL     1     -43.289  58.357 -57.814  1.00  0.00     0.030 A 
ENDROOT
BRANCH  10  12
HETATM   12  C   UNL     1     -44.203  57.900 -60.134  1.00  0.00     0.164 C 
HETATM   13  N   UNL     1     -43.298  58.924 -60.637  1.00  0.00    -0.330 N 
HETATM   14  C   UNL     1     -43.682  60.037 -61.306  1.00  0.00     0.321 C 
HETATM   15  H   UNL     1     -42.312  58.716 -60.716  1.00  0.00     0.165 HD
HETATM   16  O   UNL     1     -42.866  60.764 -61.860  1.00  0.00    -0.247 OA
HETATM   17  N   UNL     1     -45.014  60.315 -61.303  1.00  0.00    -0.312 N 
HETATM   18  C   UNL     1     -45.988  59.556 -60.696  1.00  0.00     0.024 C 
HETATM   19  H   UNL     1     -45.261  61.175 -61.781  1.00  0.00     0.170 HD
HETATM   20  C   UNL     1     -47.386  60.098 -60.813  1.00  0.00     0.069 C 
HETATM   21  C   UNL     1     -45.624  58.399 -60.112  1.00  0.00     0.067 C 
BRANCH  21  22
HETATM   22  C   UNL     1     -46.633  57.549 -59.443  1.00  0.00     0.293 C 
HETATM   23  O   UNL     1     -47.211  57.848 -58.412  1.00  0.00    -0.259 OA
BRANCH  22  24
HETATM   24  O   UNL     1     -46.799  56.408 -60.154  1.00  0.00    -0.323 OA
HETATM   25  C   UNL     1     -47.745  56.521 -61.219  1.00  0.00     0.213 C 
ENDBRANCH  22  24
ENDBRANCH  21  22
ENDBRANCH  10  12
BRANCH   4  26
HETATM   26  C   UNL     1     -41.532  55.118 -54.590  1.00  0.00     0.060 A 
HETATM   27  C   UNL     1     -42.071  54.749 -53.344  1.00  0.00     0.031 A 
HETATM   28  C   UNL     1     -41.637  53.588 -52.697  1.00  0.00     0.002 A 
HETATM   29  C   UNL     1     -40.668  52.782 -53.287  1.00  0.00     0.000 A 
HETATM   30  C   UNL     1     -40.133  53.133 -54.524  1.00  0.00     0.002 A 
HETATM   31  C   UNL     1     -40.561  54.296 -55.175  1.00  0.00     0.031 A 
ENDBRANCH   4  26
TORSDOF 4
ENDMDL
MODEL 6
REMARK VINA RESULT:      -8.1      4.307      5.853
REMARK  4 active torsions:
REMARK  status: ('A' for Active; 'I' for Inactive)
REMARK    1  A    between atoms: N_4  and  C_5 
REMARK    2  A    between atoms: C_16  and  C_17 
REMARK    3  A    between atoms: C_24  and  C_25 
REMARK    4  A    between atoms: C_25  and  O_26 
ROOT
HETATM    1  C   UNL     1     -44.478  57.574 -51.833  1.00  0.00     0.073 C 
HETATM    2  C   UNL     1     -43.806  56.670 -52.799  1.00  0.00     0.065 A 
HETATM    3  N   UNL     1     -43.042  55.667 -52.359  1.00  0.00    -0.170 NA
HETATM    4  N   UNL     1     -42.570  55.051 -53.486  1.00  0.00    -0.215 N 
HETATM    5  C   UNL     1     -43.076  55.656 -54.637  1.00  0.00     0.165 A 
HETATM    6  C   UNL     1     -43.852  56.724 -54.209  1.00  0.00     0.039 A 
HETATM    7  N   UNL     1     -42.854  55.318 -55.928  1.00  0.00    -0.216 NA
HETATM    8  C   UNL     1     -43.437  56.137 -56.828  1.00  0.00     0.137 A 
HETATM    9 CL   UNL     1     -43.072  55.639 -58.439  1.00  0.00    -0.062 Cl
HETATM   10  C   UNL     1     -44.219  57.256 -56.542  1.00  0.00     0.011 A 
HETATM   11  C   UNL     1     -44.442  57.549 -55.182  1.00  0.00     0.030 A 
ENDROOT
BRANCH  10  12
HETATM   12  C   UNL     1     -44.780  58.169 -57.616  1.00  0.00     0.164 C 
HETATM   13  N   UNL     1     -45.756  57.412 -58.387  1.00  0.00    -0.330 N 
HETATM   14  C   UNL     1     -45.936  57.514 -59.725  1.00  0.00     0.321 C 
HETATM   15  H   UNL     1     -46.514  56.948 -57.904  1.00  0.00     0.165 HD
HETATM   16  O   UNL     1     -46.891  56.988 -60.285  1.00  0.00    -0.247 OA
HETATM   17  N   UNL     1     -44.986  58.205 -60.412  1.00  0.00    -0.312 N 
HETATM   18  C   UNL     1     -43.883  58.813 -59.858  1.00  0.00     0.024 C 
HETATM   19  H   UNL     1     -45.131  58.230 -61.415  1.00  0.00     0.170 HD
HETATM   20  C   UNL     1     -42.965  59.489 -60.839  1.00  0.00     0.069 C 
HETATM   21  C   UNL     1     -43.749  58.797 -58.519  1.00  0.00     0.067 C 
BRANCH  21  22
HETATM   22  C   UNL     1     -42.580  59.433 -57.875  1.00  0.00     0.293 C 
HETATM   23  O   UNL     1     -41.448  58.979 -57.901  1.00  0.00    -0.259 OA
BRANCH  22  24
HETATM   24  O   UNL     1     -42.972  60.577 -57.263  1.00  0.00    -0.323 OA
HETATM   25  C   UNL     1     -42.551  60.679 -55.902  1.00  0.00     0.213 C 
ENDBRANCH  22  24
ENDBRANCH  21  22
ENDBRANCH  10  12
BRANCH   4  26
HETATM   26  C   UNL     1     -41.653  53.960 -53.361  1.00  0.00     0.060 A 
HETATM   27  C   UNL     1     -40.987  53.762 -52.138  1.00  0.00     0.031 A 
HETATM   28  C   UNL     1     -40.063  52.723 -51.991  1.00  0.00     0.002 A 
HETATM   29  C   UNL     1     -39.798  51.869 -53.058  1.00  0.00     0.000 A 
HETATM   30  C   UNL     1     -40.458  52.051 -54.271  1.00  0.00     0.002 A 
HETATM   31  C   UNL     1     -41.382  53.091 -54.426  1.00  0.00     0.031 A 
ENDBRANCH   4  26
TORSDOF 4
ENDMDL
MODEL 7
REMARK VINA RESULT:      -7.9      2.428      4.753
REMARK  4 active torsions:
REMARK  status: ('A' for Active; 'I' for Inactive)
REMARK    1  A    between atoms: N_4  and  C_5 
REMARK    2  A    between atoms: C_16  and  C_17 
REMARK    3  A    between atoms: C_24  and  C_25 
REMARK    4  A    between atoms: C_25  and  O_26 
ROOT
HETATM    1  C   UNL     1     -41.346  53.178 -54.217  1.00  0.00     0.073 C 
HETATM    2  C   UNL     1     -42.033  54.319 -54.873  1.00  0.00     0.065 A 
HETATM    3  N   UNL     1     -42.205  54.326 -56.197  1.00  0.00    -0.170 NA
HETATM    4  N   UNL     1     -42.846  55.503 -56.472  1.00  0.00    -0.215 N 
HETATM    5  C   UNL     1     -43.108  56.216 -55.301  1.00  0.00     0.165 A 
HETATM    6  C   UNL     1     -42.560  55.478 -54.262  1.00  0.00     0.039 A 
HETATM    7  N   UNL     1     -43.737  57.405 -55.167  1.00  0.00    -0.216 NA
HETATM    8  C   UNL     1     -43.784  57.874 -53.903  1.00  0.00     0.137 A 
HETATM    9 CL   UNL     1     -44.580  59.404 -53.844  1.00  0.00    -0.062 Cl
HETATM   10  C   UNL     1     -43.256  57.253 -52.771  1.00  0.00     0.011 A 
HETATM   11  C   UNL     1     -42.633  56.003 -52.961  1.00  0.00     0.030 A 
ENDROOT
BRANCH  10  12
HETATM   12  C   UNL     1     -43.286  57.884 -51.391  1.00  0.00     0.164 C 
HETATM   13  N   UNL     1     -44.678  58.003 -50.981  1.00  0.00    -0.330 N 
HETATM   14  C   UNL     1     -45.195  59.043 -50.285  1.00  0.00     0.321 C 
HETATM   15  H   UNL     1     -45.268  57.182 -50.994  1.00  0.00     0.165 HD
HETATM   16  O   UNL     1     -46.326  58.999 -49.814  1.00  0.00    -0.247 OA
HETATM   17  N   UNL     1     -44.404  60.143 -50.165  1.00  0.00    -0.312 N 
HETATM   18  C   UNL     1     -43.132  60.272 -50.674  1.00  0.00     0.024 C 
HETATM   19  H   UNL     1     -44.836  60.916 -49.671  1.00  0.00     0.170 HD
HETATM   20  C   UNL     1     -42.477  61.605 -50.430  1.00  0.00     0.069 C 
HETATM   21  C   UNL     1     -42.576  59.208 -51.283  1.00  0.00     0.067 C 
BRANCH  21  22
HETATM   22  C   UNL     1     -41.213  59.297 -51.849  1.00  0.00     0.293 C 
HETATM   23  O   UNL     1     -40.945  59.812 -52.922  1.00  0.00    -0.259 OA
BRANCH  22  24
HETATM   24  O   UNL     1     -40.335  58.720 -50.994  1.00  0.00    -0.323 OA
HETATM   25  C   UNL     1     -39.319  59.606 -50.520  1.00  0.00     0.213 C 
ENDBRANCH  22  24
ENDBRANCH  21  22
ENDBRANCH  10  12
BRANCH   4  26
HETATM   26  C   UNL     1     -43.123  55.855 -57.830  1.00  0.00     0.060 A 
HETATM   27  C   UNL     1     -42.659  57.087 -58.327  1.00  0.00     0.031 A 
HETATM   28  C   UNL     1     -42.938  57.475 -59.640  1.00  0.00     0.002 A 
HETATM   29  C   UNL     1     -43.674  56.637 -60.474  1.00  0.00     0.000 A 
HETATM   30  C   UNL     1     -44.130  55.411 -59.996  1.00  0.00     0.002 A 
HETATM   31  C   UNL     1     -43.858  55.019 -58.680  1.00  0.00     0.031 A 
ENDBRANCH   4  26
TORSDOF 4
ENDMDL
MODEL 8
REMARK VINA RESULT:      -7.8      4.704      8.157
REMARK  4 active torsions:
REMARK  status: ('A' for Active; 'I' for Inactive)
REMARK    1  A    between atoms: N_4  and  C_5 
REMARK    2  A    between atoms: C_16  and  C_17 
REMARK    3  A    between atoms: C_24  and  C_25 
REMARK    4  A    between atoms: C_25  and  O_26 
ROOT
HETATM    1  C   UNL     1     -44.445  54.229 -59.754  1.00  0.00     0.073 C 
HETATM    2  C   UNL     1     -44.154  55.655 -59.461  1.00  0.00     0.065 A 
HETATM    3  N   UNL     1     -44.480  56.601 -60.345  1.00  0.00    -0.170 NA
HETATM    4  N   UNL     1     -44.068  57.779 -59.783  1.00  0.00    -0.215 N 
HETATM    5  C   UNL     1     -43.515  57.564 -58.519  1.00  0.00     0.165 A 
HETATM    6  C   UNL     1     -43.535  56.192 -58.311  1.00  0.00     0.039 A 
HETATM    7  N   UNL     1     -43.020  58.479 -57.655  1.00  0.00    -0.216 NA
HETATM    8  C   UNL     1     -42.493  57.955 -56.528  1.00  0.00     0.137 A 
HETATM    9 CL   UNL     1     -41.866  59.198 -55.509  1.00  0.00    -0.062 Cl
HETATM   10  C   UNL     1     -42.424  56.601 -56.200  1.00  0.00     0.011 A 
HETATM   11  C   UNL     1     -42.978  55.692 -57.122  1.00  0.00     0.030 A 
ENDROOT
BRANCH  10  12
HETATM   12  C   UNL     1     -41.747  56.089 -54.942  1.00  0.00     0.164 C 
HETATM   13  N   UNL     1     -40.923  54.946 -55.307  1.00  0.00    -0.330 N 
HETATM   14  C   UNL     1     -40.760  53.835 -54.550  1.00  0.00     0.321 C 
HETATM   15  H   UNL     1     -40.239  55.046 -56.045  1.00  0.00     0.165 HD
HETATM   16  O   UNL     1     -39.914  52.991 -54.825  1.00  0.00    -0.247 OA
HETATM   17  N   UNL     1     -41.601  53.696 -53.490  1.00  0.00    -0.312 N 
HETATM   18  C   UNL     1     -42.580  54.591 -53.124  1.00  0.00     0.024 C 
HETATM   19  H   UNL     1     -41.476  52.836 -52.968  1.00  0.00     0.170 HD
HETATM   20  C   UNL     1     -43.399  54.190 -51.927  1.00  0.00     0.069 C 
HETATM   21  C   UNL     1     -42.684  55.742 -53.814  1.00  0.00     0.067 C 
BRANCH  21  22
HETATM   22  C   UNL     1     -43.721  56.735 -53.461  1.00  0.00     0.293 C 
HETATM   23  O   UNL     1     -44.844  56.758 -53.939  1.00  0.00    -0.259 OA
BRANCH  22  24
HETATM   24  O   UNL     1     -43.223  57.597 -52.543  1.00  0.00    -0.323 OA
HETATM   25  C   UNL     1     -44.139  57.921 -51.495  1.00  0.00     0.213 C 
ENDBRANCH  22  24
ENDBRANCH  21  22
ENDBRANCH  10  12
BRANCH   4  26
HETATM   26  C   UNL     1     -44.212  58.998 -60.516  1.00  0.00     0.060 A 
HETATM   27  C   UNL     1     -43.064  59.626 -61.032  1.00  0.00     0.031 A 
HETATM   28  C   UNL     1     -43.166  60.834 -61.728  1.00  0.00     0.002 A 
HETATM   29  C   UNL     1     -44.412  61.425 -61.921  1.00  0.00     0.000 A 
HETATM   30  C   UNL     1     -45.556  60.808 -61.421  1.00  0.00     0.002 A 
HETATM   31  C   UNL     1     -45.460  59.601 -60.721  1.00  0.00     0.031 A 
ENDBRANCH   4  26
TORSDOF 4
ENDMDL
MODEL 9
REMARK VINA RESULT:      -7.7      4.100      6.938
REMARK  4 active torsions:
REMARK  status: ('A' for Active; 'I' for Inactive)
REMARK    1  A    between atoms: N_4  and  C_5 
REMARK    2  A    between atoms: C_16  and  C_17 
REMARK    3  A    between atoms: C_24  and  C_25 
REMARK    4  A    between atoms: C_25  and  O_26 
ROOT
HETATM    1  C   UNL     1     -43.677  55.377 -59.150  1.00  0.00     0.073 C 
HETATM    2  C   UNL     1     -43.260  56.654 -58.518  1.00  0.00     0.065 A 
HETATM    3  N   UNL     1     -42.829  57.667 -59.273  1.00  0.00    -0.170 NA
HETATM    4  N   UNL     1     -42.515  58.666 -58.394  1.00  0.00    -0.215 N 
HETATM    5  C   UNL     1     -42.790  58.282 -57.080  1.00  0.00     0.165 A 
HETATM    6  C   UNL     1     -43.243  56.972 -57.142  1.00  0.00     0.039 A 
HETATM    7  N   UNL     1     -42.632  59.002 -55.946  1.00  0.00    -0.216 NA
HETATM    8  C   UNL     1     -42.929  58.331 -54.813  1.00  0.00     0.137 A 
HETATM    9 CL   UNL     1     -42.669  59.324 -53.426  1.00  0.00    -0.062 Cl
HETATM   10  C   UNL     1     -43.368  57.010 -54.726  1.00  0.00     0.011 A 
HETATM   11  C   UNL     1     -43.542  56.314 -55.937  1.00  0.00     0.030 A 
ENDROOT
BRANCH  10  12
HETATM   12  C   UNL     1     -43.610  56.306 -53.404  1.00  0.00     0.164 C 
HETATM   13  N   UNL     1     -44.595  57.075 -52.657  1.00  0.00    -0.330 N 
HETATM   14  C   UNL     1     -44.575  57.266 -51.316  1.00  0.00     0.321 C 
HETATM   15  H   UNL     1     -45.480  57.298 -53.091  1.00  0.00     0.165 HD
HETATM   16  O   UNL     1     -45.525  57.767 -50.727  1.00  0.00    -0.247 OA
HETATM   17  N   UNL     1     -43.435  56.901 -50.670  1.00  0.00    -0.312 N 
HETATM   18  C   UNL     1     -42.324  56.345 -51.262  1.00  0.00     0.024 C 
HETATM   19  H   UNL     1     -43.439  57.093 -49.674  1.00  0.00     0.170 HD
HETATM   20  C   UNL     1     -41.178  56.058 -50.329  1.00  0.00     0.069 C 
HETATM   21  C   UNL     1     -42.374  56.064 -52.577  1.00  0.00     0.067 C 
BRANCH  21  22
HETATM   22  C   UNL     1     -41.205  55.468 -53.260  1.00  0.00     0.293 C 
HETATM   23  O   UNL     1     -40.382  56.104 -53.897  1.00  0.00    -0.259 OA
BRANCH  22  24
HETATM   24  O   UNL     1     -41.208  54.127 -53.065  1.00  0.00    -0.323 OA
HETATM   25  C   UNL     1     -41.524  53.372 -54.237  1.00  0.00     0.213 C 
ENDBRANCH  22  24
ENDBRANCH  21  22
ENDBRANCH  10  12
BRANCH   4  26
HETATM   26  C   UNL     1     -41.953  59.886 -58.884  1.00  0.00     0.060 A 
HETATM   27  C   UNL     1     -42.012  60.163 -60.262  1.00  0.00     0.031 A 
HETATM   28  C   UNL     1     -41.446  61.332 -60.778  1.00  0.00     0.002 A 
HETATM   29  C   UNL     1     -40.821  62.239 -59.927  1.00  0.00     0.000 A 
HETATM   30  C   UNL     1     -40.763  61.980 -58.560  1.00  0.00     0.002 A 
HETATM   31  C   UNL     1     -41.325  60.809 -58.037  1.00  0.00     0.031 A 
ENDBRANCH   4  26
TORSDOF 4
ENDMDL
MODEL 10
REMARK VINA RESULT:      -7.4      4.014      8.509
REMARK  4 active torsions:
REMARK  status: ('A' for Active; 'I' for Inactive)
REMARK    1  A    between atoms: N_4  and  C_5 
REMARK    2  A    between atoms: C_16  and  C_17 
REMARK    3  A    between atoms: C_24  and  C_25 
REMARK    4  A    between atoms: C_25  and  O_26 
ROOT
HETATM    1  C   UNL     1     -47.250  61.406 -52.356  1.00  0.00     0.073 C 
HETATM    2  C   UNL     1     -46.194  61.339 -51.315  1.00  0.00     0.065 A 
HETATM    3  N   UNL     1     -46.443  61.778 -50.079  1.00  0.00    -0.170 NA
HETATM    4  N   UNL     1     -45.278  61.591 -49.387  1.00  0.00    -0.215 N 
HETATM    5  C   UNL     1     -44.307  60.995 -50.193  1.00  0.00     0.165 A 
HETATM    6  C   UNL     1     -44.875  60.855 -51.451  1.00  0.00     0.039 A 
HETATM    7  N   UNL     1     -43.045  60.639 -49.861  1.00  0.00    -0.216 NA
HETATM    8  C   UNL     1     -42.319  60.137 -50.882  1.00  0.00     0.137 A 
HETATM    9 CL   UNL     1     -40.722  59.741 -50.363  1.00  0.00    -0.062 Cl
HETATM   10  C   UNL     1     -42.751  59.964 -52.197  1.00  0.00     0.011 A 
HETATM   11  C   UNL     1     -44.082  60.326 -52.484  1.00  0.00     0.030 A 
ENDROOT
BRANCH  10  12
HETATM   12  C   UNL     1     -41.846  59.459 -53.305  1.00  0.00     0.164 C 
HETATM   13  N   UNL     1     -41.959  60.374 -54.432  1.00  0.00    -0.330 N 
HETATM   14  C   UNL     1     -41.958  60.004 -55.734  1.00  0.00     0.321 C 
HETATM   15  H   UNL     1     -41.799  61.361 -54.284  1.00  0.00     0.165 HD
HETATM   16  O   UNL     1     -41.873  60.831 -56.635  1.00  0.00    -0.247 OA
HETATM   17  N   UNL     1     -42.085  58.673 -55.985  1.00  0.00    -0.312 N 
HETATM   18  C   UNL     1     -42.195  57.687 -55.032  1.00  0.00     0.024 C 
HETATM   19  H   UNL     1     -42.117  58.435 -56.970  1.00  0.00     0.170 HD
HETATM   20  C   UNL     1     -42.355  56.291 -55.570  1.00  0.00     0.069 C 
HETATM   21  C   UNL     1     -42.102  58.038 -53.736  1.00  0.00     0.067 C 
BRANCH  21  22
HETATM   22  C   UNL     1     -42.217  57.016 -52.673  1.00  0.00     0.293 C 
HETATM   23  O   UNL     1     -41.271  56.547 -52.063  1.00  0.00    -0.259 OA
BRANCH  22  24
HETATM   24  O   UNL     1     -43.522  56.696 -52.500  1.00  0.00    -0.323 OA
HETATM   25  C   UNL     1     -43.929  56.642 -51.131  1.00  0.00     0.213 C 
ENDBRANCH  22  24
ENDBRANCH  21  22
ENDBRANCH  10  12
BRANCH   4  26
HETATM   26  C   UNL     1     -45.187  62.026 -48.027  1.00  0.00     0.060 A 
HETATM   27  C   UNL     1     -45.124  61.064 -47.003  1.00  0.00     0.031 A 
HETATM   28  C   UNL     1     -45.065  61.455 -45.662  1.00  0.00     0.002 A 
HETATM   29  C   UNL     1     -45.061  62.807 -45.329  1.00  0.00     0.000 A 
HETATM   30  C   UNL     1     -45.114  63.768 -46.336  1.00  0.00     0.002 A 
HETATM   31  C   UNL     1     -45.177  63.383 -47.680  1.00  0.00     0.031 A 
ENDBRANCH   4  26
TORSDOF 4
ENDMDL
