MODEL 1
REMARK VINA RESULT:      -7.7      0.000      0.000
REMARK  5 active torsions:
REMARK  status: ('A' for Active; 'I' for Inactive)
REMARK    1  A    between atoms: C_7  and  C_8 
REMARK    2  A    between atoms: N_9  and  N_10 
REMARK       I    between atoms: N_10  and  C_11 
REMARK    3  A    between atoms: C_11  and  C_12 
REMARK    4  A    between atoms: C_12  and  O_13 
REMARK    5  A    between atoms: O_13  and  C_14 
ROOT
HETATM    1  C   UNL     1     -40.595  55.973 -50.499  1.00  0.00     0.147 C 
HETATM    2  N   UNL     1     -41.682  56.678 -50.382  1.00  0.00    -0.205 NA
ENDROOT
BRANCH   2   3
HETATM    3  N   UNL     1     -42.922  56.114 -50.493  1.00  0.00    -0.149 NA
HETATM    4  C   UNL     1     -44.006  56.769 -51.057  1.00  0.00     0.241 C 
HETATM    5  O   UNL     1     -45.124  56.579 -50.573  1.00  0.00    -0.276 OA
HETATM    6  H   UNL     1     -43.235  55.708 -49.613  1.00  0.00     0.158 HD
BRANCH   4   7
HETATM    7  C   UNL     1     -43.766  57.615 -52.304  1.00  0.00     0.273 C 
BRANCH   7   8
HETATM    8  O   UNL     1     -44.581  57.186 -53.388  1.00  0.00    -0.343 OA
BRANCH   8   9
HETATM    9  C   UNL     1     -43.995  56.378 -54.324  1.00  0.00     0.069 A 
HETATM   10  C   UNL     1     -43.408  57.060 -55.393  1.00  0.00     0.037 A 
HETATM   11  C   UNL     1     -42.790  56.360 -56.430  1.00  0.00     0.003 A 
HETATM   12  C   UNL     1     -42.759  54.968 -56.407  1.00  0.00     0.000 A 
HETATM   13  C   UNL     1     -43.339  54.280 -55.343  1.00  0.00     0.003 A 
HETATM   14  C   UNL     1     -43.951  54.983 -54.300  1.00  0.00     0.037 A 
ENDBRANCH   8   9
ENDBRANCH   7   8
ENDBRANCH   4   7
ENDBRANCH   2   3
BRANCH   1  15
HETATM   15  C   UNL     1     -40.457  54.549 -50.745  1.00  0.00     0.017 A 
HETATM   16  C   UNL     1     -40.413  53.622 -49.708  1.00  0.00     0.018 A 
HETATM   17  C   UNL     1     -40.487  53.806 -48.234  1.00  0.00     0.069 C 
HETATM   18  N   UNL     1     -40.246  52.379 -50.261  1.00  0.00    -0.358 N 
HETATM   19  H   UNL     1     -40.171  51.512 -49.745  1.00  0.00     0.166 HD
HETATM   20  C   UNL     1     -40.201  52.464 -51.630  1.00  0.00     0.043 A 
HETATM   21  C   UNL     1     -40.367  53.809 -51.971  1.00  0.00     0.004 A 
HETATM   22  C   UNL     1     -40.037  51.449 -52.582  1.00  0.00     0.030 A 
HETATM   23  C   UNL     1     -40.415  54.137 -53.342  1.00  0.00     0.014 A 
HETATM   24  C   UNL     1     -40.250  53.137 -54.307  1.00  0.00     0.001 A 
HETATM   25  C   UNL     1     -40.056  51.813 -53.929  1.00  0.00     0.002 A 
ENDBRANCH   1  15
TORSDOF 5
ENDMDL
MODEL 2
REMARK VINA RESULT:      -7.6      2.520      5.389
REMARK  5 active torsions:
REMARK  status: ('A' for Active; 'I' for Inactive)
REMARK    1  A    between atoms: C_7  and  C_8 
REMARK    2  A    between atoms: N_9  and  N_10 
REMARK       I    between atoms: N_10  and  C_11 
REMARK    3  A    between atoms: C_11  and  C_12 
REMARK    4  A    between atoms: C_12  and  O_13 
REMARK    5  A    between atoms: O_13  and  C_14 
ROOT
HETATM    1  C   UNL     1     -42.784  56.212 -50.874  1.00  0.00     0.147 C 
HETATM    2  N   UNL     1     -42.002  55.783 -49.926  1.00  0.00    -0.205 NA
ENDROOT
BRANCH   2   3
HETATM    3  N   UNL     1     -40.666  55.577 -50.134  1.00  0.00    -0.149 NA
HETATM    4  C   UNL     1     -40.043  54.359 -49.911  1.00  0.00     0.241 C 
HETATM    5  O   UNL     1     -38.895  54.361 -49.462  1.00  0.00    -0.276 OA
HETATM    6  H   UNL     1     -40.097  56.296 -49.691  1.00  0.00     0.158 HD
BRANCH   4   7
HETATM    7  C   UNL     1     -40.780  53.088 -50.323  1.00  0.00     0.273 C 
BRANCH   7   8
HETATM    8  O   UNL     1     -39.871  52.040 -50.639  1.00  0.00    -0.343 OA
BRANCH   8   9
HETATM    9  C   UNL     1     -39.904  51.555 -51.918  1.00  0.00     0.069 A 
HETATM   10  C   UNL     1     -39.627  50.190 -52.029  1.00  0.00     0.037 A 
HETATM   11  C   UNL     1     -39.608  49.566 -53.277  1.00  0.00     0.003 A 
HETATM   12  C   UNL     1     -39.861  50.308 -54.427  1.00  0.00     0.000 A 
HETATM   13  C   UNL     1     -40.140  51.670 -54.326  1.00  0.00     0.003 A 
HETATM   14  C   UNL     1     -40.167  52.292 -53.075  1.00  0.00     0.037 A 
ENDBRANCH   8   9
ENDBRANCH   7   8
ENDBRANCH   4   7
ENDBRANCH   2   3
BRANCH   1  15
HETATM   15  C   UNL     1     -42.452  56.548 -52.246  1.00  0.00     0.017 A 
HETATM   16  C   UNL     1     -41.877  57.769 -52.588  1.00  0.00     0.018 A 
HETATM   17  C   UNL     1     -41.489  58.933 -51.745  1.00  0.00     0.069 C 
HETATM   18  N   UNL     1     -41.718  57.793 -53.948  1.00  0.00    -0.358 N 
HETATM   19  H   UNL     1     -41.331  58.562 -54.481  1.00  0.00     0.166 HD
HETATM   20  C   UNL     1     -42.151  56.615 -54.504  1.00  0.00     0.043 A 
HETATM   21  C   UNL     1     -42.585  55.796 -53.460  1.00  0.00     0.004 A 
HETATM   22  C   UNL     1     -42.177  56.220 -55.848  1.00  0.00     0.030 A 
HETATM   23  C   UNL     1     -43.024  54.495 -53.785  1.00  0.00     0.014 A 
HETATM   24  C   UNL     1     -43.061  54.084 -55.123  1.00  0.00     0.001 A 
HETATM   25  C   UNL     1     -42.650  54.939 -56.139  1.00  0.00     0.002 A 
ENDBRANCH   1  15
TORSDOF 5
ENDMDL
MODEL 3
REMARK VINA RESULT:      -7.4      2.770      5.605
REMARK  5 active torsions:
REMARK  status: ('A' for Active; 'I' for Inactive)
REMARK    1  A    between atoms: C_7  and  C_8 
REMARK    2  A    between atoms: N_9  and  N_10 
REMARK       I    between atoms: N_10  and  C_11 
REMARK    3  A    between atoms: C_11  and  C_12 
REMARK    4  A    between atoms: C_12  and  O_13 
REMARK    5  A    between atoms: O_13  and  C_14 
ROOT
HETATM    1  C   UNL     1     -43.102  54.722 -51.417  1.00  0.00     0.147 C 
HETATM    2  N   UNL     1     -42.803  54.288 -50.227  1.00  0.00    -0.205 NA
ENDROOT
BRANCH   2   3
HETATM    3  N   UNL     1     -41.671  54.694 -49.577  1.00  0.00    -0.149 NA
HETATM    4  C   UNL     1     -40.753  53.811 -49.031  1.00  0.00     0.241 C 
HETATM    5  O   UNL     1     -40.198  54.120 -47.973  1.00  0.00    -0.276 OA
HETATM    6  H   UNL     1     -41.870  55.401 -48.872  1.00  0.00     0.158 HD
BRANCH   4   7
HETATM    7  C   UNL     1     -40.410  52.550 -49.818  1.00  0.00     0.273 C 
BRANCH   7   8
HETATM    8  O   UNL     1     -39.754  52.863 -51.041  1.00  0.00    -0.343 OA
BRANCH   8   9
HETATM    9  C   UNL     1     -39.801  51.918 -52.029  1.00  0.00     0.069 A 
HETATM   10  C   UNL     1     -40.188  52.405 -53.280  1.00  0.00     0.037 A 
HETATM   11  C   UNL     1     -40.297  51.548 -54.376  1.00  0.00     0.003 A 
HETATM   12  C   UNL     1     -40.023  50.191 -54.225  1.00  0.00     0.000 A 
HETATM   13  C   UNL     1     -39.635  49.697 -52.982  1.00  0.00     0.003 A 
HETATM   14  C   UNL     1     -39.518  50.558 -51.887  1.00  0.00     0.037 A 
ENDBRANCH   8   9
ENDBRANCH   7   8
ENDBRANCH   4   7
ENDBRANCH   2   3
BRANCH   1  15
HETATM   15  C   UNL     1     -42.375  55.658 -52.254  1.00  0.00     0.017 A 
HETATM   16  C   UNL     1     -42.302  55.510 -53.636  1.00  0.00     0.018 A 
HETATM   17  C   UNL     1     -42.879  54.475 -54.536  1.00  0.00     0.069 C 
HETATM   18  N   UNL     1     -41.524  56.525 -54.128  1.00  0.00    -0.358 N 
HETATM   19  H   UNL     1     -41.290  56.665 -55.102  1.00  0.00     0.166 HD
HETATM   20  C   UNL     1     -41.105  57.345 -53.111  1.00  0.00     0.043 A 
HETATM   21  C   UNL     1     -41.650  56.851 -51.924  1.00  0.00     0.004 A 
HETATM   22  C   UNL     1     -40.295  58.487 -53.163  1.00  0.00     0.030 A 
HETATM   23  C   UNL     1     -41.403  57.573 -50.737  1.00  0.00     0.014 A 
HETATM   24  C   UNL     1     -40.593  58.715 -50.770  1.00  0.00     0.001 A 
HETATM   25  C   UNL     1     -40.042  59.159 -51.966  1.00  0.00     0.002 A 
ENDBRANCH   1  15
TORSDOF 5
ENDMDL
MODEL 4
REMARK VINA RESULT:      -7.4      2.601      6.143
REMARK  5 active torsions:
REMARK  status: ('A' for Active; 'I' for Inactive)
REMARK    1  A    between atoms: C_7  and  C_8 
REMARK    2  A    between atoms: N_9  and  N_10 
REMARK       I    between atoms: N_10  and  C_11 
REMARK    3  A    between atoms: C_11  and  C_12 
REMARK    4  A    between atoms: C_12  and  O_13 
REMARK    5  A    between atoms: O_13  and  C_14 
ROOT
HETATM    1  C   UNL     1     -43.151  54.617 -52.339  1.00  0.00     0.147 C 
HETATM    2  N   UNL     1     -42.921  53.920 -51.265  1.00  0.00    -0.205 NA
ENDROOT
BRANCH   2   3
HETATM    3  N   UNL     1     -42.386  54.485 -50.141  1.00  0.00    -0.149 NA
HETATM    4  C   UNL     1     -41.210  54.043 -49.556  1.00  0.00     0.241 C 
HETATM    5  O   UNL     1     -41.122  54.062 -48.326  1.00  0.00    -0.276 OA
HETATM    6  H   UNL     1     -43.077  54.584 -49.399  1.00  0.00     0.158 HD
BRANCH   4   7
HETATM    7  C   UNL     1     -40.056  53.646 -50.472  1.00  0.00     0.273 C 
BRANCH   7   8
HETATM    8  O   UNL     1     -39.915  52.232 -50.546  1.00  0.00    -0.343 OA
BRANCH   8   9
HETATM    9  C   UNL     1     -39.915  51.674 -51.795  1.00  0.00     0.069 A 
HETATM   10  C   UNL     1     -39.623  50.307 -51.821  1.00  0.00     0.037 A 
HETATM   11  C   UNL     1     -39.571  49.613 -53.031  1.00  0.00     0.003 A 
HETATM   12  C   UNL     1     -39.807  50.285 -54.227  1.00  0.00     0.000 A 
HETATM   13  C   UNL     1     -40.101  51.647 -54.211  1.00  0.00     0.003 A 
HETATM   14  C   UNL     1     -40.161  52.340 -52.998  1.00  0.00     0.037 A 
ENDBRANCH   8   9
ENDBRANCH   7   8
ENDBRANCH   4   7
ENDBRANCH   2   3
BRANCH   1  15
HETATM   15  C   UNL     1     -42.920  56.030 -52.574  1.00  0.00     0.017 A 
HETATM   16  C   UNL     1     -41.886  56.484 -53.388  1.00  0.00     0.018 A 
HETATM   17  C   UNL     1     -40.852  55.738 -54.155  1.00  0.00     0.069 C 
HETATM   18  N   UNL     1     -41.914  57.854 -53.380  1.00  0.00    -0.358 N 
HETATM   19  H   UNL     1     -41.272  58.457 -53.878  1.00  0.00     0.166 HD
HETATM   20  C   UNL     1     -42.949  58.309 -52.601  1.00  0.00     0.043 A 
HETATM   21  C   UNL     1     -43.624  57.190 -52.108  1.00  0.00     0.004 A 
HETATM   22  C   UNL     1     -43.335  59.624 -52.312  1.00  0.00     0.030 A 
HETATM   23  C   UNL     1     -44.774  57.411 -51.321  1.00  0.00     0.014 A 
HETATM   24  C   UNL     1     -45.173  58.719 -51.019  1.00  0.00     0.001 A 
HETATM   25  C   UNL     1     -44.457  59.808 -51.503  1.00  0.00     0.002 A 
ENDBRANCH   1  15
TORSDOF 5
ENDMDL
MODEL 5
REMARK VINA RESULT:      -7.4      2.104      3.631
REMARK  5 active torsions:
REMARK  status: ('A' for Active; 'I' for Inactive)
REMARK    1  A    between atoms: C_7  and  C_8 
REMARK    2  A    between atoms: N_9  and  N_10 
REMARK       I    between atoms: N_10  and  C_11 
REMARK    3  A    between atoms: C_11  and  C_12 
REMARK    4  A    between atoms: C_12  and  O_13 
REMARK    5  A    between atoms: O_13  and  C_14 
ROOT
HETATM    1  C   UNL     1     -40.926  54.781 -53.569  1.00  0.00     0.147 C 
HETATM    2  N   UNL     1     -42.065  55.410 -53.583  1.00  0.00    -0.205 NA
ENDROOT
BRANCH   2   3
HETATM    3  N   UNL     1     -43.093  55.056 -52.754  1.00  0.00    -0.149 NA
HETATM    4  C   UNL     1     -43.651  55.923 -51.828  1.00  0.00     0.241 C 
HETATM    5  O   UNL     1     -44.021  55.465 -50.744  1.00  0.00    -0.276 OA
HETATM    6  H   UNL     1     -42.910  54.175 -52.277  1.00  0.00     0.158 HD
BRANCH   4   7
HETATM    7  C   UNL     1     -43.863  57.376 -52.238  1.00  0.00     0.273 C 
BRANCH   7   8
HETATM    8  O   UNL     1     -43.253  58.272 -51.316  1.00  0.00    -0.343 OA
BRANCH   8   9
HETATM    9  C   UNL     1     -41.928  58.552 -51.509  1.00  0.00     0.069 A 
HETATM   10  C   UNL     1     -41.241  58.934 -50.354  1.00  0.00     0.037 A 
HETATM   11  C   UNL     1     -39.887  59.268 -50.408  1.00  0.00     0.003 A 
HETATM   12  C   UNL     1     -39.209  59.224 -51.623  1.00  0.00     0.000 A 
HETATM   13  C   UNL     1     -39.886  58.842 -52.780  1.00  0.00     0.003 A 
HETATM   14  C   UNL     1     -41.240  58.501 -52.724  1.00  0.00     0.037 A 
ENDBRANCH   8   9
ENDBRANCH   7   8
ENDBRANCH   4   7
ENDBRANCH   2   3
BRANCH   1  15
HETATM   15  C   UNL     1     -40.515  53.663 -52.740  1.00  0.00     0.017 A 
HETATM   16  C   UNL     1     -40.296  53.799 -51.372  1.00  0.00     0.018 A 
HETATM   17  C   UNL     1     -40.408  54.986 -50.482  1.00  0.00     0.069 C 
HETATM   18  N   UNL     1     -39.890  52.583 -50.888  1.00  0.00    -0.358 N 
HETATM   19  H   UNL     1     -39.651  52.385 -49.924  1.00  0.00     0.166 HD
HETATM   20  C   UNL     1     -39.858  51.650 -51.894  1.00  0.00     0.043 A 
HETATM   21  C   UNL     1     -40.280  52.285 -53.065  1.00  0.00     0.004 A 
HETATM   22  C   UNL     1     -39.499  50.298 -51.845  1.00  0.00     0.030 A 
HETATM   23  C   UNL     1     -40.387  51.502 -54.234  1.00  0.00     0.014 A 
HETATM   24  C   UNL     1     -40.028  50.149 -54.204  1.00  0.00     0.001 A 
HETATM   25  C   UNL     1     -39.584  49.559 -53.026  1.00  0.00     0.002 A 
ENDBRANCH   1  15
TORSDOF 5
ENDMDL
MODEL 6
REMARK VINA RESULT:      -7.2      2.496      3.722
REMARK  5 active torsions:
REMARK  status: ('A' for Active; 'I' for Inactive)
REMARK    1  A    between atoms: C_7  and  C_8 
REMARK    2  A    between atoms: N_9  and  N_10 
REMARK       I    between atoms: N_10  and  C_11 
REMARK    3  A    between atoms: C_11  and  C_12 
REMARK    4  A    between atoms: C_12  and  O_13 
REMARK    5  A    between atoms: O_13  and  C_14 
ROOT
HETATM    1  C   UNL     1     -40.218  54.207 -54.915  1.00  0.00     0.147 C 
HETATM    2  N   UNL     1     -41.210  54.587 -55.666  1.00  0.00    -0.205 NA
ENDROOT
BRANCH   2   3
HETATM    3  N   UNL     1     -42.506  54.279 -55.358  1.00  0.00    -0.149 NA
HETATM    4  C   UNL     1     -43.375  55.175 -54.756  1.00  0.00     0.241 C 
HETATM    5  O   UNL     1     -44.189  54.744 -53.936  1.00  0.00    -0.276 OA
HETATM    6  H   UNL     1     -42.577  53.398 -54.851  1.00  0.00     0.158 HD
BRANCH   4   7
HETATM    7  C   UNL     1     -43.339  56.630 -55.213  1.00  0.00     0.273 C 
BRANCH   7   8
HETATM    8  O   UNL     1     -44.085  56.819 -56.409  1.00  0.00    -0.343 OA
BRANCH   8   9
HETATM    9  C   UNL     1     -43.373  57.005 -57.562  1.00  0.00     0.069 A 
HETATM   10  C   UNL     1     -43.426  55.934 -58.458  1.00  0.00     0.037 A 
HETATM   11  C   UNL     1     -42.730  55.980 -59.666  1.00  0.00     0.003 A 
HETATM   12  C   UNL     1     -41.968  57.101 -59.985  1.00  0.00     0.000 A 
HETATM   13  C   UNL     1     -41.911  58.176 -59.099  1.00  0.00     0.003 A 
HETATM   14  C   UNL     1     -42.616  58.131 -57.893  1.00  0.00     0.037 A 
ENDBRANCH   8   9
ENDBRANCH   7   8
ENDBRANCH   4   7
ENDBRANCH   2   3
BRANCH   1  15
HETATM   15  C   UNL     1     -40.252  53.442 -53.682  1.00  0.00     0.017 A 
HETATM   16  C   UNL     1     -40.587  54.023 -52.462  1.00  0.00     0.018 A 
HETATM   17  C   UNL     1     -40.959  55.422 -52.119  1.00  0.00     0.069 C 
HETATM   18  N   UNL     1     -40.496  53.056 -51.496  1.00  0.00    -0.358 N 
HETATM   19  H   UNL     1     -40.675  53.193 -50.509  1.00  0.00     0.166 HD
HETATM   20  C   UNL     1     -40.133  51.854 -52.051  1.00  0.00     0.043 A 
HETATM   21  C   UNL     1     -40.007  52.052 -53.428  1.00  0.00     0.004 A 
HETATM   22  C   UNL     1     -39.920  50.615 -51.434  1.00  0.00     0.030 A 
HETATM   23  C   UNL     1     -39.695  50.930 -54.226  1.00  0.00     0.014 A 
HETATM   24  C   UNL     1     -39.476  49.685 -53.626  1.00  0.00     0.001 A 
HETATM   25  C   UNL     1     -39.580  49.533 -52.248  1.00  0.00     0.002 A 
ENDBRANCH   1  15
TORSDOF 5
ENDMDL
MODEL 7
REMARK VINA RESULT:      -7.1      2.232      4.313
REMARK  5 active torsions:
REMARK  status: ('A' for Active; 'I' for Inactive)
REMARK    1  A    between atoms: C_7  and  C_8 
REMARK    2  A    between atoms: N_9  and  N_10 
REMARK       I    between atoms: N_10  and  C_11 
REMARK    3  A    between atoms: C_11  and  C_12 
REMARK    4  A    between atoms: C_12  and  O_13 
REMARK    5  A    between atoms: O_13  and  C_14 
ROOT
HETATM    1  C   UNL     1     -40.895  55.068 -54.131  1.00  0.00     0.147 C 
HETATM    2  N   UNL     1     -41.957  55.693 -54.551  1.00  0.00    -0.205 NA
ENDROOT
BRANCH   2   3
HETATM    3  N   UNL     1     -43.131  55.665 -53.853  1.00  0.00    -0.149 NA
HETATM    4  C   UNL     1     -43.614  56.750 -53.138  1.00  0.00     0.241 C 
HETATM    5  O   UNL     1     -44.204  56.538 -52.076  1.00  0.00    -0.276 OA
HETATM    6  H   UNL     1     -43.194  54.848 -53.247  1.00  0.00     0.158 HD
BRANCH   4   7
HETATM    7  C   UNL     1     -43.472  58.138 -53.754  1.00  0.00     0.273 C 
BRANCH   7   8
HETATM    8  O   UNL     1     -43.306  59.137 -52.754  1.00  0.00    -0.343 OA
BRANCH   8   9
HETATM    9  C   UNL     1     -42.088  59.196 -52.134  1.00  0.00     0.069 A 
HETATM   10  C   UNL     1     -40.996  58.961 -52.973  1.00  0.00     0.037 A 
HETATM   11  C   UNL     1     -39.695  58.972 -52.469  1.00  0.00     0.003 A 
HETATM   12  C   UNL     1     -39.477  59.216 -51.116  1.00  0.00     0.000 A 
HETATM   13  C   UNL     1     -40.560  59.454 -50.271  1.00  0.00     0.003 A 
HETATM   14  C   UNL     1     -41.863  59.450 -50.779  1.00  0.00     0.037 A 
ENDBRANCH   8   9
ENDBRANCH   7   8
ENDBRANCH   4   7
ENDBRANCH   2   3
BRANCH   1  15
HETATM   15  C   UNL     1     -40.723  54.273 -52.930  1.00  0.00     0.017 A 
HETATM   16  C   UNL     1     -40.379  52.925 -52.980  1.00  0.00     0.018 A 
HETATM   17  C   UNL     1     -40.123  52.028 -54.139  1.00  0.00     0.069 C 
HETATM   18  N   UNL     1     -40.326  52.456 -51.693  1.00  0.00    -0.358 N 
HETATM   19  H   UNL     1     -40.107  51.506 -51.424  1.00  0.00     0.166 HD
HETATM   20  C   UNL     1     -40.603  53.463 -50.802  1.00  0.00     0.043 A 
HETATM   21  C   UNL     1     -40.822  54.627 -51.543  1.00  0.00     0.004 A 
HETATM   22  C   UNL     1     -40.664  53.424 -49.404  1.00  0.00     0.030 A 
HETATM   23  C   UNL     1     -41.069  55.821 -50.832  1.00  0.00     0.014 A 
HETATM   24  C   UNL     1     -41.137  55.800 -49.434  1.00  0.00     0.001 A 
HETATM   25  C   UNL     1     -40.944  54.615 -48.732  1.00  0.00     0.002 A 
ENDBRANCH   1  15
TORSDOF 5
ENDMDL
MODEL 8
REMARK VINA RESULT:      -7.1      1.763      2.461
REMARK  5 active torsions:
REMARK  status: ('A' for Active; 'I' for Inactive)
REMARK    1  A    between atoms: C_7  and  C_8 
REMARK    2  A    between atoms: N_9  and  N_10 
REMARK       I    between atoms: N_10  and  C_11 
REMARK    3  A    between atoms: C_11  and  C_12 
REMARK    4  A    between atoms: C_12  and  O_13 
REMARK    5  A    between atoms: O_13  and  C_14 
ROOT
HETATM    1  C   UNL     1     -41.297  56.403 -51.398  1.00  0.00     0.147 C 
HETATM    2  N   UNL     1     -42.305  56.983 -51.981  1.00  0.00    -0.205 NA
ENDROOT
BRANCH   2   3
HETATM    3  N   UNL     1     -43.209  56.278 -52.726  1.00  0.00    -0.149 NA
HETATM    4  C   UNL     1     -43.538  56.611 -54.031  1.00  0.00     0.241 C 
HETATM    5  O   UNL     1     -44.704  56.452 -54.400  1.00  0.00    -0.276 OA
HETATM    6  H   UNL     1     -44.080  56.123 -52.222  1.00  0.00     0.158 HD
BRANCH   4   7
HETATM    7  C   UNL     1     -42.419  57.065 -54.963  1.00  0.00     0.273 C 
BRANCH   7   8
HETATM    8  O   UNL     1     -42.921  57.870 -56.024  1.00  0.00    -0.343 OA
BRANCH   8   9
HETATM    9  C   UNL     1     -42.753  57.395 -57.296  1.00  0.00     0.069 A 
HETATM   10  C   UNL     1     -42.144  58.293 -58.176  1.00  0.00     0.037 A 
HETATM   11  C   UNL     1     -41.928  57.946 -59.510  1.00  0.00     0.003 A 
HETATM   12  C   UNL     1     -42.326  56.696 -59.976  1.00  0.00     0.000 A 
HETATM   13  C   UNL     1     -42.933  55.793 -59.104  1.00  0.00     0.003 A 
HETATM   14  C   UNL     1     -43.141  56.138 -57.766  1.00  0.00     0.037 A 
ENDBRANCH   8   9
ENDBRANCH   7   8
ENDBRANCH   4   7
ENDBRANCH   2   3
BRANCH   1  15
HETATM   15  C   UNL     1     -40.931  54.999 -51.397  1.00  0.00     0.017 A 
HETATM   16  C   UNL     1     -40.833  54.263 -50.219  1.00  0.00     0.018 A 
HETATM   17  C   UNL     1     -41.048  54.661 -48.802  1.00  0.00     0.069 C 
HETATM   18  N   UNL     1     -40.442  52.992 -50.549  1.00  0.00    -0.358 N 
HETATM   19  H   UNL     1     -40.281  52.239 -49.892  1.00  0.00     0.166 HD
HETATM   20  C   UNL     1     -40.303  52.868 -51.909  1.00  0.00     0.043 A 
HETATM   21  C   UNL     1     -40.638  54.100 -52.476  1.00  0.00     0.004 A 
HETATM   22  C   UNL     1     -39.917  51.757 -52.668  1.00  0.00     0.030 A 
HETATM   23  C   UNL     1     -40.627  54.200 -53.883  1.00  0.00     0.014 A 
HETATM   24  C   UNL     1     -40.240  53.100 -54.658  1.00  0.00     0.001 A 
HETATM   25  C   UNL     1     -39.884  51.898 -54.056  1.00  0.00     0.002 A 
ENDBRANCH   1  15
TORSDOF 5
ENDMDL
MODEL 9
REMARK VINA RESULT:      -7.0      3.625      6.910
REMARK  5 active torsions:
REMARK  status: ('A' for Active; 'I' for Inactive)
REMARK    1  A    between atoms: C_7  and  C_8 
REMARK    2  A    between atoms: N_9  and  N_10 
REMARK       I    between atoms: N_10  and  C_11 
REMARK    3  A    between atoms: C_11  and  C_12 
REMARK    4  A    between atoms: C_12  and  O_13 
REMARK    5  A    between atoms: O_13  and  C_14 
ROOT
HETATM    1  C   UNL     1     -43.337  59.639 -55.700  1.00  0.00     0.147 C 
HETATM    2  N   UNL     1     -42.687  59.789 -54.583  1.00  0.00    -0.205 NA
ENDROOT
BRANCH   2   3
HETATM    3  N   UNL     1     -41.340  59.575 -54.499  1.00  0.00    -0.149 NA
HETATM    4  C   UNL     1     -40.759  58.768 -53.533  1.00  0.00     0.241 C 
HETATM    5  O   UNL     1     -39.666  59.101 -53.069  1.00  0.00    -0.276 OA
HETATM    6  H   UNL     1     -40.814  60.447 -54.524  1.00  0.00     0.158 HD
BRANCH   4   7
HETATM    7  C   UNL     1     -41.461  57.463 -53.169  1.00  0.00     0.273 C 
BRANCH   7   8
HETATM    8  O   UNL     1     -41.537  56.583 -54.284  1.00  0.00    -0.343 OA
BRANCH   8   9
HETATM    9  C   UNL     1     -41.126  55.294 -54.086  1.00  0.00     0.069 A 
HETATM   10  C   UNL     1     -41.237  54.845 -52.767  1.00  0.00     0.037 A 
HETATM   11  C   UNL     1     -40.836  53.555 -52.418  1.00  0.00     0.003 A 
HETATM   12  C   UNL     1     -40.315  52.703 -53.388  1.00  0.00     0.000 A 
HETATM   13  C   UNL     1     -40.203  53.141 -54.707  1.00  0.00     0.003 A 
HETATM   14  C   UNL     1     -40.612  54.431 -55.057  1.00  0.00     0.037 A 
ENDBRANCH   8   9
ENDBRANCH   7   8
ENDBRANCH   4   7
ENDBRANCH   2   3
BRANCH   1  15
HETATM   15  C   UNL     1     -42.828  59.251 -57.003  1.00  0.00     0.017 A 
HETATM   16  C   UNL     1     -42.148  60.144 -57.826  1.00  0.00     0.018 A 
HETATM   17  C   UNL     1     -41.794  61.575 -57.626  1.00  0.00     0.069 C 
HETATM   18  N   UNL     1     -41.831  59.489 -58.986  1.00  0.00    -0.358 N 
HETATM   19  H   UNL     1     -41.340  59.894 -59.774  1.00  0.00     0.166 HD
HETATM   20  C   UNL     1     -42.264  58.187 -58.938  1.00  0.00     0.043 A 
HETATM   21  C   UNL     1     -42.863  57.993 -57.691  1.00  0.00     0.004 A 
HETATM   22  C   UNL     1     -42.157  57.176 -59.901  1.00  0.00     0.030 A 
HETATM   23  C   UNL     1     -43.336  56.699 -57.385  1.00  0.00     0.014 A 
HETATM   24  C   UNL     1     -43.241  55.677 -58.337  1.00  0.00     0.001 A 
HETATM   25  C   UNL     1     -42.665  55.916 -59.579  1.00  0.00     0.002 A 
ENDBRANCH   1  15
TORSDOF 5
ENDMDL
MODEL 10
REMARK VINA RESULT:      -6.9      2.347      3.945
REMARK  5 active torsions:
REMARK  status: ('A' for Active; 'I' for Inactive)
REMARK    1  A    between atoms: C_7  and  C_8 
REMARK    2  A    between atoms: N_9  and  N_10 
REMARK       I    between atoms: N_10  and  C_11 
REMARK    3  A    between atoms: C_11  and  C_12 
REMARK    4  A    between atoms: C_12  and  O_13 
REMARK    5  A    between atoms: O_13  and  C_14 
ROOT
HETATM    1  C   UNL     1     -40.392  53.619 -54.600  1.00  0.00     0.147 C 
HETATM    2  N   UNL     1     -41.413  54.188 -55.172  1.00  0.00    -0.205 NA
ENDROOT
BRANCH   2   3
HETATM    3  N   UNL     1     -42.593  54.381 -54.510  1.00  0.00    -0.149 NA
HETATM    4  C   UNL     1     -43.145  55.634 -54.294  1.00  0.00     0.241 C 
HETATM    5  O   UNL     1     -43.736  55.839 -53.231  1.00  0.00    -0.276 OA
HETATM    6  H   UNL     1     -42.619  53.879 -53.624  1.00  0.00     0.158 HD
BRANCH   4   7
HETATM    7  C   UNL     1     -43.072  56.657 -55.423  1.00  0.00     0.273 C 
BRANCH   7   8
HETATM    8  O   UNL     1     -43.575  56.123 -56.642  1.00  0.00    -0.343 OA
BRANCH   8   9
HETATM    9  C   UNL     1     -43.008  56.581 -57.800  1.00  0.00     0.069 A 
HETATM   10  C   UNL     1     -42.423  57.846 -57.700  1.00  0.00     0.037 A 
HETATM   11  C   UNL     1     -41.825  58.443 -58.810  1.00  0.00     0.003 A 
HETATM   12  C   UNL     1     -41.812  57.778 -60.033  1.00  0.00     0.000 A 
HETATM   13  C   UNL     1     -42.391  56.516 -60.142  1.00  0.00     0.003 A 
HETATM   14  C   UNL     1     -42.983  55.914 -59.027  1.00  0.00     0.037 A 
ENDBRANCH   8   9
ENDBRANCH   7   8
ENDBRANCH   4   7
ENDBRANCH   2   3
BRANCH   1  15
HETATM   15  C   UNL     1     -40.276  53.107 -53.247  1.00  0.00     0.017 A 
HETATM   16  C   UNL     1     -39.900  51.792 -52.986  1.00  0.00     0.018 A 
HETATM   17  C   UNL     1     -39.555  50.676 -53.907  1.00  0.00     0.069 C 
HETATM   18  N   UNL     1     -39.915  51.612 -51.627  1.00  0.00    -0.358 N 
HETATM   19  H   UNL     1     -39.693  50.750 -51.147  1.00  0.00     0.166 HD
HETATM   20  C   UNL     1     -40.267  52.777 -50.992  1.00  0.00     0.043 A 
HETATM   21  C   UNL     1     -40.466  53.746 -51.978  1.00  0.00     0.004 A 
HETATM   22  C   UNL     1     -40.412  53.037 -49.623  1.00  0.00     0.030 A 
HETATM   23  C   UNL     1     -40.781  55.056 -51.556  1.00  0.00     0.014 A 
HETATM   24  C   UNL     1     -40.933  55.333 -50.193  1.00  0.00     0.001 A 
HETATM   25  C   UNL     1     -40.757  54.334 -49.242  1.00  0.00     0.002 A 
ENDBRANCH   1  15
TORSDOF 5
ENDMDL
