MODEL 1
REMARK VINA RESULT:      -8.8      0.000      0.000
REMARK  3 active torsions:
REMARK  status: ('A' for Active; 'I' for Inactive)
REMARK    1  A    between atoms: N_4  and  C_5 
REMARK    2  A    between atoms: C_5  and  C_6 
REMARK       I    between atoms: C_6  and  N_7 
REMARK    3  A    between atoms: N_7  and  C_8 
ROOT
HETATM    1  C   UNL     1     -42.099  58.136 -53.369  1.00  0.00     0.257 C 
ENDROOT
BRANCH   1   2
HETATM    2  N   UNL     1     -42.438  57.710 -54.728  1.00  0.00    -0.225 N 
HETATM    3  N   UNL     1     -42.801  56.389 -54.858  1.00  0.00    -0.173 NA
HETATM    4  C   UNL     1     -42.934  55.874 -56.041  1.00  0.00     0.062 A 
HETATM    5  C   UNL     1     -43.313  54.413 -56.128  1.00  0.00     0.073 C 
HETATM    6  C   UNL     1     -42.715  56.634 -57.286  1.00  0.00     0.006 A 
HETATM    7  C   UNL     1     -42.332  57.965 -57.154  1.00  0.00     0.046 A 
HETATM    8  C   UNL     1     -42.866  56.074 -58.560  1.00  0.00     0.014 A 
HETATM    9  C   UNL     1     -42.143  58.535 -55.808  1.00  0.00     0.275 A 
HETATM   10  C   UNL     1     -42.109  58.748 -58.294  1.00  0.00     0.018 A 
HETATM   11  O   UNL     1     -41.747  59.694 -55.687  1.00  0.00    -0.266 OA
HETATM   12  C   UNL     1     -42.262  58.191 -59.564  1.00  0.00     0.001 A 
HETATM   13  C   UNL     1     -42.636  56.855 -59.695  1.00  0.00     0.001 A 
ENDBRANCH   1   2
BRANCH   1  14
HETATM   14  C   UNL     1     -42.132  57.051 -52.288  1.00  0.00     0.238 C 
HETATM   15  N   UNL     1     -41.215  56.035 -52.433  1.00  0.00    -0.351 N 
HETATM   16  H   UNL     1     -40.560  56.076 -53.214  1.00  0.00     0.163 HD
HETATM   17  O   UNL     1     -43.025  57.007 -51.442  1.00  0.00    -0.272 OA
BRANCH  15  18
HETATM   18  C   UNL     1     -41.305  54.820 -51.664  1.00  0.00     0.118 C 
HETATM   19  C   UNL     1     -40.718  53.623 -52.361  1.00  0.00    -0.029 A 
HETATM   20  C   UNL     1     -40.025  52.815 -51.449  1.00  0.00    -0.050 A 
HETATM   21  C   UNL     1     -40.850  53.240 -53.688  1.00  0.00     0.010 A 
HETATM   22  C   UNL     1     -39.450  51.618 -51.843  1.00  0.00     0.007 A 
HETATM   23  C   UNL     1     -40.076  53.403 -50.073  1.00  0.00     0.041 C 
HETATM   24  C   UNL     1     -39.566  51.237 -53.181  1.00  0.00     0.001 A 
HETATM   25  C   UNL     1     -40.260  52.042 -54.098  1.00  0.00     0.001 A 
HETATM   26  C   UNL     1     -40.457  54.858 -50.379  1.00  0.00     0.034 C 
ENDBRANCH  15  18
ENDBRANCH   1  14
TORSDOF 3
ENDMDL
MODEL 2
REMARK VINA RESULT:      -8.7      1.769      7.677
REMARK  3 active torsions:
REMARK  status: ('A' for Active; 'I' for Inactive)
REMARK    1  A    between atoms: N_4  and  C_5 
REMARK    2  A    between atoms: C_5  and  C_6 
REMARK       I    between atoms: C_6  and  N_7 
REMARK    3  A    between atoms: N_7  and  C_8 
ROOT
HETATM    1  C   UNL     1     -40.925  56.038 -54.132  1.00  0.00     0.257 C 
ENDROOT
BRANCH   1   2
HETATM    2  N   UNL     1     -40.791  54.727 -53.495  1.00  0.00    -0.225 N 
HETATM    3  N   UNL     1     -40.720  54.744 -52.121  1.00  0.00    -0.173 NA
HETATM    4  C   UNL     1     -40.412  53.658 -51.481  1.00  0.00     0.062 A 
HETATM    5  C   UNL     1     -40.326  53.736 -49.974  1.00  0.00     0.073 C 
HETATM    6  C   UNL     1     -40.126  52.376 -52.151  1.00  0.00     0.006 A 
HETATM    7  C   UNL     1     -40.182  52.362 -53.541  1.00  0.00     0.046 A 
HETATM    8  C   UNL     1     -39.800  51.206 -51.455  1.00  0.00     0.014 A 
HETATM    9  C   UNL     1     -40.493  53.608 -54.266  1.00  0.00     0.275 A 
HETATM   10  C   UNL     1     -39.924  51.178 -54.244  1.00  0.00     0.018 A 
HETATM   11  O   UNL     1     -40.485  53.616 -55.496  1.00  0.00    -0.266 OA
HETATM   12  C   UNL     1     -39.601  50.012 -53.550  1.00  0.00     0.001 A 
HETATM   13  C   UNL     1     -39.536  50.027 -52.157  1.00  0.00     0.001 A 
ENDBRANCH   1   2
BRANCH   1  14
HETATM   14  C   UNL     1     -42.157  56.240 -55.019  1.00  0.00     0.238 C 
HETATM   15  N   UNL     1     -41.933  56.177 -56.376  1.00  0.00    -0.351 N 
HETATM   16  H   UNL     1     -40.989  55.974 -56.706  1.00  0.00     0.163 HD
HETATM   17  O   UNL     1     -43.239  56.596 -54.553  1.00  0.00    -0.272 OA
BRANCH  15  18
HETATM   18  C   UNL     1     -42.924  56.614 -57.327  1.00  0.00     0.118 C 
HETATM   19  C   UNL     1     -42.535  57.864 -58.068  1.00  0.00    -0.029 A 
HETATM   20  C   UNL     1     -42.918  57.776 -59.413  1.00  0.00    -0.050 A 
HETATM   21  C   UNL     1     -41.953  59.022 -57.571  1.00  0.00     0.010 A 
HETATM   22  C   UNL     1     -42.726  58.835 -60.285  1.00  0.00     0.007 A 
HETATM   23  C   UNL     1     -43.582  56.463 -59.692  1.00  0.00     0.041 C 
HETATM   24  C   UNL     1     -42.125  59.996 -59.794  1.00  0.00     0.001 A 
HETATM   25  C   UNL     1     -41.740  60.089 -58.447  1.00  0.00     0.001 A 
HETATM   26  C   UNL     1     -43.113  55.627 -58.493  1.00  0.00     0.034 C 
ENDBRANCH  15  18
ENDBRANCH   1  14
TORSDOF 3
ENDMDL
MODEL 3
REMARK VINA RESULT:      -8.5      2.615      6.773
REMARK  3 active torsions:
REMARK  status: ('A' for Active; 'I' for Inactive)
REMARK    1  A    between atoms: N_4  and  C_5 
REMARK    2  A    between atoms: C_5  and  C_6 
REMARK       I    between atoms: C_6  and  N_7 
REMARK    3  A    between atoms: N_7  and  C_8 
ROOT
HETATM    1  C   UNL     1     -41.226  55.195 -50.136  1.00  0.00     0.257 C 
ENDROOT
BRANCH   1   2
HETATM    2  N   UNL     1     -40.738  54.267 -51.157  1.00  0.00    -0.225 N 
HETATM    3  N   UNL     1     -40.878  54.695 -52.458  1.00  0.00    -0.173 NA
HETATM    4  C   UNL     1     -40.652  53.869 -53.432  1.00  0.00     0.062 A 
HETATM    5  C   UNL     1     -40.841  54.384 -54.841  1.00  0.00     0.073 C 
HETATM    6  C   UNL     1     -40.245  52.467 -53.229  1.00  0.00     0.006 A 
HETATM    7  C   UNL     1     -40.119  52.029 -51.915  1.00  0.00     0.046 A 
HETATM    8  C   UNL     1     -39.997  51.582 -54.285  1.00  0.00     0.014 A 
HETATM    9  C   UNL     1     -40.416  52.959 -50.810  1.00  0.00     0.275 A 
HETATM   10  C   UNL     1     -39.734  50.709 -51.647  1.00  0.00     0.018 A 
HETATM   11  O   UNL     1     -40.364  52.560 -49.646  1.00  0.00    -0.266 OA
HETATM   12  C   UNL     1     -39.484  49.828 -52.699  1.00  0.00     0.001 A 
HETATM   13  C   UNL     1     -39.619  50.264 -54.016  1.00  0.00     0.001 A 
ENDBRANCH   1   2
BRANCH   1  14
HETATM   14  C   UNL     1     -41.517  56.626 -50.601  1.00  0.00     0.238 C 
HETATM   15  N   UNL     1     -42.819  56.882 -50.964  1.00  0.00    -0.351 N 
HETATM   16  H   UNL     1     -43.507  56.134 -50.877  1.00  0.00     0.163 HD
HETATM   17  O   UNL     1     -40.614  57.441 -50.790  1.00  0.00    -0.272 OA
BRANCH  15  18
HETATM   18  C   UNL     1     -43.184  58.083 -51.673  1.00  0.00     0.118 C 
HETATM   19  C   UNL     1     -43.604  57.836 -53.096  1.00  0.00    -0.029 A 
HETATM   20  C   UNL     1     -44.689  58.656 -53.436  1.00  0.00    -0.050 A 
HETATM   21  C   UNL     1     -43.023  57.003 -54.041  1.00  0.00     0.010 A 
HETATM   22  C   UNL     1     -45.214  58.657 -54.717  1.00  0.00     0.007 A 
HETATM   23  C   UNL     1     -45.096  59.509 -52.274  1.00  0.00     0.041 C 
HETATM   24  C   UNL     1     -44.643  57.807 -55.667  1.00  0.00     0.001 A 
HETATM   25  C   UNL     1     -43.556  56.986 -55.332  1.00  0.00     0.001 A 
HETATM   26  C   UNL     1     -44.447  58.755 -51.105  1.00  0.00     0.034 C 
ENDBRANCH  15  18
ENDBRANCH   1  14
TORSDOF 3
ENDMDL
MODEL 4
REMARK VINA RESULT:      -8.4      1.426      7.039
REMARK  3 active torsions:
REMARK  status: ('A' for Active; 'I' for Inactive)
REMARK    1  A    between atoms: N_4  and  C_5 
REMARK    2  A    between atoms: C_5  and  C_6 
REMARK       I    between atoms: C_6  and  N_7 
REMARK    3  A    between atoms: N_7  and  C_8 
ROOT
HETATM    1  C   UNL     1     -42.864  56.371 -53.063  1.00  0.00     0.257 C 
ENDROOT
BRANCH   1   2
HETATM    2  N   UNL     1     -42.158  55.121 -52.772  1.00  0.00    -0.225 N 
HETATM    3  N   UNL     1     -41.471  55.097 -51.580  1.00  0.00    -0.173 NA
HETATM    4  C   UNL     1     -40.666  54.113 -51.323  1.00  0.00     0.062 A 
HETATM    5  C   UNL     1     -39.919  54.146 -50.009  1.00  0.00     0.073 C 
HETATM    6  C   UNL     1     -40.436  52.991 -52.252  1.00  0.00     0.006 A 
HETATM    7  C   UNL     1     -41.118  53.023 -53.464  1.00  0.00     0.046 A 
HETATM    8  C   UNL     1     -39.570  51.928 -51.967  1.00  0.00     0.014 A 
HETATM    9  C   UNL     1     -42.001  54.164 -53.768  1.00  0.00     0.275 A 
HETATM   10  C   UNL     1     -40.949  51.989 -54.394  1.00  0.00     0.018 A 
HETATM   11  O   UNL     1     -42.560  54.227 -54.863  1.00  0.00    -0.266 OA
HETATM   12  C   UNL     1     -40.089  50.928 -54.109  1.00  0.00     0.001 A 
HETATM   13  C   UNL     1     -39.398  50.901 -52.899  1.00  0.00     0.001 A 
ENDBRANCH   1   2
BRANCH   1  14
HETATM   14  C   UNL     1     -42.266  57.248 -54.167  1.00  0.00     0.238 C 
HETATM   15  N   UNL     1     -42.947  57.250 -55.363  1.00  0.00    -0.351 N 
HETATM   16  H   UNL     1     -43.807  56.707 -55.437  1.00  0.00     0.163 HD
HETATM   17  O   UNL     1     -41.164  57.783 -54.042  1.00  0.00    -0.272 OA
BRANCH  15  18
HETATM   18  C   UNL     1     -42.366  57.799 -56.562  1.00  0.00     0.118 C 
HETATM   19  C   UNL     1     -42.896  57.177 -57.826  1.00  0.00    -0.029 A 
HETATM   20  C   UNL     1     -43.073  58.153 -58.816  1.00  0.00    -0.050 A 
HETATM   21  C   UNL     1     -43.133  55.838 -58.101  1.00  0.00     0.010 A 
HETATM   22  C   UNL     1     -43.492  57.813 -60.092  1.00  0.00     0.007 A 
HETATM   23  C   UNL     1     -42.692  59.507 -58.303  1.00  0.00     0.041 C 
HETATM   24  C   UNL     1     -43.748  56.468 -60.368  1.00  0.00     0.001 A 
HETATM   25  C   UNL     1     -43.570  55.488 -59.380  1.00  0.00     0.001 A 
HETATM   26  C   UNL     1     -42.734  59.278 -56.786  1.00  0.00     0.034 C 
ENDBRANCH  15  18
ENDBRANCH   1  14
TORSDOF 3
ENDMDL
MODEL 5
REMARK VINA RESULT:      -8.1      1.542      2.108
REMARK  3 active torsions:
REMARK  status: ('A' for Active; 'I' for Inactive)
REMARK    1  A    between atoms: N_4  and  C_5 
REMARK    2  A    between atoms: C_5  and  C_6 
REMARK       I    between atoms: C_6  and  N_7 
REMARK    3  A    between atoms: N_7  and  C_8 
ROOT
HETATM    1  C   UNL     1     -41.983  57.890 -53.950  1.00  0.00     0.257 C 
ENDROOT
BRANCH   1   2
HETATM    2  N   UNL     1     -42.643  57.814 -55.254  1.00  0.00    -0.225 N 
HETATM    3  N   UNL     1     -43.645  58.735 -55.463  1.00  0.00    -0.173 NA
HETATM    4  C   UNL     1     -44.410  58.626 -56.504  1.00  0.00     0.062 A 
HETATM    5  C   UNL     1     -45.508  59.651 -56.674  1.00  0.00     0.073 C 
HETATM    6  C   UNL     1     -44.270  57.551 -57.504  1.00  0.00     0.006 A 
HETATM    7  C   UNL     1     -43.269  56.611 -57.285  1.00  0.00     0.046 A 
HETATM    8  C   UNL     1     -45.096  57.442 -58.629  1.00  0.00     0.014 A 
HETATM    9  C   UNL     1     -42.428  56.715 -56.079  1.00  0.00     0.275 A 
HETATM   10  C   UNL     1     -43.078  55.562 -58.195  1.00  0.00     0.018 A 
HETATM   11  O   UNL     1     -41.580  55.852 -55.850  1.00  0.00    -0.266 OA
HETATM   12  C   UNL     1     -43.898  55.455 -59.318  1.00  0.00     0.001 A 
HETATM   13  C   UNL     1     -44.908  56.392 -59.532  1.00  0.00     0.001 A 
ENDBRANCH   1   2
BRANCH   1  14
HETATM   14  C   UNL     1     -42.296  56.760 -52.963  1.00  0.00     0.238 C 
HETATM   15  N   UNL     1     -41.234  55.953 -52.623  1.00  0.00    -0.351 N 
HETATM   16  H   UNL     1     -40.315  56.164 -53.012  1.00  0.00     0.163 HD
HETATM   17  O   UNL     1     -43.450  56.497 -52.626  1.00  0.00    -0.272 OA
BRANCH  15  18
HETATM   18  C   UNL     1     -41.426  54.703 -51.932  1.00  0.00     0.118 C 
HETATM   19  C   UNL     1     -40.776  53.532 -52.618  1.00  0.00    -0.029 A 
HETATM   20  C   UNL     1     -40.202  52.669 -51.675  1.00  0.00    -0.050 A 
HETATM   21  C   UNL     1     -40.758  53.217 -53.969  1.00  0.00     0.010 A 
HETATM   22  C   UNL     1     -39.599  51.483 -52.061  1.00  0.00     0.007 A 
HETATM   23  C   UNL     1     -40.406  53.188 -50.285  1.00  0.00     0.041 C 
HETATM   24  C   UNL     1     -39.564  51.171 -53.421  1.00  0.00     0.001 A 
HETATM   25  C   UNL     1     -40.138  52.031 -54.369  1.00  0.00     0.001 A 
HETATM   26  C   UNL     1     -40.732  54.663 -50.558  1.00  0.00     0.034 C 
ENDBRANCH  15  18
ENDBRANCH   1  14
TORSDOF 3
ENDMDL
MODEL 6
REMARK VINA RESULT:      -8.0      2.389      2.687
REMARK  3 active torsions:
REMARK  status: ('A' for Active; 'I' for Inactive)
REMARK    1  A    between atoms: N_4  and  C_5 
REMARK    2  A    between atoms: C_5  and  C_6 
REMARK       I    between atoms: C_6  and  N_7 
REMARK    3  A    between atoms: N_7  and  C_8 
ROOT
HETATM    1  C   UNL     1     -42.380  56.689 -55.520  1.00  0.00     0.257 C 
ENDROOT
BRANCH   1   2
HETATM    2  N   UNL     1     -43.427  56.819 -56.535  1.00  0.00    -0.225 N 
HETATM    3  N   UNL     1     -43.219  56.101 -57.691  1.00  0.00    -0.173 NA
HETATM    4  C   UNL     1     -43.989  56.299 -58.716  1.00  0.00     0.062 A 
HETATM    5  C   UNL     1     -43.705  55.500 -59.967  1.00  0.00     0.073 C 
HETATM    6  C   UNL     1     -45.100  57.269 -58.720  1.00  0.00     0.006 A 
HETATM    7  C   UNL     1     -45.299  58.006 -57.558  1.00  0.00     0.046 A 
HETATM    8  C   UNL     1     -45.931  57.474 -59.828  1.00  0.00     0.014 A 
HETATM    9  C   UNL     1     -44.397  57.808 -56.409  1.00  0.00     0.275 A 
HETATM   10  C   UNL     1     -46.337  58.945 -57.490  1.00  0.00     0.018 A 
HETATM   11  O   UNL     1     -44.532  58.499 -55.400  1.00  0.00    -0.266 OA
HETATM   12  C   UNL     1     -47.167  59.148 -58.593  1.00  0.00     0.001 A 
HETATM   13  C   UNL     1     -46.961  58.415 -59.761  1.00  0.00     0.001 A 
ENDBRANCH   1   2
BRANCH   1  14
HETATM   14  C   UNL     1     -42.670  55.725 -54.365  1.00  0.00     0.238 C 
HETATM   15  N   UNL     1     -41.639  55.536 -53.472  1.00  0.00    -0.351 N 
HETATM   16  H   UNL     1     -40.773  56.057 -53.608  1.00  0.00     0.163 HD
HETATM   17  O   UNL     1     -43.695  55.045 -54.331  1.00  0.00    -0.272 OA
BRANCH  15  18
HETATM   18  C   UNL     1     -41.663  54.467 -52.506  1.00  0.00     0.118 C 
HETATM   19  C   UNL     1     -40.925  53.235 -52.954  1.00  0.00    -0.029 A 
HETATM   20  C   UNL     1     -40.218  52.671 -51.884  1.00  0.00    -0.050 A 
HETATM   21  C   UNL     1     -40.939  52.619 -54.197  1.00  0.00     0.010 A 
HETATM   22  C   UNL     1     -39.511  51.489 -52.034  1.00  0.00     0.007 A 
HETATM   23  C   UNL     1     -40.409  53.476 -50.636  1.00  0.00     0.041 C 
HETATM   24  C   UNL     1     -39.508  50.875 -53.288  1.00  0.00     0.001 A 
HETATM   25  C   UNL     1     -40.216  51.435 -54.362  1.00  0.00     0.001 A 
HETATM   26  C   UNL     1     -40.904  54.811 -51.211  1.00  0.00     0.034 C 
ENDBRANCH  15  18
ENDBRANCH   1  14
TORSDOF 3
ENDMDL
MODEL 7
REMARK VINA RESULT:      -8.0      1.665      6.927
REMARK  3 active torsions:
REMARK  status: ('A' for Active; 'I' for Inactive)
REMARK    1  A    between atoms: N_4  and  C_5 
REMARK    2  A    between atoms: C_5  and  C_6 
REMARK       I    between atoms: C_6  and  N_7 
REMARK    3  A    between atoms: N_7  and  C_8 
ROOT
HETATM    1  C   UNL     1     -42.827  56.418 -51.706  1.00  0.00     0.257 C 
ENDROOT
BRANCH   1   2
HETATM    2  N   UNL     1     -41.888  55.335 -52.000  1.00  0.00    -0.225 N 
HETATM    3  N   UNL     1     -41.501  55.231 -53.317  1.00  0.00    -0.173 NA
HETATM    4  C   UNL     1     -40.825  54.195 -53.707  1.00  0.00     0.062 A 
HETATM    5  C   UNL     1     -40.444  54.120 -55.168  1.00  0.00     0.073 C 
HETATM    6  C   UNL     1     -40.436  53.094 -52.806  1.00  0.00     0.006 A 
HETATM    7  C   UNL     1     -40.841  53.191 -51.479  1.00  0.00     0.046 A 
HETATM    8  C   UNL     1     -39.702  51.981 -53.232  1.00  0.00     0.014 A 
HETATM    9  C   UNL     1     -41.643  54.350 -51.048  1.00  0.00     0.275 A 
HETATM   10  C   UNL     1     -40.505  52.182 -50.566  1.00  0.00     0.018 A 
HETATM   11  O   UNL     1     -42.054  54.411 -49.890  1.00  0.00    -0.266 OA
HETATM   12  C   UNL     1     -39.771  51.074 -50.990  1.00  0.00     0.001 A 
HETATM   13  C   UNL     1     -39.374  50.973 -52.322  1.00  0.00     0.001 A 
ENDBRANCH   1   2
BRANCH   1  14
HETATM   14  C   UNL     1     -42.924  57.536 -52.749  1.00  0.00     0.238 C 
HETATM   15  N   UNL     1     -43.758  57.286 -53.815  1.00  0.00    -0.351 N 
HETATM   16  H   UNL     1     -44.276  56.408 -53.835  1.00  0.00     0.163 HD
HETATM   17  O   UNL     1     -42.182  58.517 -52.717  1.00  0.00    -0.272 OA
BRANCH  15  18
HETATM   18  C   UNL     1     -43.742  58.111 -54.996  1.00  0.00     0.118 C 
HETATM   19  C   UNL     1     -43.733  57.325 -56.279  1.00  0.00    -0.029 A 
HETATM   20  C   UNL     1     -44.556  57.935 -57.235  1.00  0.00    -0.050 A 
HETATM   21  C   UNL     1     -42.994  56.194 -56.599  1.00  0.00     0.010 A 
HETATM   22  C   UNL     1     -44.659  57.430 -58.520  1.00  0.00     0.007 A 
HETATM   23  C   UNL     1     -45.193  59.170 -56.677  1.00  0.00     0.041 C 
HETATM   24  C   UNL     1     -43.931  56.283 -58.842  1.00  0.00     0.001 A 
HETATM   25  C   UNL     1     -43.105  55.669 -57.888  1.00  0.00     0.001 A 
HETATM   26  C   UNL     1     -45.029  58.940 -55.168  1.00  0.00     0.034 C 
ENDBRANCH  15  18
ENDBRANCH   1  14
TORSDOF 3
ENDMDL
MODEL 8
REMARK VINA RESULT:      -7.9      2.062      7.996
REMARK  3 active torsions:
REMARK  status: ('A' for Active; 'I' for Inactive)
REMARK    1  A    between atoms: N_4  and  C_5 
REMARK    2  A    between atoms: C_5  and  C_6 
REMARK       I    between atoms: C_6  and  N_7 
REMARK    3  A    between atoms: N_7  and  C_8 
ROOT
HETATM    1  C   UNL     1     -41.052  54.471 -55.053  1.00  0.00     0.257 C 
ENDROOT
BRANCH   1   2
HETATM    2  N   UNL     1     -41.227  54.639 -53.609  1.00  0.00    -0.225 N 
HETATM    3  N   UNL     1     -41.596  55.901 -53.203  1.00  0.00    -0.173 NA
HETATM    4  C   UNL     1     -41.590  56.196 -51.940  1.00  0.00     0.062 A 
HETATM    5  C   UNL     1     -41.982  57.603 -51.550  1.00  0.00     0.073 C 
HETATM    6  C   UNL     1     -41.203  55.239 -50.886  1.00  0.00     0.006 A 
HETATM    7  C   UNL     1     -40.815  53.969 -51.297  1.00  0.00     0.046 A 
HETATM    8  C   UNL     1     -41.205  55.562 -49.523  1.00  0.00     0.014 A 
HETATM    9  C   UNL     1     -40.784  53.650 -52.736  1.00  0.00     0.275 A 
HETATM   10  C   UNL     1     -40.437  53.008 -50.350  1.00  0.00     0.018 A 
HETATM   11  O   UNL     1     -40.385  52.547 -53.109  1.00  0.00    -0.266 OA
HETATM   12  C   UNL     1     -40.441  53.329 -48.992  1.00  0.00     0.001 A 
HETATM   13  C   UNL     1     -40.821  54.605 -48.581  1.00  0.00     0.001 A 
ENDBRANCH   1   2
BRANCH   1  14
HETATM   14  C   UNL     1     -42.280  54.755 -55.924  1.00  0.00     0.238 C 
HETATM   15  N   UNL     1     -42.078  55.618 -56.977  1.00  0.00    -0.351 N 
HETATM   16  H   UNL     1     -41.140  55.986 -57.135  1.00  0.00     0.163 HD
HETATM   17  O   UNL     1     -43.403  54.367 -55.605  1.00  0.00    -0.272 OA
BRANCH  15  18
HETATM   18  C   UNL     1     -43.180  56.188 -57.709  1.00  0.00     0.118 C 
HETATM   19  C   UNL     1     -42.847  57.495 -58.375  1.00  0.00    -0.029 A 
HETATM   20  C   UNL     1     -43.439  57.565 -59.643  1.00  0.00    -0.050 A 
HETATM   21  C   UNL     1     -42.134  58.572 -57.866  1.00  0.00     0.010 A 
HETATM   22  C   UNL     1     -43.329  58.703 -60.425  1.00  0.00     0.007 A 
HETATM   23  C   UNL     1     -44.207  56.314 -59.941  1.00  0.00     0.041 C 
HETATM   24  C   UNL     1     -42.598  59.782 -59.925  1.00  0.00     0.001 A 
HETATM   25  C   UNL     1     -42.004  59.718 -58.655  1.00  0.00     0.001 A 
HETATM   26  C   UNL     1     -43.601  55.339 -58.922  1.00  0.00     0.034 C 
ENDBRANCH  15  18
ENDBRANCH   1  14
TORSDOF 3
ENDMDL
MODEL 9
REMARK VINA RESULT:      -7.8      1.656      7.322
REMARK  3 active torsions:
REMARK  status: ('A' for Active; 'I' for Inactive)
REMARK    1  A    between atoms: N_4  and  C_5 
REMARK    2  A    between atoms: C_5  and  C_6 
REMARK       I    between atoms: C_6  and  N_7 
REMARK    3  A    between atoms: N_7  and  C_8 
ROOT
HETATM    1  C   UNL     1     -43.311  56.455 -53.976  1.00  0.00     0.257 C 
ENDROOT
BRANCH   1   2
HETATM    2  N   UNL     1     -42.585  55.326 -53.394  1.00  0.00    -0.225 N 
HETATM    3  N   UNL     1     -42.224  55.474 -52.074  1.00  0.00    -0.173 NA
HETATM    4  C   UNL     1     -41.419  54.616 -51.529  1.00  0.00     0.062 A 
HETATM    5  C   UNL     1     -41.037  54.838 -50.083  1.00  0.00     0.073 C 
HETATM    6  C   UNL     1     -40.852  53.463 -52.253  1.00  0.00     0.006 A 
HETATM    7  C   UNL     1     -41.203  53.321 -53.591  1.00  0.00     0.046 A 
HETATM    8  C   UNL     1     -39.987  52.536 -51.657  1.00  0.00     0.014 A 
HETATM    9  C   UNL     1     -42.087  54.321 -54.218  1.00  0.00     0.275 A 
HETATM   10  C   UNL     1     -40.704  52.248 -54.340  1.00  0.00     0.018 A 
HETATM   11  O   UNL     1     -42.353  54.234 -55.416  1.00  0.00    -0.266 OA
HETATM   12  C   UNL     1     -39.845  51.323 -53.746  1.00  0.00     0.001 A 
HETATM   13  C   UNL     1     -39.485  51.470 -52.407  1.00  0.00     0.001 A 
ENDBRANCH   1   2
BRANCH   1  14
HETATM   14  C   UNL     1     -42.458  57.607 -54.518  1.00  0.00     0.238 C 
HETATM   15  N   UNL     1     -42.934  58.220 -55.654  1.00  0.00    -0.351 N 
HETATM   16  H   UNL     1     -43.821  57.903 -56.045  1.00  0.00     0.163 HD
HETATM   17  O   UNL     1     -41.343  57.856 -54.060  1.00  0.00    -0.272 OA
BRANCH  15  18
HETATM   18  C   UNL     1     -42.116  59.121 -56.426  1.00  0.00     0.118 C 
HETATM   19  C   UNL     1     -42.157  58.851 -57.905  1.00  0.00    -0.029 A 
HETATM   20  C   UNL     1     -42.178  60.055 -58.623  1.00  0.00    -0.050 A 
HETATM   21  C   UNL     1     -42.104  57.633 -58.568  1.00  0.00     0.010 A 
HETATM   22  C   UNL     1     -42.152  60.066 -60.007  1.00  0.00     0.007 A 
HETATM   23  C   UNL     1     -42.166  61.228 -57.693  1.00  0.00     0.041 C 
HETATM   24  C   UNL     1     -42.116  58.842 -60.679  1.00  0.00     0.001 A 
HETATM   25  C   UNL     1     -42.093  57.634 -59.964  1.00  0.00     0.001 A 
HETATM   26  C   UNL     1     -42.615  60.577 -56.377  1.00  0.00     0.034 C 
ENDBRANCH  15  18
ENDBRANCH   1  14
TORSDOF 3
ENDMDL
MODEL 10
REMARK VINA RESULT:      -7.6      1.384      7.087
REMARK  3 active torsions:
REMARK  status: ('A' for Active; 'I' for Inactive)
REMARK    1  A    between atoms: N_4  and  C_5 
REMARK    2  A    between atoms: C_5  and  C_6 
REMARK       I    between atoms: C_6  and  N_7 
REMARK    3  A    between atoms: N_7  and  C_8 
ROOT
HETATM    1  C   UNL     1     -42.614  58.493 -53.564  1.00  0.00     0.257 C 
ENDROOT
BRANCH   1   2
HETATM    2  N   UNL     1     -41.897  57.266 -53.212  1.00  0.00    -0.225 N 
HETATM    3  N   UNL     1     -41.675  56.393 -54.253  1.00  0.00    -0.173 NA
HETATM    4  C   UNL     1     -41.220  55.204 -54.007  1.00  0.00     0.062 A 
HETATM    5  C   UNL     1     -41.014  54.278 -55.184  1.00  0.00     0.073 C 
HETATM    6  C   UNL     1     -40.919  54.716 -52.648  1.00  0.00     0.006 A 
HETATM    7  C   UNL     1     -41.159  55.591 -51.595  1.00  0.00     0.046 A 
HETATM    8  C   UNL     1     -40.423  53.432 -52.390  1.00  0.00     0.014 A 
HETATM    9  C   UNL     1     -41.714  56.928 -51.875  1.00  0.00     0.275 A 
HETATM   10  C   UNL     1     -40.895  55.195 -50.277  1.00  0.00     0.018 A 
HETATM   11  O   UNL     1     -41.984  57.684 -50.942  1.00  0.00    -0.266 OA
HETATM   12  C   UNL     1     -40.398  53.917 -50.020  1.00  0.00     0.001 A 
HETATM   13  C   UNL     1     -40.166  53.037 -51.075  1.00  0.00     0.001 A 
ENDBRANCH   1   2
BRANCH   1  14
HETATM   14  C   UNL     1     -42.405  59.016 -54.989  1.00  0.00     0.238 C 
HETATM   15  N   UNL     1     -43.242  58.491 -55.947  1.00  0.00    -0.351 N 
HETATM   16  H   UNL     1     -43.956  57.823 -55.658  1.00  0.00     0.163 HD
HETATM   17  O   UNL     1     -41.449  59.734 -55.280  1.00  0.00    -0.272 OA
BRANCH  15  18
HETATM   18  C   UNL     1     -42.990  58.675 -57.354  1.00  0.00     0.118 C 
HETATM   19  C   UNL     1     -43.352  57.479 -58.191  1.00  0.00    -0.029 A 
HETATM   20  C   UNL     1     -43.943  57.883 -59.395  1.00  0.00    -0.050 A 
HETATM   21  C   UNL     1     -43.109  56.136 -57.937  1.00  0.00     0.010 A 
HETATM   22  C   UNL     1     -44.304  56.961 -60.363  1.00  0.00     0.007 A 
HETATM   23  C   UNL     1     -44.039  59.376 -59.465  1.00  0.00     0.041 C 
HETATM   24  C   UNL     1     -44.077  55.607 -60.105  1.00  0.00     0.001 A 
HETATM   25  C   UNL     1     -43.484  55.198 -58.901  1.00  0.00     0.001 A 
HETATM   26  C   UNL     1     -43.883  59.759 -57.987  1.00  0.00     0.034 C 
ENDBRANCH  15  18
ENDBRANCH   1  14
TORSDOF 3
ENDMDL
