MODEL 1
REMARK VINA RESULT:      -8.6      0.000      0.000
REMARK  6 active torsions:
REMARK  status: ('A' for Active; 'I' for Inactive)
REMARK    1  A    between atoms: O_2  and  C_3 
REMARK    2  A    between atoms: C_6  and  C_7 
REMARK    3  A    between atoms: C_7  and  C_8 
REMARK       I    between atoms: C_8  and  N_9 
REMARK    4  A    between atoms: N_9  and  C_10 
REMARK    5  A    between atoms: C_10  and  C_11 
REMARK       I    between atoms: C_11  and  N_12 
REMARK    6  A    between atoms: N_12  and  N_13 
ROOT
HETATM    1  C   UNL     1     -41.325  58.801 -52.788  1.00  0.00     0.255 C 
HETATM    2  N   UNL     1     -42.441  58.529 -53.556  1.00  0.00    -0.245 N 
HETATM    3  O   UNL     1     -40.240  59.178 -53.234  1.00  0.00    -0.270 OA
HETATM    4  H   UNL     1     -43.262  58.117 -53.110  1.00  0.00     0.192 HD
ENDROOT
BRANCH   1   5
HETATM    5  C   UNL     1     -41.501  58.531 -51.288  1.00  0.00     0.227 C 
BRANCH   5   6
HETATM    6  N   UNL     1     -40.808  57.377 -50.723  1.00  0.00    -0.352 N 
HETATM    7  C   UNL     1     -41.472  56.183 -50.538  1.00  0.00     0.222 C 
HETATM    8  O   UNL     1     -42.695  56.097 -50.608  1.00  0.00    -0.273 OA
HETATM    9  H   UNL     1     -39.804  57.335 -50.854  1.00  0.00     0.162 HD
BRANCH   7  10
HETATM   10  C   UNL     1     -40.577  54.991 -50.244  1.00  0.00     0.141 C 
BRANCH  10  11
HETATM   11  C   UNL     1     -40.417  54.040 -51.409  1.00  0.00    -0.049 A 
HETATM   12  C   UNL     1     -40.831  54.375 -52.705  1.00  0.00     0.010 A 
HETATM   13  C   UNL     1     -40.710  53.465 -53.761  1.00  0.00     0.037 A 
HETATM   14  C   UNL     1     -40.192  52.191 -53.534  1.00  0.00     0.068 A 
HETATM   15  C   UNL     1     -39.803  51.839 -52.241  1.00  0.00     0.037 A 
HETATM   16  C   UNL     1     -39.915  52.750 -51.186  1.00  0.00     0.010 A 
BRANCH  14  17
HETATM   17  O   UNL     1     -40.027  51.209 -54.472  1.00  0.00    -0.356 OA
HETATM   18  C   UNL     1     -39.814  49.889 -53.987  1.00  0.00     0.210 C 
ENDBRANCH  14  17
ENDBRANCH  10  11
ENDBRANCH   7  10
ENDBRANCH   5   6
ENDBRANCH   1   5
BRANCH   2  19
HETATM   19  N   UNL     1     -42.387  58.617 -54.916  1.00  0.00    -0.166 NA
HETATM   20  C   UNL     1     -42.723  57.558 -55.578  1.00  0.00     0.157 A 
HETATM   21  C   UNL     1     -43.228  56.211 -55.046  1.00  0.00     0.277 A 
HETATM   22  C   UNL     1     -42.691  57.428 -57.030  1.00  0.00     0.028 A 
HETATM   23  O   UNL     1     -43.412  55.943 -53.877  1.00  0.00    -0.266 OA
HETATM   24  N   UNL     1     -43.434  55.429 -56.164  1.00  0.00    -0.321 N 
HETATM   25  C   UNL     1     -43.123  56.134 -57.324  1.00  0.00     0.048 A 
HETATM   26  H   UNL     1     -43.769  54.478 -56.119  1.00  0.00     0.169 HD
HETATM   27  C   UNL     1     -43.204  55.685 -58.624  1.00  0.00     0.032 A 
HETATM   28  C   UNL     1     -42.832  56.580 -59.636  1.00  0.00     0.021 A 
HETATM   29  C   UNL     1     -42.394  57.886 -59.324  1.00  0.00     0.012 A 
HETATM   30 BR   UNL     1     -41.901  59.054 -60.728  1.00  0.00    -0.051 Br
HETATM   31  C   UNL     1     -42.317  58.329 -58.004  1.00  0.00     0.035 A 
ENDBRANCH   2  19
TORSDOF 6
ENDMDL
MODEL 2
REMARK VINA RESULT:      -8.0      2.981      7.452
REMARK  6 active torsions:
REMARK  status: ('A' for Active; 'I' for Inactive)
REMARK    1  A    between atoms: O_2  and  C_3 
REMARK    2  A    between atoms: C_6  and  C_7 
REMARK    3  A    between atoms: C_7  and  C_8 
REMARK       I    between atoms: C_8  and  N_9 
REMARK    4  A    between atoms: N_9  and  C_10 
REMARK    5  A    between atoms: C_10  and  C_11 
REMARK       I    between atoms: C_11  and  N_12 
REMARK    6  A    between atoms: N_12  and  N_13 
ROOT
HETATM    1  C   UNL     1     -43.498  57.089 -54.284  1.00  0.00     0.255 C 
HETATM    2  N   UNL     1     -42.151  56.813 -54.138  1.00  0.00    -0.245 N 
HETATM    3  O   UNL     1     -44.384  56.238 -54.379  1.00  0.00    -0.270 OA
HETATM    4  H   UNL     1     -41.480  57.582 -54.177  1.00  0.00     0.192 HD
ENDROOT
BRANCH   1   5
HETATM    5  C   UNL     1     -43.835  58.582 -54.392  1.00  0.00     0.227 C 
BRANCH   5   6
HETATM    6  N   UNL     1     -43.776  59.195 -55.716  1.00  0.00    -0.352 N 
HETATM    7  C   UNL     1     -42.586  59.691 -56.205  1.00  0.00     0.222 C 
HETATM    8  O   UNL     1     -41.603  59.858 -55.489  1.00  0.00    -0.273 OA
HETATM    9  H   UNL     1     -44.467  58.893 -56.393  1.00  0.00     0.162 HD
BRANCH   7  10
HETATM   10  C   UNL     1     -42.588  60.010 -57.691  1.00  0.00     0.141 C 
BRANCH  10  11
HETATM   11  C   UNL     1     -42.999  58.849 -58.569  1.00  0.00    -0.049 A 
HETATM   12  C   UNL     1     -42.183  57.723 -58.743  1.00  0.00     0.010 A 
HETATM   13  C   UNL     1     -42.566  56.677 -59.591  1.00  0.00     0.037 A 
HETATM   14  C   UNL     1     -43.764  56.749 -60.298  1.00  0.00     0.068 A 
HETATM   15  C   UNL     1     -44.569  57.880 -60.152  1.00  0.00     0.037 A 
HETATM   16  C   UNL     1     -44.193  58.922 -59.300  1.00  0.00     0.010 A 
BRANCH  14  17
HETATM   17  O   UNL     1     -44.249  55.805 -61.161  1.00  0.00    -0.356 OA
HETATM   18  C   UNL     1     -44.954  54.712 -60.583  1.00  0.00     0.210 C 
ENDBRANCH  14  17
ENDBRANCH  10  11
ENDBRANCH   7  10
ENDBRANCH   5   6
ENDBRANCH   1   5
BRANCH   2  19
HETATM   19  N   UNL     1     -41.702  55.526 -54.143  1.00  0.00    -0.166 NA
HETATM   20  C   UNL     1     -41.291  55.053 -53.012  1.00  0.00     0.157 A 
HETATM   21  C   UNL     1     -41.284  55.725 -51.633  1.00  0.00     0.277 A 
HETATM   22  C   UNL     1     -40.732  53.721 -52.810  1.00  0.00     0.028 A 
HETATM   23  O   UNL     1     -41.699  56.839 -51.395  1.00  0.00    -0.266 OA
HETATM   24  N   UNL     1     -40.740  54.793 -50.773  1.00  0.00    -0.321 N 
HETATM   25  C   UNL     1     -40.418  53.621 -51.455  1.00  0.00     0.048 A 
HETATM   26  H   UNL     1     -40.609  54.961 -49.787  1.00  0.00     0.169 HD
HETATM   27  C   UNL     1     -39.860  52.475 -50.932  1.00  0.00     0.032 A 
HETATM   28  C   UNL     1     -39.620  51.416 -51.819  1.00  0.00     0.021 A 
HETATM   29  C   UNL     1     -39.941  51.531 -53.189  1.00  0.00     0.012 A 
HETATM   30 BR   UNL     1     -39.594  50.074 -54.343  1.00  0.00    -0.051 Br
HETATM   31  C   UNL     1     -40.506  52.697 -53.706  1.00  0.00     0.035 A 
ENDBRANCH   2  19
TORSDOF 6
ENDMDL
MODEL 3
REMARK VINA RESULT:      -7.8      3.535      7.755
REMARK  6 active torsions:
REMARK  status: ('A' for Active; 'I' for Inactive)
REMARK    1  A    between atoms: O_2  and  C_3 
REMARK    2  A    between atoms: C_6  and  C_7 
REMARK    3  A    between atoms: C_7  and  C_8 
REMARK       I    between atoms: C_8  and  N_9 
REMARK    4  A    between atoms: N_9  and  C_10 
REMARK    5  A    between atoms: C_10  and  C_11 
REMARK       I    between atoms: C_11  and  N_12 
REMARK    6  A    between atoms: N_12  and  N_13 
ROOT
HETATM    1  C   UNL     1     -41.561  58.874 -54.285  1.00  0.00     0.255 C 
HETATM    2  N   UNL     1     -42.177  57.678 -53.971  1.00  0.00    -0.245 N 
HETATM    3  O   UNL     1     -40.617  59.364 -53.662  1.00  0.00    -0.270 OA
HETATM    4  H   UNL     1     -43.019  57.405 -54.478  1.00  0.00     0.192 HD
ENDROOT
BRANCH   1   5
HETATM    5  C   UNL     1     -42.188  59.624 -55.468  1.00  0.00     0.227 C 
BRANCH   5   6
HETATM    6  N   UNL     1     -42.263  58.925 -56.747  1.00  0.00    -0.352 N 
HETATM    7  C   UNL     1     -41.672  59.460 -57.872  1.00  0.00     0.222 C 
HETATM    8  O   UNL     1     -41.276  60.621 -57.914  1.00  0.00    -0.273 OA
HETATM    9  H   UNL     1     -42.375  57.919 -56.715  1.00  0.00     0.162 HD
BRANCH   7  10
HETATM   10  C   UNL     1     -41.550  58.504 -59.047  1.00  0.00     0.141 C 
BRANCH  10  11
HETATM   11  C   UNL     1     -42.800  57.696 -59.315  1.00  0.00    -0.049 A 
HETATM   12  C   UNL     1     -42.842  56.307 -59.131  1.00  0.00     0.010 A 
HETATM   13  C   UNL     1     -43.998  55.574 -59.423  1.00  0.00     0.037 A 
HETATM   14  C   UNL     1     -45.128  56.215 -59.925  1.00  0.00     0.068 A 
HETATM   15  C   UNL     1     -45.086  57.594 -60.137  1.00  0.00     0.037 A 
HETATM   16  C   UNL     1     -43.936  58.330 -59.839  1.00  0.00     0.010 A 
BRANCH  14  17
HETATM   17  O   UNL     1     -46.313  55.618 -60.256  1.00  0.00    -0.356 OA
HETATM   18  C   UNL     1     -47.330  56.461 -60.786  1.00  0.00     0.210 C 
ENDBRANCH  14  17
ENDBRANCH  10  11
ENDBRANCH   7  10
ENDBRANCH   5   6
ENDBRANCH   1   5
BRANCH   2  19
HETATM   19  N   UNL     1     -41.792  56.965 -52.873  1.00  0.00    -0.166 NA
HETATM   20  C   UNL     1     -41.361  55.765 -53.086  1.00  0.00     0.157 A 
HETATM   21  C   UNL     1     -41.170  55.033 -54.420  1.00  0.00     0.277 A 
HETATM   22  C   UNL     1     -40.945  54.825 -52.051  1.00  0.00     0.028 A 
HETATM   23  O   UNL     1     -41.387  55.505 -55.516  1.00  0.00    -0.266 OA
HETATM   24  N   UNL     1     -40.693  53.781 -54.087  1.00  0.00    -0.321 N 
HETATM   25  C   UNL     1     -40.559  53.655 -52.707  1.00  0.00     0.048 A 
HETATM   26  H   UNL     1     -40.474  53.073 -54.772  1.00  0.00     0.169 HD
HETATM   27  C   UNL     1     -40.113  52.556 -52.005  1.00  0.00     0.032 A 
HETATM   28  C   UNL     1     -40.066  52.662 -50.608  1.00  0.00     0.021 A 
HETATM   29  C   UNL     1     -40.462  53.851 -49.958  1.00  0.00     0.012 A 
HETATM   30 BR   UNL     1     -40.383  53.940 -48.070  1.00  0.00    -0.051 Br
HETATM   31  C   UNL     1     -40.912  54.957 -50.679  1.00  0.00     0.035 A 
ENDBRANCH   2  19
TORSDOF 6
ENDMDL
MODEL 4
REMARK VINA RESULT:      -7.7      3.443      7.168
REMARK  6 active torsions:
REMARK  status: ('A' for Active; 'I' for Inactive)
REMARK    1  A    between atoms: O_2  and  C_3 
REMARK    2  A    between atoms: C_6  and  C_7 
REMARK    3  A    between atoms: C_7  and  C_8 
REMARK       I    between atoms: C_8  and  N_9 
REMARK    4  A    between atoms: N_9  and  C_10 
REMARK    5  A    between atoms: C_10  and  C_11 
REMARK       I    between atoms: C_11  and  N_12 
REMARK    6  A    between atoms: N_12  and  N_13 
ROOT
HETATM    1  C   UNL     1     -42.827  56.910 -52.316  1.00  0.00     0.255 C 
HETATM    2  N   UNL     1     -41.486  56.578 -52.320  1.00  0.00    -0.245 N 
HETATM    3  O   UNL     1     -43.742  56.137 -52.028  1.00  0.00    -0.270 OA
HETATM    4  H   UNL     1     -40.808  57.253 -52.677  1.00  0.00     0.192 HD
ENDROOT
BRANCH   1   5
HETATM    5  C   UNL     1     -43.131  58.343 -52.774  1.00  0.00     0.227 C 
BRANCH   5   6
HETATM    6  N   UNL     1     -42.999  58.639 -54.198  1.00  0.00    -0.352 N 
HETATM    7  C   UNL     1     -44.095  58.576 -55.031  1.00  0.00     0.222 C 
HETATM    8  O   UNL     1     -45.150  58.053 -54.684  1.00  0.00    -0.273 OA
HETATM    9  H   UNL     1     -42.244  59.257 -54.469  1.00  0.00     0.162 HD
BRANCH   7  10
HETATM   10  C   UNL     1     -43.896  59.201 -56.401  1.00  0.00     0.141 C 
BRANCH  10  11
HETATM   11  C   UNL     1     -43.874  58.202 -57.536  1.00  0.00    -0.049 A 
HETATM   12  C   UNL     1     -42.842  57.265 -57.682  1.00  0.00     0.010 A 
HETATM   13  C   UNL     1     -42.821  56.375 -58.762  1.00  0.00     0.037 A 
HETATM   14  C   UNL     1     -43.822  56.421 -59.730  1.00  0.00     0.068 A 
HETATM   15  C   UNL     1     -44.838  57.370 -59.607  1.00  0.00     0.037 A 
HETATM   16  C   UNL     1     -44.866  58.255 -58.525  1.00  0.00     0.010 A 
BRANCH  14  17
HETATM   17  O   UNL     1     -43.915  55.618 -60.833  1.00  0.00    -0.356 OA
HETATM   18  C   UNL     1     -45.213  55.148 -61.176  1.00  0.00     0.210 C 
ENDBRANCH  14  17
ENDBRANCH  10  11
ENDBRANCH   7  10
ENDBRANCH   5   6
ENDBRANCH   1   5
BRANCH   2  19
HETATM   19  N   UNL     1     -41.085  55.303 -52.044  1.00  0.00    -0.166 NA
HETATM   20  C   UNL     1     -40.801  54.554 -53.058  1.00  0.00     0.157 A 
HETATM   21  C   UNL     1     -40.802  54.913 -54.550  1.00  0.00     0.277 A 
HETATM   22  C   UNL     1     -40.399  53.154 -52.984  1.00  0.00     0.028 A 
HETATM   23  O   UNL     1     -41.061  56.005 -55.007  1.00  0.00    -0.266 OA
HETATM   24  N   UNL     1     -40.431  53.756 -55.205  1.00  0.00    -0.321 N 
HETATM   25  C   UNL     1     -40.194  52.728 -54.296  1.00  0.00     0.048 A 
HETATM   26  H   UNL     1     -40.347  53.693 -56.209  1.00  0.00     0.169 HD
HETATM   27  C   UNL     1     -39.807  51.435 -54.576  1.00  0.00     0.032 A 
HETATM   28  C   UNL     1     -39.630  50.569 -53.489  1.00  0.00     0.021 A 
HETATM   29  C   UNL     1     -39.844  51.013 -52.166  1.00  0.00     0.012 A 
HETATM   30 BR   UNL     1     -39.595  49.801 -50.734  1.00  0.00    -0.051 Br
HETATM   31  C   UNL     1     -40.235  52.324 -51.895  1.00  0.00     0.035 A 
ENDBRANCH   2  19
TORSDOF 6
ENDMDL
MODEL 5
REMARK VINA RESULT:      -7.6      2.977      7.290
REMARK  6 active torsions:
REMARK  status: ('A' for Active; 'I' for Inactive)
REMARK    1  A    between atoms: O_2  and  C_3 
REMARK    2  A    between atoms: C_6  and  C_7 
REMARK    3  A    between atoms: C_7  and  C_8 
REMARK       I    between atoms: C_8  and  N_9 
REMARK    4  A    between atoms: N_9  and  C_10 
REMARK    5  A    between atoms: C_10  and  C_11 
REMARK       I    between atoms: C_11  and  N_12 
REMARK    6  A    between atoms: N_12  and  N_13 
ROOT
HETATM    1  C   UNL     1     -42.708  56.919 -52.674  1.00  0.00     0.255 C 
HETATM    2  N   UNL     1     -41.390  56.503 -52.643  1.00  0.00    -0.245 N 
HETATM    3  O   UNL     1     -43.669  56.191 -52.930  1.00  0.00    -0.270 OA
HETATM    4  H   UNL     1     -40.652  57.199 -52.528  1.00  0.00     0.192 HD
ENDROOT
BRANCH   1   5
HETATM    5  C   UNL     1     -42.909  58.419 -52.424  1.00  0.00     0.227 C 
BRANCH   5   6
HETATM    6  N   UNL     1     -43.210  59.262 -53.578  1.00  0.00    -0.352 N 
HETATM    7  C   UNL     1     -42.237  59.543 -54.513  1.00  0.00     0.222 C 
HETATM    8  O   UNL     1     -41.049  59.311 -54.310  1.00  0.00    -0.273 OA
HETATM    9  H   UNL     1     -44.174  59.287 -53.888  1.00  0.00     0.162 HD
BRANCH   7  10
HETATM   10  C   UNL     1     -42.749  60.156 -55.805  1.00  0.00     0.141 C 
BRANCH  10  11
HETATM   11  C   UNL     1     -42.729  59.211 -56.985  1.00  0.00    -0.049 A 
HETATM   12  C   UNL     1     -41.841  59.377 -58.057  1.00  0.00     0.010 A 
HETATM   13  C   UNL     1     -41.866  58.513 -59.157  1.00  0.00     0.037 A 
HETATM   14  C   UNL     1     -42.797  57.477 -59.216  1.00  0.00     0.068 A 
HETATM   15  C   UNL     1     -43.703  57.322 -58.166  1.00  0.00     0.037 A 
HETATM   16  C   UNL     1     -43.675  58.179 -57.062  1.00  0.00     0.010 A 
BRANCH  14  17
HETATM   17  O   UNL     1     -42.932  56.572 -60.232  1.00  0.00    -0.356 OA
HETATM   18  C   UNL     1     -44.168  55.871 -60.305  1.00  0.00     0.210 C 
ENDBRANCH  14  17
ENDBRANCH  10  11
ENDBRANCH   7  10
ENDBRANCH   5   6
ENDBRANCH   1   5
BRANCH   2  19
HETATM   19  N   UNL     1     -41.060  55.218 -52.959  1.00  0.00    -0.166 NA
HETATM   20  C   UNL     1     -40.846  54.415 -51.968  1.00  0.00     0.157 A 
HETATM   21  C   UNL     1     -40.962  54.692 -50.464  1.00  0.00     0.277 A 
HETATM   22  C   UNL     1     -40.440  53.020 -52.089  1.00  0.00     0.028 A 
HETATM   23  O   UNL     1     -41.305  55.744 -49.969  1.00  0.00    -0.266 OA
HETATM   24  N   UNL     1     -40.622  53.506 -49.846  1.00  0.00    -0.321 N 
HETATM   25  C   UNL     1     -40.318  52.527 -50.789  1.00  0.00     0.048 A 
HETATM   26  H   UNL     1     -40.608  53.389 -48.843  1.00  0.00     0.169 HD
HETATM   27  C   UNL     1     -39.938  51.224 -50.551  1.00  0.00     0.032 A 
HETATM   28  C   UNL     1     -39.678  50.417 -51.667  1.00  0.00     0.021 A 
HETATM   29  C   UNL     1     -39.803  50.930 -52.977  1.00  0.00     0.012 A 
HETATM   30 BR   UNL     1     -39.436  49.800 -54.449  1.00  0.00    -0.051 Br
HETATM   31  C   UNL     1     -40.188  52.251 -53.205  1.00  0.00     0.035 A 
ENDBRANCH   2  19
TORSDOF 6
ENDMDL
MODEL 6
REMARK VINA RESULT:      -7.4      5.252      8.867
REMARK  6 active torsions:
REMARK  status: ('A' for Active; 'I' for Inactive)
REMARK    1  A    between atoms: O_2  and  C_3 
REMARK    2  A    between atoms: C_6  and  C_7 
REMARK    3  A    between atoms: C_7  and  C_8 
REMARK       I    between atoms: C_8  and  N_9 
REMARK    4  A    between atoms: N_9  and  C_10 
REMARK    5  A    between atoms: C_10  and  C_11 
REMARK       I    between atoms: C_11  and  N_12 
REMARK    6  A    between atoms: N_12  and  N_13 
ROOT
HETATM    1  C   UNL     1     -41.408  58.082 -51.171  1.00  0.00     0.255 C 
HETATM    2  N   UNL     1     -42.046  57.009 -51.765  1.00  0.00    -0.245 N 
HETATM    3  O   UNL     1     -40.346  58.013 -50.551  1.00  0.00    -0.270 OA
HETATM    4  H   UNL     1     -42.975  57.143 -52.164  1.00  0.00     0.192 HD
ENDROOT
BRANCH   1   5
HETATM    5  C   UNL     1     -42.164  59.413 -51.279  1.00  0.00     0.227 C 
BRANCH   5   6
HETATM    6  N   UNL     1     -43.287  59.627 -50.371  1.00  0.00    -0.352 N 
HETATM    7  C   UNL     1     -43.910  60.855 -50.304  1.00  0.00     0.222 C 
HETATM    8  O   UNL     1     -43.421  61.864 -50.805  1.00  0.00    -0.273 OA
HETATM    9  H   UNL     1     -43.837  58.813 -50.121  1.00  0.00     0.162 HD
BRANCH   7  10
HETATM   10  C   UNL     1     -45.239  60.860 -49.569  1.00  0.00     0.141 C 
BRANCH  10  11
HETATM   11  C   UNL     1     -45.186  61.516 -48.207  1.00  0.00    -0.049 A 
HETATM   12  C   UNL     1     -45.212  60.770 -47.021  1.00  0.00     0.010 A 
HETATM   13  C   UNL     1     -45.202  61.400 -45.771  1.00  0.00     0.037 A 
HETATM   14  C   UNL     1     -45.187  62.790 -45.685  1.00  0.00     0.068 A 
HETATM   15  C   UNL     1     -45.189  63.541 -46.861  1.00  0.00     0.037 A 
HETATM   16  C   UNL     1     -45.191  62.915 -48.111  1.00  0.00     0.010 A 
BRANCH  14  17
HETATM   17  O   UNL     1     -45.182  63.526 -44.532  1.00  0.00    -0.356 OA
HETATM   18  C   UNL     1     -45.864  64.775 -44.567  1.00  0.00     0.210 C 
ENDBRANCH  14  17
ENDBRANCH  10  11
ENDBRANCH   7  10
ENDBRANCH   5   6
ENDBRANCH   1   5
BRANCH   2  19
HETATM   19  N   UNL     1     -41.539  55.748 -51.647  1.00  0.00    -0.166 NA
HETATM   20  C   UNL     1     -41.178  55.165 -52.743  1.00  0.00     0.157 A 
HETATM   21  C   UNL     1     -41.189  55.716 -54.174  1.00  0.00     0.277 A 
HETATM   22  C   UNL     1     -40.656  53.807 -52.841  1.00  0.00     0.028 A 
HETATM   23  O   UNL     1     -41.537  56.833 -54.492  1.00  0.00    -0.266 OA
HETATM   24  N   UNL     1     -40.711  54.692 -54.965  1.00  0.00    -0.321 N 
HETATM   25  C   UNL     1     -40.398  53.576 -54.192  1.00  0.00     0.048 A 
HETATM   26  H   UNL     1     -40.608  54.768 -55.967  1.00  0.00     0.169 HD
HETATM   27  C   UNL     1     -39.896  52.369 -54.628  1.00  0.00     0.032 A 
HETATM   28  C   UNL     1     -39.659  51.385 -53.659  1.00  0.00     0.021 A 
HETATM   29  C   UNL     1     -39.928  51.631 -52.295  1.00  0.00     0.012 A 
HETATM   30 BR   UNL     1     -39.594  50.267 -51.028  1.00  0.00    -0.051 Br
HETATM   31  C   UNL     1     -40.436  52.857 -51.866  1.00  0.00     0.035 A 
ENDBRANCH   2  19
TORSDOF 6
ENDMDL
MODEL 7
REMARK VINA RESULT:      -7.3     16.059     18.809
REMARK  6 active torsions:
REMARK  status: ('A' for Active; 'I' for Inactive)
REMARK    1  A    between atoms: O_2  and  C_3 
REMARK    2  A    between atoms: C_6  and  C_7 
REMARK    3  A    between atoms: C_7  and  C_8 
REMARK       I    between atoms: C_8  and  N_9 
REMARK    4  A    between atoms: N_9  and  C_10 
REMARK    5  A    between atoms: C_10  and  C_11 
REMARK       I    between atoms: C_11  and  N_12 
REMARK    6  A    between atoms: N_12  and  N_13 
ROOT
HETATM    1  C   UNL     1     -33.540  40.414 -53.112  1.00  0.00     0.255 C 
HETATM    2  N   UNL     1     -33.029  40.877 -54.310  1.00  0.00    -0.245 N 
HETATM    3  O   UNL     1     -33.048  39.504 -52.443  1.00  0.00    -0.270 OA
HETATM    4  H   UNL     1     -33.564  41.560 -54.847  1.00  0.00     0.192 HD
ENDROOT
BRANCH   1   5
HETATM    5  C   UNL     1     -34.849  41.085 -52.675  1.00  0.00     0.227 C 
BRANCH   5   6
HETATM    6  N   UNL     1     -35.804  41.446 -53.718  1.00  0.00    -0.352 N 
HETATM    7  C   UNL     1     -36.879  40.628 -53.997  1.00  0.00     0.222 C 
HETATM    8  O   UNL     1     -36.955  39.480 -53.568  1.00  0.00    -0.273 OA
HETATM    9  H   UNL     1     -35.904  42.432 -53.929  1.00  0.00     0.162 HD
BRANCH   7  10
HETATM   10  C   UNL     1     -37.953  41.257 -54.868  1.00  0.00     0.141 C 
BRANCH  10  11
HETATM   11  C   UNL     1     -37.686  41.143 -56.352  1.00  0.00    -0.049 A 
HETATM   12  C   UNL     1     -37.087  42.178 -57.081  1.00  0.00     0.010 A 
HETATM   13  C   UNL     1     -36.885  42.067 -58.462  1.00  0.00     0.037 A 
HETATM   14  C   UNL     1     -37.300  40.924 -59.143  1.00  0.00     0.068 A 
HETATM   15  C   UNL     1     -37.923  39.900 -58.428  1.00  0.00     0.037 A 
HETATM   16  C   UNL     1     -38.119  40.005 -57.048  1.00  0.00     0.010 A 
BRANCH  14  17
HETATM   17  O   UNL     1     -37.169  40.694 -60.484  1.00  0.00    -0.356 OA
HETATM   18  C   UNL     1     -37.480  39.384 -60.942  1.00  0.00     0.210 C 
ENDBRANCH  14  17
ENDBRANCH  10  11
ENDBRANCH   7  10
ENDBRANCH   5   6
ENDBRANCH   1   5
BRANCH   2  19
HETATM   19  N   UNL     1     -31.932  40.290 -54.870  1.00  0.00    -0.166 NA
HETATM   20  C   UNL     1     -32.143  39.541 -55.903  1.00  0.00     0.157 A 
HETATM   21  C   UNL     1     -33.462  39.252 -56.630  1.00  0.00     0.277 A 
HETATM   22  C   UNL     1     -31.118  38.790 -56.619  1.00  0.00     0.028 A 
HETATM   23  O   UNL     1     -34.540  39.723 -56.338  1.00  0.00    -0.266 OA
HETATM   24  N   UNL     1     -33.134  38.391 -57.657  1.00  0.00    -0.321 N 
HETATM   25  C   UNL     1     -31.768  38.119 -57.656  1.00  0.00     0.048 A 
HETATM   26  H   UNL     1     -33.811  38.025 -58.310  1.00  0.00     0.169 HD
HETATM   27  C   UNL     1     -31.074  37.307 -58.527  1.00  0.00     0.032 A 
HETATM   28  C   UNL     1     -29.693  37.182 -58.327  1.00  0.00     0.021 A 
HETATM   29  C   UNL     1     -29.049  37.864 -57.272  1.00  0.00     0.012 A 
HETATM   30 BR   UNL     1     -27.183  37.659 -57.043  1.00  0.00    -0.051 Br
HETATM   31  C   UNL     1     -29.761  38.684 -56.397  1.00  0.00     0.035 A 
ENDBRANCH   2  19
TORSDOF 6
ENDMDL
MODEL 8
REMARK VINA RESULT:      -7.2      3.555      7.155
REMARK  6 active torsions:
REMARK  status: ('A' for Active; 'I' for Inactive)
REMARK    1  A    between atoms: O_2  and  C_3 
REMARK    2  A    between atoms: C_6  and  C_7 
REMARK    3  A    between atoms: C_7  and  C_8 
REMARK       I    between atoms: C_8  and  N_9 
REMARK    4  A    between atoms: N_9  and  C_10 
REMARK    5  A    between atoms: C_10  and  C_11 
REMARK       I    between atoms: C_11  and  N_12 
REMARK    6  A    between atoms: N_12  and  N_13 
ROOT
HETATM    1  C   UNL     1     -42.222  59.608 -53.660  1.00  0.00     0.255 C 
HETATM    2  N   UNL     1     -42.832  58.376 -53.805  1.00  0.00    -0.245 N 
HETATM    3  O   UNL     1     -41.150  59.798 -53.084  1.00  0.00    -0.270 OA
HETATM    4  H   UNL     1     -43.771  58.331 -54.202  1.00  0.00     0.192 HD
ENDROOT
BRANCH   1   5
HETATM    5  C   UNL     1     -43.024  60.787 -54.226  1.00  0.00     0.227 C 
BRANCH   5   6
HETATM    6  N   UNL     1     -43.484  60.690 -55.608  1.00  0.00    -0.352 N 
HETATM    7  C   UNL     1     -44.704  60.120 -55.902  1.00  0.00     0.222 C 
HETATM    8  O   UNL     1     -45.338  59.470 -55.075  1.00  0.00    -0.273 OA
HETATM    9  H   UNL     1     -43.121  61.375 -56.261  1.00  0.00     0.162 HD
BRANCH   7  10
HETATM   10  C   UNL     1     -45.199  60.360 -57.318  1.00  0.00     0.141 C 
BRANCH  10  11
HETATM   11  C   UNL     1     -45.377  59.096 -58.129  1.00  0.00    -0.049 A 
HETATM   12  C   UNL     1     -44.343  58.562 -58.911  1.00  0.00     0.010 A 
HETATM   13  C   UNL     1     -44.541  57.413 -59.685  1.00  0.00     0.037 A 
HETATM   14  C   UNL     1     -45.786  56.789 -59.709  1.00  0.00     0.068 A 
HETATM   15  C   UNL     1     -46.829  57.329 -58.955  1.00  0.00     0.037 A 
HETATM   16  C   UNL     1     -46.632  58.472 -58.175  1.00  0.00     0.010 A 
BRANCH  14  17
HETATM   17  O   UNL     1     -46.113  55.670 -60.425  1.00  0.00    -0.356 OA
HETATM   18  C   UNL     1     -45.040  54.969 -61.042  1.00  0.00     0.210 C 
ENDBRANCH  14  17
ENDBRANCH  10  11
ENDBRANCH   7  10
ENDBRANCH   5   6
ENDBRANCH   1   5
BRANCH   2  19
HETATM   19  N   UNL     1     -42.282  57.259 -53.248  1.00  0.00    -0.166 NA
HETATM   20  C   UNL     1     -41.875  56.345 -54.067  1.00  0.00     0.157 A 
HETATM   21  C   UNL     1     -41.876  56.359 -55.601  1.00  0.00     0.277 A 
HETATM   22  C   UNL     1     -41.302  55.062 -53.679  1.00  0.00     0.028 A 
HETATM   23  O   UNL     1     -42.257  57.278 -56.294  1.00  0.00    -0.266 OA
HETATM   24  N   UNL     1     -41.343  55.143 -55.979  1.00  0.00    -0.321 N 
HETATM   25  C   UNL     1     -41.005  54.383 -54.862  1.00  0.00     0.048 A 
HETATM   26  H   UNL     1     -41.221  54.868 -56.943  1.00  0.00     0.169 HD
HETATM   27  C   UNL     1     -40.450  53.123 -54.842  1.00  0.00     0.032 A 
HETATM   28  C   UNL     1     -40.198  52.551 -53.588  1.00  0.00     0.021 A 
HETATM   29  C   UNL     1     -40.506  53.248 -52.399  1.00  0.00     0.012 A 
HETATM   30 BR   UNL     1     -40.150  52.429 -50.731  1.00  0.00    -0.051 Br
HETATM   31  C   UNL     1     -41.068  54.524 -52.431  1.00  0.00     0.035 A 
ENDBRANCH   2  19
TORSDOF 6
ENDMDL
MODEL 9
REMARK VINA RESULT:      -7.2      3.558      7.679
REMARK  6 active torsions:
REMARK  status: ('A' for Active; 'I' for Inactive)
REMARK    1  A    between atoms: O_2  and  C_3 
REMARK    2  A    between atoms: C_6  and  C_7 
REMARK    3  A    between atoms: C_7  and  C_8 
REMARK       I    between atoms: C_8  and  N_9 
REMARK    4  A    between atoms: N_9  and  C_10 
REMARK    5  A    between atoms: C_10  and  C_11 
REMARK       I    between atoms: C_11  and  N_12 
REMARK    6  A    between atoms: N_12  and  N_13 
ROOT
HETATM    1  C   UNL     1     -42.479  56.445 -56.421  1.00  0.00     0.255 C 
HETATM    2  N   UNL     1     -41.335  56.248 -55.671  1.00  0.00    -0.245 N 
HETATM    3  O   UNL     1     -43.300  55.569 -56.696  1.00  0.00    -0.270 OA
HETATM    4  H   UNL     1     -40.659  57.008 -55.586  1.00  0.00     0.192 HD
ENDROOT
BRANCH   1   5
HETATM    5  C   UNL     1     -42.643  57.868 -56.971  1.00  0.00     0.227 C 
BRANCH   5   6
HETATM    6  N   UNL     1     -43.359  58.834 -56.143  1.00  0.00    -0.352 N 
HETATM    7  C   UNL     1     -42.668  59.723 -55.347  1.00  0.00     0.222 C 
HETATM    8  O   UNL     1     -41.469  59.596 -55.114  1.00  0.00    -0.273 OA
HETATM    9  H   UNL     1     -44.282  59.111 -56.455  1.00  0.00     0.162 HD
BRANCH   7  10
HETATM   10  C   UNL     1     -43.501  60.863 -54.786  1.00  0.00     0.141 C 
BRANCH  10  11
HETATM   11  C   UNL     1     -44.153  60.553 -53.457  1.00  0.00    -0.049 A 
HETATM   12  C   UNL     1     -45.542  60.604 -53.281  1.00  0.00     0.010 A 
HETATM   13  C   UNL     1     -46.122  60.352 -52.032  1.00  0.00     0.037 A 
HETATM   14  C   UNL     1     -45.319  60.064 -50.930  1.00  0.00     0.068 A 
HETATM   15  C   UNL     1     -43.933  60.038 -51.091  1.00  0.00     0.037 A 
HETATM   16  C   UNL     1     -43.352  60.282 -52.339  1.00  0.00     0.010 A 
BRANCH  14  17
HETATM   17  O   UNL     1     -45.756  59.806 -49.660  1.00  0.00    -0.356 OA
HETATM   18  C   UNL     1     -45.638  60.864 -48.716  1.00  0.00     0.210 C 
ENDBRANCH  14  17
ENDBRANCH  10  11
ENDBRANCH   7  10
ENDBRANCH   5   6
ENDBRANCH   1   5
BRANCH   2  19
HETATM   19  N   UNL     1     -41.009  55.003 -55.217  1.00  0.00    -0.166 NA
HETATM   20  C   UNL     1     -40.932  54.858 -53.934  1.00  0.00     0.157 A 
HETATM   21  C   UNL     1     -41.209  55.887 -52.831  1.00  0.00     0.277 A 
HETATM   22  C   UNL     1     -40.556  53.628 -53.248  1.00  0.00     0.028 A 
HETATM   23  O   UNL     1     -41.575  57.029 -53.014  1.00  0.00    -0.266 OA
HETATM   24  N   UNL     1     -40.976  55.224 -51.644  1.00  0.00    -0.321 N 
HETATM   25  C   UNL     1     -40.595  53.905 -51.881  1.00  0.00     0.048 A 
HETATM   26  H   UNL     1     -41.079  55.658 -50.738  1.00  0.00     0.169 HD
HETATM   27  C   UNL     1     -40.283  52.942 -50.947  1.00  0.00     0.032 A 
HETATM   28  C   UNL     1     -39.922  51.676 -51.426  1.00  0.00     0.021 A 
HETATM   29  C   UNL     1     -39.884  51.409 -52.812  1.00  0.00     0.012 A 
HETATM   30 BR   UNL     1     -39.386  49.684 -53.407  1.00  0.00    -0.051 Br
HETATM   31  C   UNL     1     -40.202  52.392 -53.749  1.00  0.00     0.035 A 
ENDBRANCH   2  19
TORSDOF 6
ENDMDL
MODEL 10
REMARK VINA RESULT:      -7.1      3.544      7.605
REMARK  6 active torsions:
REMARK  status: ('A' for Active; 'I' for Inactive)
REMARK    1  A    between atoms: O_2  and  C_3 
REMARK    2  A    between atoms: C_6  and  C_7 
REMARK    3  A    between atoms: C_7  and  C_8 
REMARK       I    between atoms: C_8  and  N_9 
REMARK    4  A    between atoms: N_9  and  C_10 
REMARK    5  A    between atoms: C_10  and  C_11 
REMARK       I    between atoms: C_11  and  N_12 
REMARK    6  A    between atoms: N_12  and  N_13 
ROOT
HETATM    1  C   UNL     1     -43.723  57.410 -54.094  1.00  0.00     0.255 C 
HETATM    2  N   UNL     1     -44.086  56.204 -53.524  1.00  0.00    -0.245 N 
HETATM    3  O   UNL     1     -42.697  57.597 -54.750  1.00  0.00    -0.270 OA
HETATM    4  H   UNL     1     -44.898  56.171 -52.907  1.00  0.00     0.192 HD
ENDROOT
BRANCH   1   5
HETATM    5  C   UNL     1     -44.682  58.571 -53.795  1.00  0.00     0.227 C 
BRANCH   5   6
HETATM    6  N   UNL     1     -45.571  59.006 -54.869  1.00  0.00    -0.352 N 
HETATM    7  C   UNL     1     -45.137  59.913 -55.813  1.00  0.00     0.222 C 
HETATM    8  O   UNL     1     -44.106  60.562 -55.669  1.00  0.00    -0.273 OA
HETATM    9  H   UNL     1     -46.306  58.365 -55.143  1.00  0.00     0.162 HD
BRANCH   7  10
HETATM   10  C   UNL     1     -46.030  60.041 -57.035  1.00  0.00     0.141 C 
BRANCH  10  11
HETATM   11  C   UNL     1     -45.977  58.849 -57.964  1.00  0.00    -0.049 A 
HETATM   12  C   UNL     1     -47.101  58.413 -58.679  1.00  0.00     0.010 A 
HETATM   13  C   UNL     1     -47.040  57.284 -59.503  1.00  0.00     0.037 A 
HETATM   14  C   UNL     1     -45.856  56.556 -59.610  1.00  0.00     0.068 A 
HETATM   15  C   UNL     1     -44.741  56.967 -58.879  1.00  0.00     0.037 A 
HETATM   16  C   UNL     1     -44.797  58.099 -58.062  1.00  0.00     0.010 A 
BRANCH  14  17
HETATM   17  O   UNL     1     -45.666  55.435 -60.370  1.00  0.00    -0.356 OA
HETATM   18  C   UNL     1     -44.368  54.853 -60.339  1.00  0.00     0.210 C 
ENDBRANCH  14  17
ENDBRANCH  10  11
ENDBRANCH   7  10
ENDBRANCH   5   6
ENDBRANCH   1   5
BRANCH   2  19
HETATM   19  N   UNL     1     -43.265  55.118 -53.615  1.00  0.00    -0.166 NA
HETATM   20  C   UNL     1     -42.537  54.855 -52.579  1.00  0.00     0.157 A 
HETATM   21  C   UNL     1     -42.499  55.571 -51.223  1.00  0.00     0.277 A 
HETATM   22  C   UNL     1     -41.565  53.772 -52.488  1.00  0.00     0.028 A 
HETATM   23  O   UNL     1     -43.192  56.515 -50.909  1.00  0.00    -0.266 OA
HETATM   24  N   UNL     1     -41.551  54.898 -50.480  1.00  0.00    -0.321 N 
HETATM   25  C   UNL     1     -41.004  53.847 -51.213  1.00  0.00     0.048 A 
HETATM   26  H   UNL     1     -41.308  55.151 -49.533  1.00  0.00     0.169 HD
HETATM   27  C   UNL     1     -40.035  52.957 -50.805  1.00  0.00     0.032 A 
HETATM   28  C   UNL     1     -39.636  51.977 -51.723  1.00  0.00     0.021 A 
HETATM   29  C   UNL     1     -40.210  51.914 -53.011  1.00  0.00     0.012 A 
HETATM   30 BR   UNL     1     -39.634  50.573 -54.215  1.00  0.00    -0.051 Br
HETATM   31  C   UNL     1     -41.191  52.820 -53.413  1.00  0.00     0.035 A 
ENDBRANCH   2  19
TORSDOF 6
ENDMDL
