MODEL 1
REMARK VINA RESULT:      -8.0      0.000      0.000
REMARK  10 active torsions:
REMARK  status: ('A' for Active; 'I' for Inactive)
REMARK    1  A    between atoms: C_2  and  O_3 
REMARK    2  A    between atoms: O_3  and  C_4 
REMARK    3  A    between atoms: C_6  and  O_7 
REMARK    4  A    between atoms: O_7  and  C_8 
REMARK    5  A    between atoms: C_11  and  C_12 
REMARK       I    between atoms: C_12  and  N_13 
REMARK    6  A    between atoms: N_13  and  C_14 
REMARK    7  A    between atoms: C_14  and  N_15 
REMARK    8  A    between atoms: N_15  and  C_16 
REMARK    9  A    between atoms: C_18  and  C_19 
REMARK   10  A    between atoms: C_28  and  O_29 
ROOT
HETATM    1  N   UNL     1     -44.556  59.185 -54.041  1.00  0.00    -0.333 N 
HETATM    2  H   UNL     1     -45.466  58.737 -53.918  1.00  0.00     0.168 HD
ENDROOT
BRANCH   1   3
HETATM    3  C   UNL     1     -44.537  60.103 -55.064  1.00  0.00     0.179 C 
HETATM    4  S   UNL     1     -45.118  61.670 -55.091  1.00  0.00    -0.040 SA
BRANCH   3   5
HETATM    5  N   UNL     1     -43.964  59.659 -56.243  1.00  0.00    -0.299 N 
HETATM    6  C   UNL     1     -42.632  59.686 -56.635  1.00  0.00     0.258 C 
HETATM    7  O   UNL     1     -41.710  59.933 -55.860  1.00  0.00    -0.267 OA
HETATM    8  H   UNL     1     -44.669  59.398 -56.917  1.00  0.00     0.171 HD
BRANCH   6   9
HETATM    9  C   UNL     1     -42.344  59.402 -58.074  1.00  0.00     0.037 A 
HETATM   10  C   UNL     1     -42.050  60.490 -58.910  1.00  0.00     0.054 A 
HETATM   11  C   UNL     1     -41.822  60.289 -60.271  1.00  0.00     0.072 A 
HETATM   12  C   UNL     1     -41.907  58.999 -60.806  1.00  0.00     0.073 A 
HETATM   13  C   UNL     1     -42.183  57.910 -59.984  1.00  0.00     0.072 A 
HETATM   14  C   UNL     1     -42.381  58.111 -58.616  1.00  0.00     0.054 A 
BRANCH  11  15
HETATM   15  O   UNL     1     -41.531  61.263 -61.188  1.00  0.00    -0.351 OA
BRANCH  15  16
HETATM   16  C   UNL     1     -40.880  62.438 -60.705  1.00  0.00     0.171 C 
HETATM   17  C   UNL     1     -39.927  62.918 -61.785  1.00  0.00     0.034 C 
ENDBRANCH  15  16
ENDBRANCH  11  15
BRANCH  13  18
HETATM   18  O   UNL     1     -42.282  56.605 -60.383  1.00  0.00    -0.351 OA
BRANCH  18  19
HETATM   19  C   UNL     1     -43.045  55.730 -59.551  1.00  0.00     0.171 C 
HETATM   20  C   UNL     1     -44.297  55.335 -60.314  1.00  0.00     0.034 C 
ENDBRANCH  18  19
ENDBRANCH  13  18
ENDBRANCH   6   9
ENDBRANCH   3   5
ENDBRANCH   1   3
BRANCH   1  21
HETATM   21  C   UNL     1     -43.555  58.779 -53.130  1.00  0.00     0.035 A 
HETATM   22  C   UNL     1     -42.970  57.519 -53.338  1.00  0.00     0.046 A 
HETATM   23  C   UNL     1     -41.941  57.035 -52.506  1.00  0.00     0.036 A 
HETATM   24  C   UNL     1     -41.474  57.881 -51.481  1.00  0.00     0.084 A 
HETATM   25  C   UNL     1     -42.026  59.150 -51.269  1.00  0.00    -0.026 A 
HETATM   26  C   UNL     1     -41.516  60.042 -50.173  1.00  0.00     0.051 C 
HETATM   27  C   UNL     1     -43.068  59.583 -52.100  1.00  0.00     0.039 A 
BRANCH  23  28
HETATM   28  C   UNL     1     -41.343  55.694 -52.683  1.00  0.00     0.112 A 
HETATM   29  S   UNL     1     -41.119  54.977 -54.229  1.00  0.00    -0.067 SA
HETATM   30  C   UNL     1     -40.513  53.544 -53.495  1.00  0.00     0.035 A 
HETATM   31  C   UNL     1     -40.518  53.710 -52.110  1.00  0.00     0.075 A 
HETATM   32  C   UNL     1     -40.067  52.356 -54.097  1.00  0.00     0.021 A 
HETATM   33  N   UNL     1     -41.006  54.925 -51.662  1.00  0.00    -0.239 NA
HETATM   34  C   UNL     1     -40.051  52.657 -51.297  1.00  0.00     0.033 A 
HETATM   35  C   UNL     1     -39.601  51.471 -51.886  1.00  0.00     0.002 A 
HETATM   36  C   UNL     1     -39.613  51.324 -53.269  1.00  0.00     0.002 A 
ENDBRANCH  23  28
BRANCH  24  37
HETATM   37  O   UNL     1     -40.449  57.511 -50.642  1.00  0.00    -0.359 OA
HETATM   38  H   UNL     1     -40.469  56.533 -50.553  1.00  0.00     0.218 HD
ENDBRANCH  24  37
ENDBRANCH   1  21
TORSDOF 10
ENDMDL
MODEL 2
REMARK VINA RESULT:      -8.0      2.980     10.042
REMARK  10 active torsions:
REMARK  status: ('A' for Active; 'I' for Inactive)
REMARK    1  A    between atoms: C_2  and  O_3 
REMARK    2  A    between atoms: O_3  and  C_4 
REMARK    3  A    between atoms: C_6  and  O_7 
REMARK    4  A    between atoms: O_7  and  C_8 
REMARK    5  A    between atoms: C_11  and  C_12 
REMARK       I    between atoms: C_12  and  N_13 
REMARK    6  A    between atoms: N_13  and  C_14 
REMARK    7  A    between atoms: C_14  and  N_15 
REMARK    8  A    between atoms: N_15  and  C_16 
REMARK    9  A    between atoms: C_18  and  C_19 
REMARK   10  A    between atoms: C_28  and  O_29 
ROOT
HETATM    1  N   UNL     1     -43.960  56.640 -56.781  1.00  0.00    -0.333 N 
HETATM    2  H   UNL     1     -43.715  55.675 -57.013  1.00  0.00     0.168 HD
ENDROOT
BRANCH   1   3
HETATM    3  C   UNL     1     -43.946  56.893 -55.430  1.00  0.00     0.179 C 
HETATM    4  S   UNL     1     -44.823  58.014 -54.553  1.00  0.00    -0.040 SA
BRANCH   3   5
HETATM    5  N   UNL     1     -43.069  56.114 -54.694  1.00  0.00    -0.299 N 
HETATM    6  C   UNL     1     -42.873  54.739 -54.734  1.00  0.00     0.258 C 
HETATM    7  O   UNL     1     -43.330  54.023 -55.621  1.00  0.00    -0.267 OA
HETATM    8  H   UNL     1     -42.623  56.653 -53.967  1.00  0.00     0.171 HD
BRANCH   6   9
HETATM    9  C   UNL     1     -42.066  54.140 -53.627  1.00  0.00     0.037 A 
HETATM   10  C   UNL     1     -41.048  53.238 -53.975  1.00  0.00     0.054 A 
HETATM   11  C   UNL     1     -40.296  52.611 -52.982  1.00  0.00     0.072 A 
HETATM   12  C   UNL     1     -40.573  52.869 -51.635  1.00  0.00     0.073 A 
HETATM   13  C   UNL     1     -41.570  53.773 -51.278  1.00  0.00     0.072 A 
HETATM   14  C   UNL     1     -42.301  54.422 -52.276  1.00  0.00     0.054 A 
BRANCH  11  15
HETATM   15  O   UNL     1     -39.283  51.713 -53.189  1.00  0.00    -0.351 OA
BRANCH  15  16
HETATM   16  C   UNL     1     -39.619  50.327 -53.130  1.00  0.00     0.171 C 
HETATM   17  C   UNL     1     -39.862  49.848 -54.549  1.00  0.00     0.034 C 
ENDBRANCH  15  16
ENDBRANCH  11  15
BRANCH  13  18
HETATM   18  O   UNL     1     -41.927  54.116 -50.003  1.00  0.00    -0.351 OA
BRANCH  18  19
HETATM   19  C   UNL     1     -41.035  54.973 -49.290  1.00  0.00     0.171 C 
HETATM   20  C   UNL     1     -40.401  54.163 -48.172  1.00  0.00     0.034 C 
ENDBRANCH  18  19
ENDBRANCH  13  18
ENDBRANCH   6   9
ENDBRANCH   3   5
ENDBRANCH   1   3
BRANCH   1  21
HETATM   21  C   UNL     1     -44.226  57.478 -57.887  1.00  0.00     0.035 A 
HETATM   22  C   UNL     1     -43.241  58.416 -58.234  1.00  0.00     0.046 A 
HETATM   23  C   UNL     1     -43.395  59.276 -59.339  1.00  0.00     0.036 A 
HETATM   24  C   UNL     1     -44.555  59.130 -60.126  1.00  0.00     0.084 A 
HETATM   25  C   UNL     1     -45.540  58.187 -59.812  1.00  0.00    -0.026 A 
HETATM   26  C   UNL     1     -46.770  58.043 -60.662  1.00  0.00     0.051 C 
HETATM   27  C   UNL     1     -45.363  57.370 -58.688  1.00  0.00     0.039 A 
BRANCH  23  28
HETATM   28  C   UNL     1     -42.388  60.299 -59.695  1.00  0.00     0.112 A 
HETATM   29  S   UNL     1     -41.525  61.199 -58.511  1.00  0.00    -0.067 SA
HETATM   30  C   UNL     1     -40.742  62.104 -59.748  1.00  0.00     0.035 A 
HETATM   31  C   UNL     1     -41.190  61.654 -60.989  1.00  0.00     0.075 A 
HETATM   32  C   UNL     1     -39.800  63.139 -59.631  1.00  0.00     0.021 A 
HETATM   33  N   UNL     1     -42.134  60.643 -60.946  1.00  0.00    -0.239 NA
HETATM   34  C   UNL     1     -40.672  62.251 -62.156  1.00  0.00     0.033 A 
HETATM   35  C   UNL     1     -39.731  63.279 -62.053  1.00  0.00     0.002 A 
HETATM   36  C   UNL     1     -39.304  63.718 -60.803  1.00  0.00     0.002 A 
ENDBRANCH  23  28
BRANCH  24  37
HETATM   37  O   UNL     1     -44.776  59.899 -61.245  1.00  0.00    -0.359 OA
HETATM   38  H   UNL     1     -44.362  60.777 -61.096  1.00  0.00     0.218 HD
ENDBRANCH  24  37
ENDBRANCH   1  21
TORSDOF 10
ENDMDL
MODEL 3
REMARK VINA RESULT:      -7.9      1.240      3.266
REMARK  10 active torsions:
REMARK  status: ('A' for Active; 'I' for Inactive)
REMARK    1  A    between atoms: C_2  and  O_3 
REMARK    2  A    between atoms: O_3  and  C_4 
REMARK    3  A    between atoms: C_6  and  O_7 
REMARK    4  A    between atoms: O_7  and  C_8 
REMARK    5  A    between atoms: C_11  and  C_12 
REMARK       I    between atoms: C_12  and  N_13 
REMARK    6  A    between atoms: N_13  and  C_14 
REMARK    7  A    between atoms: C_14  and  N_15 
REMARK    8  A    between atoms: N_15  and  C_16 
REMARK    9  A    between atoms: C_18  and  C_19 
REMARK   10  A    between atoms: C_28  and  O_29 
ROOT
HETATM    1  N   UNL     1     -45.065  59.323 -53.665  1.00  0.00    -0.333 N 
HETATM    2  H   UNL     1     -45.921  58.802 -53.466  1.00  0.00     0.168 HD
ENDROOT
BRANCH   1   3
HETATM    3  C   UNL     1     -45.229  60.289 -54.629  1.00  0.00     0.179 C 
HETATM    4  S   UNL     1     -45.932  61.801 -54.505  1.00  0.00    -0.040 SA
BRANCH   3   5
HETATM    5  N   UNL     1     -44.754  59.953 -55.885  1.00  0.00    -0.299 N 
HETATM    6  C   UNL     1     -44.862  58.749 -56.570  1.00  0.00     0.258 C 
HETATM    7  O   UNL     1     -45.611  57.842 -56.216  1.00  0.00    -0.267 OA
HETATM    8  H   UNL     1     -44.160  60.678 -56.258  1.00  0.00     0.171 HD
BRANCH   6   9
HETATM    9  C   UNL     1     -44.009  58.586 -57.787  1.00  0.00     0.037 A 
HETATM   10  C   UNL     1     -43.974  57.322 -58.396  1.00  0.00     0.054 A 
HETATM   11  C   UNL     1     -43.157  57.098 -59.504  1.00  0.00     0.072 A 
HETATM   12  C   UNL     1     -42.357  58.134 -59.996  1.00  0.00     0.073 A 
HETATM   13  C   UNL     1     -42.394  59.397 -59.410  1.00  0.00     0.072 A 
HETATM   14  C   UNL     1     -43.235  59.625 -58.319  1.00  0.00     0.054 A 
BRANCH  11  15
HETATM   15  O   UNL     1     -43.032  55.916 -60.182  1.00  0.00    -0.351 OA
BRANCH  15  16
HETATM   16  C   UNL     1     -44.043  54.931 -59.967  1.00  0.00     0.171 C 
HETATM   17  C   UNL     1     -45.030  55.020 -61.116  1.00  0.00     0.034 C 
ENDBRANCH  15  16
ENDBRANCH  11  15
BRANCH  13  18
HETATM   18  O   UNL     1     -41.671  60.489 -59.804  1.00  0.00    -0.351 OA
BRANCH  18  19
HETATM   19  C   UNL     1     -41.797  61.668 -59.010  1.00  0.00     0.171 C 
HETATM   20  C   UNL     1     -40.401  62.111 -58.606  1.00  0.00     0.034 C 
ENDBRANCH  18  19
ENDBRANCH  13  18
ENDBRANCH   6   9
ENDBRANCH   3   5
ENDBRANCH   1   3
BRANCH   1  21
HETATM   21  C   UNL     1     -43.939  58.951 -52.896  1.00  0.00     0.035 A 
HETATM   22  C   UNL     1     -43.333  57.722 -53.198  1.00  0.00     0.046 A 
HETATM   23  C   UNL     1     -42.187  57.274 -52.512  1.00  0.00     0.036 A 
HETATM   24  C   UNL     1     -41.629  58.128 -51.540  1.00  0.00     0.084 A 
HETATM   25  C   UNL     1     -42.203  59.369 -51.237  1.00  0.00    -0.026 A 
HETATM   26  C   UNL     1     -41.596  60.269 -50.200  1.00  0.00     0.051 C 
HETATM   27  C   UNL     1     -43.360  59.765 -51.922  1.00  0.00     0.039 A 
BRANCH  23  28
HETATM   28  C   UNL     1     -41.559  55.964 -52.787  1.00  0.00     0.112 A 
HETATM   29  S   UNL     1     -41.348  55.354 -54.380  1.00  0.00    -0.067 SA
HETATM   30  C   UNL     1     -40.693  53.893 -53.752  1.00  0.00     0.035 A 
HETATM   31  C   UNL     1     -40.674  53.968 -52.360  1.00  0.00     0.075 A 
HETATM   32  C   UNL     1     -40.230  52.758 -54.438  1.00  0.00     0.021 A 
HETATM   33  N   UNL     1     -41.183  55.139 -51.824  1.00  0.00    -0.239 NA
HETATM   34  C   UNL     1     -40.166  52.878 -51.626  1.00  0.00     0.033 A 
HETATM   35  C   UNL     1     -39.698  51.745 -52.298  1.00  0.00     0.002 A 
HETATM   36  C   UNL     1     -39.734  51.687 -53.687  1.00  0.00     0.002 A 
ENDBRANCH  23  28
BRANCH  24  37
HETATM   37  O   UNL     1     -40.490  57.794 -50.845  1.00  0.00    -0.359 OA
HETATM   38  H   UNL     1     -40.736  57.669 -49.903  1.00  0.00     0.218 HD
ENDBRANCH  24  37
ENDBRANCH   1  21
TORSDOF 10
ENDMDL
MODEL 4
REMARK VINA RESULT:      -7.7      1.585      1.724
REMARK  10 active torsions:
REMARK  status: ('A' for Active; 'I' for Inactive)
REMARK    1  A    between atoms: C_2  and  O_3 
REMARK    2  A    between atoms: O_3  and  C_4 
REMARK    3  A    between atoms: C_6  and  O_7 
REMARK    4  A    between atoms: O_7  and  C_8 
REMARK    5  A    between atoms: C_11  and  C_12 
REMARK       I    between atoms: C_12  and  N_13 
REMARK    6  A    between atoms: N_13  and  C_14 
REMARK    7  A    between atoms: C_14  and  N_15 
REMARK    8  A    between atoms: N_15  and  C_16 
REMARK    9  A    between atoms: C_18  and  C_19 
REMARK   10  A    between atoms: C_28  and  O_29 
ROOT
HETATM    1  N   UNL     1     -41.975  59.858 -53.829  1.00  0.00    -0.333 N 
HETATM    2  H   UNL     1     -40.985  60.021 -53.638  1.00  0.00     0.168 HD
ENDROOT
BRANCH   1   3
HETATM    3  C   UNL     1     -42.521  60.783 -54.687  1.00  0.00     0.179 C 
HETATM    4  S   UNL     1     -43.229  62.259 -54.344  1.00  0.00    -0.040 SA
BRANCH   3   5
HETATM    5  N   UNL     1     -42.488  60.436 -56.027  1.00  0.00    -0.299 N 
HETATM    6  C   UNL     1     -43.200  59.446 -56.693  1.00  0.00     0.258 C 
HETATM    7  O   UNL     1     -44.156  58.856 -56.192  1.00  0.00    -0.267 OA
HETATM    8  H   UNL     1     -41.747  60.918 -56.513  1.00  0.00     0.171 HD
BRANCH   6   9
HETATM    9  C   UNL     1     -42.753  59.108 -58.078  1.00  0.00     0.037 A 
HETATM   10  C   UNL     1     -42.379  60.166 -58.921  1.00  0.00     0.054 A 
HETATM   11  C   UNL     1     -42.000  59.915 -60.240  1.00  0.00     0.072 A 
HETATM   12  C   UNL     1     -42.013  58.604 -60.727  1.00  0.00     0.073 A 
HETATM   13  C   UNL     1     -42.367  57.544 -59.896  1.00  0.00     0.072 A 
HETATM   14  C   UNL     1     -42.717  57.796 -58.568  1.00  0.00     0.054 A 
BRANCH  11  15
HETATM   15  O   UNL     1     -41.619  60.856 -61.158  1.00  0.00    -0.351 OA
BRANCH  15  16
HETATM   16  C   UNL     1     -42.657  61.546 -61.853  1.00  0.00     0.171 C 
HETATM   17  C   UNL     1     -42.325  61.516 -63.333  1.00  0.00     0.034 C 
ENDBRANCH  15  16
ENDBRANCH  11  15
BRANCH  13  18
HETATM   18  O   UNL     1     -42.409  56.223 -60.250  1.00  0.00    -0.351 OA
BRANCH  18  19
HETATM   19  C   UNL     1     -43.494  55.450 -59.737  1.00  0.00     0.171 C 
HETATM   20  C   UNL     1     -44.599  55.447 -60.779  1.00  0.00     0.034 C 
ENDBRANCH  18  19
ENDBRANCH  13  18
ENDBRANCH   6   9
ENDBRANCH   3   5
ENDBRANCH   1   3
BRANCH   1  21
HETATM   21  C   UNL     1     -42.535  58.725 -53.197  1.00  0.00     0.035 A 
HETATM   22  C   UNL     1     -41.860  57.504 -53.354  1.00  0.00     0.046 A 
HETATM   23  C   UNL     1     -42.317  56.322 -52.737  1.00  0.00     0.036 A 
HETATM   24  C   UNL     1     -43.453  56.413 -51.908  1.00  0.00     0.084 A 
HETATM   25  C   UNL     1     -44.128  57.624 -51.719  1.00  0.00    -0.026 A 
HETATM   26  C   UNL     1     -45.336  57.704 -50.829  1.00  0.00     0.051 C 
HETATM   27  C   UNL     1     -43.659  58.770 -52.372  1.00  0.00     0.039 A 
BRANCH  23  28
HETATM   28  C   UNL     1     -41.645  55.019 -52.925  1.00  0.00     0.112 A 
HETATM   29  S   UNL     1     -41.641  54.187 -54.430  1.00  0.00    -0.067 SA
HETATM   30  C   UNL     1     -40.790  52.872 -53.720  1.00  0.00     0.035 A 
HETATM   31  C   UNL     1     -40.560  53.157 -52.375  1.00  0.00     0.075 A 
HETATM   32  C   UNL     1     -40.358  51.671 -54.308  1.00  0.00     0.021 A 
HETATM   33  N   UNL     1     -41.063  54.368 -51.932  1.00  0.00    -0.239 NA
HETATM   34  C   UNL     1     -39.864  52.216 -51.589  1.00  0.00     0.033 A 
HETATM   35  C   UNL     1     -39.425  51.019 -52.164  1.00  0.00     0.002 A 
HETATM   36  C   UNL     1     -39.673  50.752 -53.506  1.00  0.00     0.002 A 
ENDBRANCH  23  28
BRANCH  24  37
HETATM   37  O   UNL     1     -43.951  55.321 -51.235  1.00  0.00    -0.359 OA
HETATM   38  H   UNL     1     -44.099  55.583 -50.301  1.00  0.00     0.218 HD
ENDBRANCH  24  37
ENDBRANCH   1  21
TORSDOF 10
ENDMDL
MODEL 5
REMARK VINA RESULT:      -7.7      1.452      3.432
REMARK  10 active torsions:
REMARK  status: ('A' for Active; 'I' for Inactive)
REMARK    1  A    between atoms: C_2  and  O_3 
REMARK    2  A    between atoms: O_3  and  C_4 
REMARK    3  A    between atoms: C_6  and  O_7 
REMARK    4  A    between atoms: O_7  and  C_8 
REMARK    5  A    between atoms: C_11  and  C_12 
REMARK       I    between atoms: C_12  and  N_13 
REMARK    6  A    between atoms: N_13  and  C_14 
REMARK    7  A    between atoms: C_14  and  N_15 
REMARK    8  A    between atoms: N_15  and  C_16 
REMARK    9  A    between atoms: C_18  and  C_19 
REMARK   10  A    between atoms: C_28  and  O_29 
ROOT
HETATM    1  N   UNL     1     -42.013  60.006 -53.936  1.00  0.00    -0.333 N 
HETATM    2  H   UNL     1     -41.016  60.160 -53.774  1.00  0.00     0.168 HD
ENDROOT
BRANCH   1   3
HETATM    3  C   UNL     1     -42.574  60.933 -54.781  1.00  0.00     0.179 C 
HETATM    4  S   UNL     1     -43.329  62.380 -54.416  1.00  0.00    -0.040 SA
BRANCH   3   5
HETATM    5  N   UNL     1     -42.515  60.616 -56.127  1.00  0.00    -0.299 N 
HETATM    6  C   UNL     1     -43.428  59.911 -56.903  1.00  0.00     0.258 C 
HETATM    7  O   UNL     1     -44.565  59.642 -56.520  1.00  0.00    -0.267 OA
HETATM    8  H   UNL     1     -41.615  60.849 -56.520  1.00  0.00     0.171 HD
BRANCH   6   9
HETATM    9  C   UNL     1     -42.969  59.474 -58.256  1.00  0.00     0.037 A 
HETATM   10  C   UNL     1     -42.999  58.101 -58.544  1.00  0.00     0.054 A 
HETATM   11  C   UNL     1     -42.537  57.630 -59.773  1.00  0.00     0.072 A 
HETATM   12  C   UNL     1     -42.025  58.531 -60.713  1.00  0.00     0.073 A 
HETATM   13  C   UNL     1     -42.004  59.898 -60.445  1.00  0.00     0.072 A 
HETATM   14  C   UNL     1     -42.495  60.368 -59.225  1.00  0.00     0.054 A 
BRANCH  11  15
HETATM   15  O   UNL     1     -42.509  56.321 -60.172  1.00  0.00    -0.351 OA
BRANCH  15  16
HETATM   16  C   UNL     1     -43.532  55.464 -59.665  1.00  0.00     0.171 C 
HETATM   17  C   UNL     1     -44.588  55.313 -60.744  1.00  0.00     0.034 C 
ENDBRANCH  15  16
ENDBRANCH  11  15
BRANCH  13  18
HETATM   18  O   UNL     1     -41.541  60.875 -61.281  1.00  0.00    -0.351 OA
BRANCH  18  19
HETATM   19  C   UNL     1     -41.376  62.180 -60.723  1.00  0.00     0.171 C 
HETATM   20  C   UNL     1     -40.127  62.793 -61.332  1.00  0.00     0.034 C 
ENDBRANCH  18  19
ENDBRANCH  13  18
ENDBRANCH   6   9
ENDBRANCH   3   5
ENDBRANCH   1   3
BRANCH   1  21
HETATM   21  C   UNL     1     -42.565  58.880 -53.284  1.00  0.00     0.035 A 
HETATM   22  C   UNL     1     -41.880  57.662 -53.416  1.00  0.00     0.046 A 
HETATM   23  C   UNL     1     -42.328  56.488 -52.779  1.00  0.00     0.036 A 
HETATM   24  C   UNL     1     -43.467  56.585 -51.954  1.00  0.00     0.084 A 
HETATM   25  C   UNL     1     -44.153  57.793 -51.789  1.00  0.00    -0.026 A 
HETATM   26  C   UNL     1     -45.364  57.880 -50.905  1.00  0.00     0.051 C 
HETATM   27  C   UNL     1     -43.692  58.932 -52.463  1.00  0.00     0.039 A 
BRANCH  23  28
HETATM   28  C   UNL     1     -41.645  55.187 -52.940  1.00  0.00     0.112 A 
HETATM   29  S   UNL     1     -41.613  54.337 -54.434  1.00  0.00    -0.067 SA
HETATM   30  C   UNL     1     -40.764  53.036 -53.695  1.00  0.00     0.035 A 
HETATM   31  C   UNL     1     -40.556  53.340 -52.350  1.00  0.00     0.075 A 
HETATM   32  C   UNL     1     -40.315  51.832 -54.261  1.00  0.00     0.021 A 
HETATM   33  N   UNL     1     -41.074  54.553 -51.930  1.00  0.00    -0.239 NA
HETATM   34  C   UNL     1     -39.867  52.413 -51.542  1.00  0.00     0.033 A 
HETATM   35  C   UNL     1     -39.411  51.213 -52.095  1.00  0.00     0.002 A 
HETATM   36  C   UNL     1     -39.636  50.927 -53.438  1.00  0.00     0.002 A 
ENDBRANCH  23  28
BRANCH  24  37
HETATM   37  O   UNL     1     -43.958  55.502 -51.262  1.00  0.00    -0.359 OA
HETATM   38  H   UNL     1     -43.195  55.009 -50.891  1.00  0.00     0.218 HD
ENDBRANCH  24  37
ENDBRANCH   1  21
TORSDOF 10
ENDMDL
MODEL 6
REMARK VINA RESULT:      -7.7      3.888      7.905
REMARK  10 active torsions:
REMARK  status: ('A' for Active; 'I' for Inactive)
REMARK    1  A    between atoms: C_2  and  O_3 
REMARK    2  A    between atoms: O_3  and  C_4 
REMARK    3  A    between atoms: C_6  and  O_7 
REMARK    4  A    between atoms: O_7  and  C_8 
REMARK    5  A    between atoms: C_11  and  C_12 
REMARK       I    between atoms: C_12  and  N_13 
REMARK    6  A    between atoms: N_13  and  C_14 
REMARK    7  A    between atoms: C_14  and  N_15 
REMARK    8  A    between atoms: N_15  and  C_16 
REMARK    9  A    between atoms: C_18  and  C_19 
REMARK   10  A    between atoms: C_28  and  O_29 
ROOT
HETATM    1  N   UNL     1     -40.662  59.055 -53.184  1.00  0.00    -0.333 N 
HETATM    2  H   UNL     1     -40.186  59.760 -53.751  1.00  0.00     0.168 HD
ENDROOT
BRANCH   1   3
HETATM    3  C   UNL     1     -40.715  59.379 -51.849  1.00  0.00     0.179 C 
HETATM    4  S   UNL     1     -39.504  59.328 -50.697  1.00  0.00    -0.040 SA
BRANCH   3   5
HETATM    5  N   UNL     1     -41.954  59.796 -51.394  1.00  0.00    -0.299 N 
HETATM    6  C   UNL     1     -42.806  60.756 -51.926  1.00  0.00     0.258 C 
HETATM    7  O   UNL     1     -42.655  61.239 -53.046  1.00  0.00    -0.267 OA
HETATM    8  H   UNL     1     -42.164  59.402 -50.489  1.00  0.00     0.171 HD
BRANCH   6   9
HETATM    9  C   UNL     1     -43.945  61.200 -51.066  1.00  0.00     0.037 A 
HETATM   10  C   UNL     1     -43.807  61.064 -49.676  1.00  0.00     0.054 A 
HETATM   11  C   UNL     1     -44.857  61.416 -48.827  1.00  0.00     0.072 A 
HETATM   12  C   UNL     1     -46.057  61.888 -49.368  1.00  0.00     0.073 A 
HETATM   13  C   UNL     1     -46.201  62.041 -50.745  1.00  0.00     0.072 A 
HETATM   14  C   UNL     1     -45.137  61.716 -51.590  1.00  0.00     0.054 A 
BRANCH  11  15
HETATM   15  O   UNL     1     -44.848  61.327 -47.462  1.00  0.00    -0.351 OA
BRANCH  15  16
HETATM   16  C   UNL     1     -46.113  61.280 -46.804  1.00  0.00     0.171 C 
HETATM   17  C   UNL     1     -46.253  59.912 -46.162  1.00  0.00     0.034 C 
ENDBRANCH  15  16
ENDBRANCH  11  15
BRANCH  13  18
HETATM   18  O   UNL     1     -47.316  62.500 -51.391  1.00  0.00    -0.351 OA
BRANCH  18  19
HETATM   19  C   UNL     1     -47.413  63.910 -51.592  1.00  0.00     0.171 C 
HETATM   20  C   UNL     1     -48.763  64.200 -52.224  1.00  0.00     0.034 C 
ENDBRANCH  18  19
ENDBRANCH  13  18
ENDBRANCH   6   9
ENDBRANCH   3   5
ENDBRANCH   1   3
BRANCH   1  21
HETATM   21  C   UNL     1     -41.165  57.945 -53.898  1.00  0.00     0.035 A 
HETATM   22  C   UNL     1     -40.812  56.668 -53.433  1.00  0.00     0.046 A 
HETATM   23  C   UNL     1     -41.288  55.497 -54.054  1.00  0.00     0.036 A 
HETATM   24  C   UNL     1     -42.180  55.644 -55.135  1.00  0.00     0.084 A 
HETATM   25  C   UNL     1     -42.564  56.907 -55.602  1.00  0.00    -0.026 A 
HETATM   26  C   UNL     1     -43.518  57.047 -56.753  1.00  0.00     0.051 C 
HETATM   27  C   UNL     1     -42.046  58.047 -54.975  1.00  0.00     0.039 A 
BRANCH  23  28
HETATM   28  C   UNL     1     -40.893  54.144 -53.605  1.00  0.00     0.112 A 
HETATM   29  S   UNL     1     -40.539  53.780 -51.963  1.00  0.00    -0.067 SA
HETATM   30  C   UNL     1     -40.135  52.164 -52.391  1.00  0.00     0.035 A 
HETATM   31  C   UNL     1     -40.301  52.007 -53.767  1.00  0.00     0.075 A 
HETATM   32  C   UNL     1     -39.699  51.109 -51.572  1.00  0.00     0.021 A 
HETATM   33  N   UNL     1     -40.715  53.140 -54.446  1.00  0.00    -0.239 NA
HETATM   34  C   UNL     1     -40.033  50.749 -54.345  1.00  0.00     0.033 A 
HETATM   35  C   UNL     1     -39.603  49.691 -53.539  1.00  0.00     0.002 A 
HETATM   36  C   UNL     1     -39.436  49.872 -52.170  1.00  0.00     0.002 A 
ENDBRANCH  23  28
BRANCH  24  37
HETATM   37  O   UNL     1     -42.726  54.559 -55.781  1.00  0.00    -0.359 OA
HETATM   38  H   UNL     1     -43.689  54.546 -55.588  1.00  0.00     0.218 HD
ENDBRANCH  24  37
ENDBRANCH   1  21
TORSDOF 10
ENDMDL
MODEL 7
REMARK VINA RESULT:      -7.6      3.711      8.485
REMARK  10 active torsions:
REMARK  status: ('A' for Active; 'I' for Inactive)
REMARK    1  A    between atoms: C_2  and  O_3 
REMARK    2  A    between atoms: O_3  and  C_4 
REMARK    3  A    between atoms: C_6  and  O_7 
REMARK    4  A    between atoms: O_7  and  C_8 
REMARK    5  A    between atoms: C_11  and  C_12 
REMARK       I    between atoms: C_12  and  N_13 
REMARK    6  A    between atoms: N_13  and  C_14 
REMARK    7  A    between atoms: C_14  and  N_15 
REMARK    8  A    between atoms: N_15  and  C_16 
REMARK    9  A    between atoms: C_18  and  C_19 
REMARK   10  A    between atoms: C_28  and  O_29 
ROOT
HETATM    1  N   UNL     1     -42.150  59.337 -55.272  1.00  0.00    -0.333 N 
HETATM    2  H   UNL     1     -42.060  60.173 -55.854  1.00  0.00     0.168 HD
ENDROOT
BRANCH   1   3
HETATM    3  C   UNL     1     -42.381  58.193 -55.997  1.00  0.00     0.179 C 
HETATM    4  S   UNL     1     -42.970  58.026 -57.553  1.00  0.00    -0.040 SA
BRANCH   3   5
HETATM    5  N   UNL     1     -42.095  57.010 -55.338  1.00  0.00    -0.299 N 
HETATM    6  C   UNL     1     -42.926  56.221 -54.553  1.00  0.00     0.258 C 
HETATM    7  O   UNL     1     -44.146  56.370 -54.508  1.00  0.00    -0.267 OA
HETATM    8  H   UNL     1     -41.108  56.802 -55.370  1.00  0.00     0.171 HD
BRANCH   6   9
HETATM    9  C   UNL     1     -42.272  55.154 -53.736  1.00  0.00     0.037 A 
HETATM   10  C   UNL     1     -42.125  55.381 -52.359  1.00  0.00     0.054 A 
HETATM   11  C   UNL     1     -41.478  54.442 -51.556  1.00  0.00     0.072 A 
HETATM   12  C   UNL     1     -40.958  53.278 -52.133  1.00  0.00     0.073 A 
HETATM   13  C   UNL     1     -41.110  53.034 -53.495  1.00  0.00     0.072 A 
HETATM   14  C   UNL     1     -41.784  53.963 -54.290  1.00  0.00     0.054 A 
BRANCH  11  15
HETATM   15  O   UNL     1     -41.270  54.547 -50.208  1.00  0.00    -0.351 OA
BRANCH  15  16
HETATM   16  C   UNL     1     -40.240  53.737 -49.643  1.00  0.00     0.171 C 
HETATM   17  C   UNL     1     -40.242  53.963 -48.142  1.00  0.00     0.034 C 
ENDBRANCH  15  16
ENDBRANCH  11  15
BRANCH  13  18
HETATM   18  O   UNL     1     -40.656  51.935 -54.171  1.00  0.00    -0.351 OA
BRANCH  18  19
HETATM   19  C   UNL     1     -39.541  51.244 -53.609  1.00  0.00     0.171 C 
HETATM   20  C   UNL     1     -39.480  49.864 -54.240  1.00  0.00     0.034 C 
ENDBRANCH  18  19
ENDBRANCH  13  18
ENDBRANCH   6   9
ENDBRANCH   3   5
ENDBRANCH   1   3
BRANCH   1  21
HETATM   21  C   UNL     1     -41.992  59.549 -53.884  1.00  0.00     0.035 A 
HETATM   22  C   UNL     1     -43.070  60.132 -53.197  1.00  0.00     0.046 A 
HETATM   23  C   UNL     1     -43.026  60.355 -51.806  1.00  0.00     0.036 A 
HETATM   24  C   UNL     1     -41.880  59.925 -51.109  1.00  0.00     0.084 A 
HETATM   25  C   UNL     1     -40.803  59.322 -51.769  1.00  0.00    -0.026 A 
HETATM   26  C   UNL     1     -39.589  58.867 -51.011  1.00  0.00     0.051 C 
HETATM   27  C   UNL     1     -40.873  59.144 -53.157  1.00  0.00     0.039 A 
BRANCH  23  28
HETATM   28  C   UNL     1     -44.133  61.006 -51.072  1.00  0.00     0.112 A 
HETATM   29  S   UNL     1     -45.158  62.182 -51.795  1.00  0.00    -0.067 SA
HETATM   30  C   UNL     1     -45.985  62.401 -50.303  1.00  0.00     0.035 A 
HETATM   31  C   UNL     1     -45.424  61.555 -49.347  1.00  0.00     0.075 A 
HETATM   32  C   UNL     1     -47.052  63.262 -49.996  1.00  0.00     0.021 A 
HETATM   33  N   UNL     1     -44.365  60.782 -49.791  1.00  0.00    -0.239 NA
HETATM   34  C   UNL     1     -45.954  61.559 -48.041  1.00  0.00     0.033 A 
HETATM   35  C   UNL     1     -47.019  62.408 -47.725  1.00  0.00     0.002 A 
HETATM   36  C   UNL     1     -47.557  63.250 -48.692  1.00  0.00     0.002 A 
ENDBRANCH  23  28
BRANCH  24  37
HETATM   37  O   UNL     1     -41.762  60.067 -49.746  1.00  0.00    -0.359 OA
HETATM   38  H   UNL     1     -42.417  59.472 -49.322  1.00  0.00     0.218 HD
ENDBRANCH  24  37
ENDBRANCH   1  21
TORSDOF 10
ENDMDL
MODEL 8
REMARK VINA RESULT:      -7.5      2.852      9.448
REMARK  10 active torsions:
REMARK  status: ('A' for Active; 'I' for Inactive)
REMARK    1  A    between atoms: C_2  and  O_3 
REMARK    2  A    between atoms: O_3  and  C_4 
REMARK    3  A    between atoms: C_6  and  O_7 
REMARK    4  A    between atoms: O_7  and  C_8 
REMARK    5  A    between atoms: C_11  and  C_12 
REMARK       I    between atoms: C_12  and  N_13 
REMARK    6  A    between atoms: N_13  and  C_14 
REMARK    7  A    between atoms: C_14  and  N_15 
REMARK    8  A    between atoms: N_15  and  C_16 
REMARK    9  A    between atoms: C_18  and  C_19 
REMARK   10  A    between atoms: C_28  and  O_29 
ROOT
HETATM    1  N   UNL     1     -45.222  57.383 -56.116  1.00  0.00    -0.333 N 
HETATM    2  H   UNL     1     -45.684  56.473 -56.057  1.00  0.00     0.168 HD
ENDROOT
BRANCH   1   3
HETATM    3  C   UNL     1     -44.714  57.811 -54.913  1.00  0.00     0.179 C 
HETATM    4  S   UNL     1     -44.999  59.240 -54.091  1.00  0.00    -0.040 SA
BRANCH   3   5
HETATM    5  N   UNL     1     -43.832  56.938 -54.301  1.00  0.00    -0.299 N 
HETATM    6  C   UNL     1     -42.966  56.018 -54.880  1.00  0.00     0.258 C 
HETATM    7  O   UNL     1     -42.709  56.005 -56.082  1.00  0.00    -0.267 OA
HETATM    8  H   UNL     1     -43.960  56.928 -53.300  1.00  0.00     0.171 HD
BRANCH   6   9
HETATM    9  C   UNL     1     -42.341  55.012 -53.969  1.00  0.00     0.037 A 
HETATM   10  C   UNL     1     -42.621  55.109 -52.597  1.00  0.00     0.054 A 
HETATM   11  C   UNL     1     -42.027  54.227 -51.694  1.00  0.00     0.072 A 
HETATM   12  C   UNL     1     -41.134  53.256 -52.159  1.00  0.00     0.073 A 
HETATM   13  C   UNL     1     -40.860  53.140 -53.519  1.00  0.00     0.072 A 
HETATM   14  C   UNL     1     -41.480  54.005 -54.423  1.00  0.00     0.054 A 
BRANCH  11  15
HETATM   15  O   UNL     1     -42.215  54.220 -50.338  1.00  0.00    -0.351 OA
BRANCH  15  16
HETATM   16  C   UNL     1     -41.419  55.119 -49.566  1.00  0.00     0.171 C 
HETATM   17  C   UNL     1     -40.474  54.289 -48.717  1.00  0.00     0.034 C 
ENDBRANCH  15  16
ENDBRANCH  11  15
BRANCH  13  18
HETATM   18  O   UNL     1     -40.018  52.229 -54.096  1.00  0.00    -0.351 OA
BRANCH  18  19
HETATM   19  C   UNL     1     -40.518  50.903 -54.268  1.00  0.00     0.171 C 
HETATM   20  C   UNL     1     -39.378  49.935 -54.002  1.00  0.00     0.034 C 
ENDBRANCH  18  19
ENDBRANCH  13  18
ENDBRANCH   6   9
ENDBRANCH   3   5
ENDBRANCH   1   3
BRANCH   1  21
HETATM   21  C   UNL     1     -45.194  57.964 -57.403  1.00  0.00     0.035 A 
HETATM   22  C   UNL     1     -44.097  58.784 -57.713  1.00  0.00     0.046 A 
HETATM   23  C   UNL     1     -43.958  59.384 -58.980  1.00  0.00     0.036 A 
HETATM   24  C   UNL     1     -44.933  59.093 -59.955  1.00  0.00     0.084 A 
HETATM   25  C   UNL     1     -46.023  58.261 -59.675  1.00  0.00    -0.026 A 
HETATM   26  C   UNL     1     -47.054  57.958 -60.725  1.00  0.00     0.051 C 
HETATM   27  C   UNL     1     -46.141  57.706 -58.394  1.00  0.00     0.039 A 
BRANCH  23  28
HETATM   28  C   UNL     1     -42.833  60.285 -59.312  1.00  0.00     0.112 A 
HETATM   29  S   UNL     1     -41.815  60.977 -58.111  1.00  0.00    -0.067 SA
HETATM   30  C   UNL     1     -40.957  61.852 -59.319  1.00  0.00     0.035 A 
HETATM   31  C   UNL     1     -41.504  61.554 -60.566  1.00  0.00     0.075 A 
HETATM   32  C   UNL     1     -39.879  62.740 -59.175  1.00  0.00     0.021 A 
HETATM   33  N   UNL     1     -42.577  60.678 -60.548  1.00  0.00    -0.239 NA
HETATM   34  C   UNL     1     -40.949  62.155 -61.714  1.00  0.00     0.033 A 
HETATM   35  C   UNL     1     -39.873  63.038 -61.584  1.00  0.00     0.002 A 
HETATM   36  C   UNL     1     -39.348  63.328 -60.329  1.00  0.00     0.002 A 
ENDBRANCH  23  28
BRANCH  24  37
HETATM   37  O   UNL     1     -44.862  59.603 -61.231  1.00  0.00    -0.359 OA
HETATM   38  H   UNL     1     -44.109  59.171 -61.687  1.00  0.00     0.218 HD
ENDBRANCH  24  37
ENDBRANCH   1  21
TORSDOF 10
ENDMDL
MODEL 9
REMARK VINA RESULT:      -7.5      3.191      8.524
REMARK  10 active torsions:
REMARK  status: ('A' for Active; 'I' for Inactive)
REMARK    1  A    between atoms: C_2  and  O_3 
REMARK    2  A    between atoms: O_3  and  C_4 
REMARK    3  A    between atoms: C_6  and  O_7 
REMARK    4  A    between atoms: O_7  and  C_8 
REMARK    5  A    between atoms: C_11  and  C_12 
REMARK       I    between atoms: C_12  and  N_13 
REMARK    6  A    between atoms: N_13  and  C_14 
REMARK    7  A    between atoms: C_14  and  N_15 
REMARK    8  A    between atoms: N_15  and  C_16 
REMARK    9  A    between atoms: C_18  and  C_19 
REMARK   10  A    between atoms: C_28  and  O_29 
ROOT
HETATM    1  N   UNL     1     -43.043  59.112 -52.868  1.00  0.00    -0.333 N 
HETATM    2  H   UNL     1     -42.330  59.640 -52.361  1.00  0.00     0.168 HD
ENDROOT
BRANCH   1   3
HETATM    3  C   UNL     1     -43.485  58.004 -52.186  1.00  0.00     0.179 C 
HETATM    4  S   UNL     1     -44.856  57.814 -51.247  1.00  0.00    -0.040 SA
BRANCH   3   5
HETATM    5  N   UNL     1     -42.670  56.889 -52.282  1.00  0.00    -0.299 N 
HETATM    6  C   UNL     1     -42.814  55.765 -53.086  1.00  0.00     0.258 C 
HETATM    7  O   UNL     1     -43.615  55.704 -54.016  1.00  0.00    -0.267 OA
HETATM    8  H   UNL     1     -41.957  56.894 -51.568  1.00  0.00     0.171 HD
BRANCH   6   9
HETATM    9  C   UNL     1     -41.939  54.594 -52.772  1.00  0.00     0.037 A 
HETATM   10  C   UNL     1     -41.527  54.423 -51.442  1.00  0.00     0.054 A 
HETATM   11  C   UNL     1     -40.670  53.376 -51.100  1.00  0.00     0.072 A 
HETATM   12  C   UNL     1     -40.207  52.508 -52.093  1.00  0.00     0.073 A 
HETATM   13  C   UNL     1     -40.620  52.658 -53.414  1.00  0.00     0.072 A 
HETATM   14  C   UNL     1     -41.501  53.689 -53.748  1.00  0.00     0.054 A 
BRANCH  11  15
HETATM   15  O   UNL     1     -40.196  53.106 -49.845  1.00  0.00    -0.351 OA
BRANCH  15  16
HETATM   16  C   UNL     1     -39.855  54.221 -49.023  1.00  0.00     0.171 C 
HETATM   17  C   UNL     1     -40.271  53.894 -47.601  1.00  0.00     0.034 C 
ENDBRANCH  15  16
ENDBRANCH  11  15
BRANCH  13  18
HETATM   18  O   UNL     1     -40.247  51.871 -54.469  1.00  0.00    -0.351 OA
BRANCH  18  19
HETATM   19  C   UNL     1     -40.510  50.472 -54.358  1.00  0.00     0.171 C 
HETATM   20  C   UNL     1     -39.176  49.745 -54.357  1.00  0.00     0.034 C 
ENDBRANCH  18  19
ENDBRANCH  13  18
ENDBRANCH   6   9
ENDBRANCH   3   5
ENDBRANCH   1   3
BRANCH   1  21
HETATM   21  C   UNL     1     -43.418  59.651 -54.120  1.00  0.00     0.035 A 
HETATM   22  C   UNL     1     -43.771  58.742 -55.130  1.00  0.00     0.046 A 
HETATM   23  C   UNL     1     -44.191  59.178 -56.402  1.00  0.00     0.036 A 
HETATM   24  C   UNL     1     -44.296  60.567 -56.618  1.00  0.00     0.084 A 
HETATM   25  C   UNL     1     -43.971  61.491 -55.618  1.00  0.00    -0.026 A 
HETATM   26  C   UNL     1     -44.091  62.968 -55.863  1.00  0.00     0.051 C 
HETATM   27  C   UNL     1     -43.530  61.017 -54.376  1.00  0.00     0.039 A 
BRANCH  23  28
HETATM   28  C   UNL     1     -44.526  58.237 -57.493  1.00  0.00     0.112 A 
HETATM   29  S   UNL     1     -43.424  57.044 -58.057  1.00  0.00    -0.067 SA
HETATM   30  C   UNL     1     -44.548  56.553 -59.263  1.00  0.00     0.035 A 
HETATM   31  C   UNL     1     -45.698  57.334 -59.153  1.00  0.00     0.075 A 
HETATM   32  C   UNL     1     -44.424  55.552 -60.241  1.00  0.00     0.021 A 
HETATM   33  N   UNL     1     -45.667  58.295 -58.157  1.00  0.00    -0.239 NA
HETATM   34  C   UNL     1     -46.767  57.100 -60.041  1.00  0.00     0.033 A 
HETATM   35  C   UNL     1     -46.657  56.103 -61.015  1.00  0.00     0.002 A 
HETATM   36  C   UNL     1     -45.496  55.342 -61.113  1.00  0.00     0.002 A 
ENDBRANCH  23  28
BRANCH  24  37
HETATM   37  O   UNL     1     -44.732  61.086 -57.815  1.00  0.00    -0.359 OA
HETATM   38  H   UNL     1     -44.045  61.705 -58.144  1.00  0.00     0.218 HD
ENDBRANCH  24  37
ENDBRANCH   1  21
TORSDOF 10
ENDMDL
MODEL 10
REMARK VINA RESULT:      -7.5      2.755      7.885
REMARK  10 active torsions:
REMARK  status: ('A' for Active; 'I' for Inactive)
REMARK    1  A    between atoms: C_2  and  O_3 
REMARK    2  A    between atoms: O_3  and  C_4 
REMARK    3  A    between atoms: C_6  and  O_7 
REMARK    4  A    between atoms: O_7  and  C_8 
REMARK    5  A    between atoms: C_11  and  C_12 
REMARK       I    between atoms: C_12  and  N_13 
REMARK    6  A    between atoms: N_13  and  C_14 
REMARK    7  A    between atoms: C_14  and  N_15 
REMARK    8  A    between atoms: N_15  and  C_16 
REMARK    9  A    between atoms: C_18  and  C_19 
REMARK   10  A    between atoms: C_28  and  O_29 
ROOT
HETATM    1  N   UNL     1     -43.154  59.162 -50.949  1.00  0.00    -0.333 N 
HETATM    2  H   UNL     1     -43.600  59.187 -50.029  1.00  0.00     0.168 HD
ENDROOT
BRANCH   1   3
HETATM    3  C   UNL     1     -41.882  58.644 -50.920  1.00  0.00     0.179 C 
HETATM    4  S   UNL     1     -40.465  59.341 -50.368  1.00  0.00    -0.040 SA
BRANCH   3   5
HETATM    5  N   UNL     1     -41.755  57.365 -51.434  1.00  0.00    -0.299 N 
HETATM    6  C   UNL     1     -41.452  56.180 -50.773  1.00  0.00     0.258 C 
HETATM    7  O   UNL     1     -41.461  56.076 -49.548  1.00  0.00    -0.267 OA
HETATM    8  H   UNL     1     -41.781  57.370 -52.443  1.00  0.00     0.171 HD
BRANCH   6   9
HETATM    9  C   UNL     1     -41.101  55.003 -51.624  1.00  0.00     0.037 A 
HETATM   10  C   UNL     1     -41.551  54.999 -52.953  1.00  0.00     0.054 A 
HETATM   11  C   UNL     1     -41.295  53.904 -53.779  1.00  0.00     0.072 A 
HETATM   12  C   UNL     1     -40.604  52.799 -53.271  1.00  0.00     0.073 A 
HETATM   13  C   UNL     1     -40.140  52.797 -51.958  1.00  0.00     0.072 A 
HETATM   14  C   UNL     1     -40.372  53.908 -51.144  1.00  0.00     0.054 A 
BRANCH  11  15
HETATM   15  O   UNL     1     -41.681  53.778 -55.086  1.00  0.00    -0.351 OA
BRANCH  15  16
HETATM   16  C   UNL     1     -42.963  54.297 -55.440  1.00  0.00     0.171 C 
HETATM   17  C   UNL     1     -42.759  55.331 -56.531  1.00  0.00     0.034 C 
ENDBRANCH  15  16
ENDBRANCH  11  15
BRANCH  13  18
HETATM   18  O   UNL     1     -39.446  51.786 -51.351  1.00  0.00    -0.351 OA
BRANCH  18  19
HETATM   19  C   UNL     1     -39.481  50.507 -51.984  1.00  0.00     0.171 C 
HETATM   20  C   UNL     1     -39.824  49.472 -50.927  1.00  0.00     0.034 C 
ENDBRANCH  18  19
ENDBRANCH  13  18
ENDBRANCH   6   9
ENDBRANCH   3   5
ENDBRANCH   1   3
BRANCH   1  21
HETATM   21  C   UNL     1     -43.948  59.636 -52.018  1.00  0.00     0.035 A 
HETATM   22  C   UNL     1     -43.580  59.240 -53.314  1.00  0.00     0.046 A 
HETATM   23  C   UNL     1     -44.325  59.631 -54.445  1.00  0.00     0.036 A 
HETATM   24  C   UNL     1     -45.490  60.394 -54.231  1.00  0.00     0.084 A 
HETATM   25  C   UNL     1     -45.887  60.781 -52.946  1.00  0.00    -0.026 A 
HETATM   26  C   UNL     1     -47.133  61.593 -52.735  1.00  0.00     0.051 C 
HETATM   27  C   UNL     1     -45.104  60.397 -51.850  1.00  0.00     0.039 A 
BRANCH  23  28
HETATM   28  C   UNL     1     -43.930  59.260 -55.821  1.00  0.00     0.112 A 
HETATM   29  S   UNL     1     -42.406  59.687 -56.494  1.00  0.00    -0.067 SA
HETATM   30  C   UNL     1     -42.855  58.982 -57.997  1.00  0.00     0.035 A 
HETATM   31  C   UNL     1     -44.143  58.461 -57.885  1.00  0.00     0.075 A 
HETATM   32  C   UNL     1     -42.122  58.896 -59.193  1.00  0.00     0.021 A 
HETATM   33  N   UNL     1     -44.748  58.639 -56.653  1.00  0.00    -0.239 NA
HETATM   34  C   UNL     1     -44.718  57.822 -59.002  1.00  0.00     0.033 A 
HETATM   35  C   UNL     1     -43.997  57.726 -60.196  1.00  0.00     0.002 A 
HETATM   36  C   UNL     1     -42.716  58.261 -60.289  1.00  0.00     0.002 A 
ENDBRANCH  23  28
BRANCH  24  37
HETATM   37  O   UNL     1     -46.300  60.791 -55.270  1.00  0.00    -0.359 OA
HETATM   38  H   UNL     1     -47.059  61.284 -54.890  1.00  0.00     0.218 HD
ENDBRANCH  24  37
ENDBRANCH   1  21
TORSDOF 10
ENDMDL
