MODEL 1
REMARK VINA RESULT:      -8.7      0.000      0.000
REMARK  7 active torsions:
REMARK  status: ('A' for Active; 'I' for Inactive)
REMARK    1  A    between atoms: S_2  and  C_3 
REMARK    2  A    between atoms: C_3  and  C_4 
REMARK    3  A    between atoms: C_4  and  C_5 
REMARK    4  A    between atoms: C_5  and  N_6 
REMARK    5  A    between atoms: C_5  and  C_26 
REMARK       I    between atoms: N_6  and  C_7 
REMARK    6  A    between atoms: C_7  and  C_8 
REMARK    7  A    between atoms: C_8  and  N_9 
ROOT
HETATM    1  N   UNL     1     -43.682  59.664 -50.821  1.00  0.00    -0.348 N 
HETATM    2  C   UNL     1     -42.482  59.283 -51.394  1.00  0.00     0.236 C 
HETATM    3  O   UNL     1     -41.828  60.017 -52.128  1.00  0.00    -0.272 OA
HETATM    4  H   UNL     1     -43.822  59.247 -49.901  1.00  0.00     0.163 HD
ENDROOT
BRANCH   2   5
HETATM    5  C   UNL     1     -41.909  57.952 -50.903  1.00  0.00     0.239 C 
BRANCH   5   6
HETATM    6  N   UNL     1     -42.320  56.789 -51.663  1.00  0.00    -0.259 N 
HETATM    7  C   UNL     1     -43.438  56.062 -51.417  1.00  0.00     0.326 A 
HETATM    8  O   UNL     1     -44.344  56.375 -50.662  1.00  0.00    -0.247 OA
HETATM    9  N   UNL     1     -43.425  54.937 -52.195  1.00  0.00    -0.320 N 
HETATM   10  C   UNL     1     -42.226  54.832 -53.007  1.00  0.00     0.144 A 
HETATM   11  H   UNL     1     -44.118  54.207 -52.092  1.00  0.00     0.165 HD
HETATM   12  C   UNL     1     -41.349  53.661 -52.584  1.00  0.00    -0.014 A 
HETATM   13  C   UNL     1     -42.624  54.812 -54.489  1.00  0.00     0.047 C 
HETATM   14  C   UNL     1     -41.562  56.185 -52.630  1.00  0.00     0.261 A 
HETATM   15  C   UNL     1     -40.690  52.869 -53.547  1.00  0.00    -0.049 A 
HETATM   16  C   UNL     1     -41.120  53.387 -51.219  1.00  0.00     0.011 A 
HETATM   17  C   UNL     1     -39.841  51.829 -53.131  1.00  0.00     0.007 A 
HETATM   18  C   UNL     1     -40.906  53.064 -55.027  1.00  0.00     0.039 C 
HETATM   19  C   UNL     1     -39.626  51.580 -51.777  1.00  0.00     0.001 A 
HETATM   20  C   UNL     1     -40.267  52.357 -50.822  1.00  0.00     0.001 A 
HETATM   21  C   UNL     1     -41.447  54.443 -55.386  1.00  0.00     0.008 C 
HETATM   22  O   UNL     1     -40.519  56.629 -53.091  1.00  0.00    -0.270 OA
ENDBRANCH   5   6
ENDBRANCH   2   5
BRANCH   1  23
HETATM   23  C   UNL     1     -44.180  61.039 -50.921  1.00  0.00     0.155 C 
BRANCH  23  24
HETATM   24  C   UNL     1     -45.380  61.288 -51.857  1.00  0.00     0.043 C 
BRANCH  24  25
HETATM   25  C   UNL     1     -45.929  60.040 -52.544  1.00  0.00     0.076 C 
BRANCH  25  26
HETATM   26  S   UNL     1     -45.148  59.868 -54.187  1.00  0.00    -0.173 SA
HETATM   27  C   UNL     1     -44.782  58.100 -54.148  1.00  0.00     0.089 C 
ENDBRANCH  25  26
ENDBRANCH  24  25
ENDBRANCH  23  24
BRANCH  23  28
HETATM   28  C   UNL     1     -44.461  61.560 -49.535  1.00  0.00     0.128 A 
HETATM   29  N   UNL     1     -44.620  62.826 -49.199  1.00  0.00    -0.231 NA
HETATM   30  C   UNL     1     -44.809  62.835 -47.839  1.00  0.00     0.085 A 
HETATM   31  C   UNL     1     -44.770  61.544 -47.326  1.00  0.00     0.062 A 
HETATM   32  C   UNL     1     -45.010  63.915 -46.969  1.00  0.00     0.034 A 
HETATM   33  N   UNL     1     -44.577  60.752 -48.426  1.00  0.00    -0.341 N 
HETATM   34  C   UNL     1     -44.906  61.256 -45.966  1.00  0.00     0.032 A 
HETATM   35  H   UNL     1     -44.485  59.747 -48.426  1.00  0.00     0.167 HD
HETATM   36  C   UNL     1     -45.095  62.348 -45.110  1.00  0.00     0.002 A 
HETATM   37  C   UNL     1     -45.150  63.656 -45.600  1.00  0.00     0.002 A 
ENDBRANCH  23  28
ENDBRANCH   1  23
TORSDOF 7
ENDMDL
MODEL 2
REMARK VINA RESULT:      -8.7      5.118      8.051
REMARK  7 active torsions:
REMARK  status: ('A' for Active; 'I' for Inactive)
REMARK    1  A    between atoms: S_2  and  C_3 
REMARK    2  A    between atoms: C_3  and  C_4 
REMARK    3  A    between atoms: C_4  and  C_5 
REMARK    4  A    between atoms: C_5  and  N_6 
REMARK    5  A    between atoms: C_5  and  C_26 
REMARK       I    between atoms: N_6  and  C_7 
REMARK    6  A    between atoms: C_7  and  C_8 
REMARK    7  A    between atoms: C_8  and  N_9 
ROOT
HETATM    1  N   UNL     1     -43.826  59.024 -57.228  1.00  0.00    -0.348 N 
HETATM    2  C   UNL     1     -43.624  58.082 -56.235  1.00  0.00     0.236 C 
HETATM    3  O   UNL     1     -43.271  56.930 -56.468  1.00  0.00    -0.272 OA
HETATM    4  H   UNL     1     -43.588  59.967 -56.921  1.00  0.00     0.163 HD
ENDROOT
BRANCH   2   5
HETATM    5  C   UNL     1     -43.677  58.611 -54.801  1.00  0.00     0.239 C 
BRANCH   5   6
HETATM    6  N   UNL     1     -42.695  58.042 -53.900  1.00  0.00    -0.259 N 
HETATM    7  C   UNL     1     -41.430  58.502 -53.747  1.00  0.00     0.326 A 
HETATM    8  O   UNL     1     -40.991  59.552 -54.189  1.00  0.00    -0.247 OA
HETATM    9  N   UNL     1     -40.723  57.630 -52.964  1.00  0.00    -0.320 N 
HETATM   10  C   UNL     1     -41.506  56.473 -52.570  1.00  0.00     0.144 A 
HETATM   11  H   UNL     1     -39.729  57.734 -52.811  1.00  0.00     0.165 HD
HETATM   12  C   UNL     1     -40.983  55.187 -53.197  1.00  0.00    -0.014 A 
HETATM   13  C   UNL     1     -41.600  56.429 -51.039  1.00  0.00     0.047 C 
HETATM   14  C   UNL     1     -42.868  56.880 -53.197  1.00  0.00     0.261 A 
HETATM   15  C   UNL     1     -40.950  53.987 -52.458  1.00  0.00    -0.049 A 
HETATM   16  C   UNL     1     -40.587  55.154 -54.550  1.00  0.00     0.011 A 
HETATM   17  C   UNL     1     -40.515  52.801 -53.075  1.00  0.00     0.007 A 
HETATM   18  C   UNL     1     -41.316  53.936 -50.995  1.00  0.00     0.039 C 
HETATM   19  C   UNL     1     -40.135  52.790 -54.415  1.00  0.00     0.001 A 
HETATM   20  C   UNL     1     -40.168  53.967 -55.152  1.00  0.00     0.001 A 
HETATM   21  C   UNL     1     -42.180  55.108 -50.545  1.00  0.00     0.008 C 
HETATM   22  O   UNL     1     -43.917  56.255 -53.109  1.00  0.00    -0.270 OA
ENDBRANCH   5   6
ENDBRANCH   2   5
BRANCH   1  23
HETATM   23  C   UNL     1     -43.474  58.758 -58.625  1.00  0.00     0.155 C 
BRANCH  23  24
HETATM   24  C   UNL     1     -44.633  58.481 -59.604  1.00  0.00     0.043 C 
BRANCH  24  25
HETATM   25  C   UNL     1     -45.192  57.062 -59.554  1.00  0.00     0.076 C 
BRANCH  25  26
HETATM   26  S   UNL     1     -43.850  55.876 -59.915  1.00  0.00    -0.173 SA
HETATM   27  C   UNL     1     -44.800  54.341 -59.861  1.00  0.00     0.089 C 
ENDBRANCH  25  26
ENDBRANCH  24  25
ENDBRANCH  23  24
BRANCH  23  28
HETATM   28  C   UNL     1     -42.597  59.875 -59.131  1.00  0.00     0.128 A 
HETATM   29  N   UNL     1     -42.502  60.282 -60.382  1.00  0.00    -0.231 NA
HETATM   30  C   UNL     1     -41.560  61.280 -60.384  1.00  0.00     0.085 A 
HETATM   31  C   UNL     1     -41.067  61.498 -59.103  1.00  0.00     0.062 A 
HETATM   32  C   UNL     1     -41.065  62.044 -61.450  1.00  0.00     0.034 A 
HETATM   33  N   UNL     1     -41.761  60.612 -58.323  1.00  0.00    -0.341 N 
HETATM   34  C   UNL     1     -40.076  62.438 -58.813  1.00  0.00     0.032 A 
HETATM   35  H   UNL     1     -41.650  60.483 -57.328  1.00  0.00     0.167 HD
HETATM   36  C   UNL     1     -39.585  63.184 -59.892  1.00  0.00     0.002 A 
HETATM   37  C   UNL     1     -40.072  62.996 -61.188  1.00  0.00     0.002 A 
ENDBRANCH  23  28
ENDBRANCH   1  23
TORSDOF 7
ENDMDL
MODEL 3
REMARK VINA RESULT:      -8.6      4.522      7.590
REMARK  7 active torsions:
REMARK  status: ('A' for Active; 'I' for Inactive)
REMARK    1  A    between atoms: S_2  and  C_3 
REMARK    2  A    between atoms: C_3  and  C_4 
REMARK    3  A    between atoms: C_4  and  C_5 
REMARK    4  A    between atoms: C_5  and  N_6 
REMARK    5  A    between atoms: C_5  and  C_26 
REMARK       I    between atoms: N_6  and  C_7 
REMARK    6  A    between atoms: C_7  and  C_8 
REMARK    7  A    between atoms: C_8  and  N_9 
ROOT
HETATM    1  N   UNL     1     -42.211  58.868 -55.740  1.00  0.00    -0.348 N 
HETATM    2  C   UNL     1     -42.296  59.615 -54.579  1.00  0.00     0.236 C 
HETATM    3  O   UNL     1     -42.530  60.819 -54.574  1.00  0.00    -0.272 OA
HETATM    4  H   UNL     1     -42.541  57.912 -55.611  1.00  0.00     0.163 HD
ENDROOT
BRANCH   2   5
HETATM    5  C   UNL     1     -42.274  58.815 -53.275  1.00  0.00     0.239 C 
BRANCH   5   6
HETATM    6  N   UNL     1     -42.526  57.395 -53.422  1.00  0.00    -0.259 N 
HETATM    7  C   UNL     1     -43.722  56.798 -53.203  1.00  0.00     0.326 A 
HETATM    8  O   UNL     1     -44.789  57.368 -53.039  1.00  0.00    -0.247 OA
HETATM    9  N   UNL     1     -43.564  55.439 -53.251  1.00  0.00    -0.320 N 
HETATM   10  C   UNL     1     -42.185  55.045 -53.476  1.00  0.00     0.144 A 
HETATM   11  H   UNL     1     -44.315  54.804 -53.013  1.00  0.00     0.165 HD
HETATM   12  C   UNL     1     -41.588  54.335 -52.268  1.00  0.00    -0.014 A 
HETATM   13  C   UNL     1     -42.100  54.239 -54.780  1.00  0.00     0.047 C 
HETATM   14  C   UNL     1     -41.558  56.455 -53.655  1.00  0.00     0.261 A 
HETATM   15  C   UNL     1     -40.732  53.226 -52.433  1.00  0.00    -0.049 A 
HETATM   16  C   UNL     1     -41.822  54.814 -50.962  1.00  0.00     0.011 A 
HETATM   17  C   UNL     1     -40.149  52.623 -51.306  1.00  0.00     0.007 A 
HETATM   18  C   UNL     1     -40.457  52.622 -53.788  1.00  0.00     0.039 C 
HETATM   19  C   UNL     1     -40.389  53.116 -50.026  1.00  0.00     0.001 A 
HETATM   20  C   UNL     1     -41.228  54.210 -49.854  1.00  0.00     0.001 A 
HETATM   21  C   UNL     1     -40.739  53.572 -54.945  1.00  0.00     0.008 C 
HETATM   22  O   UNL     1     -40.389  56.694 -53.926  1.00  0.00    -0.270 OA
ENDBRANCH   5   6
ENDBRANCH   2   5
BRANCH   1  23
HETATM   23  C   UNL     1     -42.558  59.435 -57.046  1.00  0.00     0.155 C 
BRANCH  23  24
HETATM   24  C   UNL     1     -41.423  60.104 -57.848  1.00  0.00     0.043 C 
BRANCH  24  25
HETATM   25  C   UNL     1     -41.540  61.620 -57.986  1.00  0.00     0.076 C 
BRANCH  25  26
HETATM   26  S   UNL     1     -41.168  62.094 -59.711  1.00  0.00    -0.173 SA
HETATM   27  C   UNL     1     -41.856  60.656 -60.560  1.00  0.00     0.089 C 
ENDBRANCH  25  26
ENDBRANCH  24  25
ENDBRANCH  23  24
BRANCH  23  28
HETATM   28  C   UNL     1     -43.249  58.378 -57.871  1.00  0.00     0.128 A 
HETATM   29  N   UNL     1     -44.480  58.442 -58.339  1.00  0.00    -0.231 NA
HETATM   30  C   UNL     1     -44.701  57.251 -58.986  1.00  0.00     0.085 A 
HETATM   31  C   UNL     1     -43.576  56.437 -58.918  1.00  0.00     0.062 A 
HETATM   32  C   UNL     1     -45.845  56.788 -59.648  1.00  0.00     0.034 A 
HETATM   33  N   UNL     1     -42.660  57.187 -58.230  1.00  0.00    -0.341 N 
HETATM   34  C   UNL     1     -43.526  55.154 -59.467  1.00  0.00     0.032 A 
HETATM   35  H   UNL     1     -41.724  56.902 -57.982  1.00  0.00     0.167 HD
HETATM   36  C   UNL     1     -44.683  54.703 -60.116  1.00  0.00     0.002 A 
HETATM   37  C   UNL     1     -45.823  55.506 -60.209  1.00  0.00     0.002 A 
ENDBRANCH  23  28
ENDBRANCH   1  23
TORSDOF 7
ENDMDL
MODEL 4
REMARK VINA RESULT:      -8.3      4.154      7.997
REMARK  7 active torsions:
REMARK  status: ('A' for Active; 'I' for Inactive)
REMARK    1  A    between atoms: S_2  and  C_3 
REMARK    2  A    between atoms: C_3  and  C_4 
REMARK    3  A    between atoms: C_4  and  C_5 
REMARK    4  A    between atoms: C_5  and  N_6 
REMARK    5  A    between atoms: C_5  and  C_26 
REMARK       I    between atoms: N_6  and  C_7 
REMARK    6  A    between atoms: C_7  and  C_8 
REMARK    7  A    between atoms: C_8  and  N_9 
ROOT
HETATM    1  N   UNL     1     -43.157  58.807 -55.621  1.00  0.00    -0.348 N 
HETATM    2  C   UNL     1     -43.363  59.705 -54.589  1.00  0.00     0.236 C 
HETATM    3  O   UNL     1     -43.363  60.922 -54.751  1.00  0.00    -0.272 OA
HETATM    4  H   UNL     1     -43.681  57.942 -55.491  1.00  0.00     0.163 HD
ENDROOT
BRANCH   2   5
HETATM    5  C   UNL     1     -43.788  59.092 -53.254  1.00  0.00     0.239 C 
BRANCH   5   6
HETATM    6  N   UNL     1     -42.775  58.291 -52.596  1.00  0.00    -0.259 N 
HETATM    7  C   UNL     1     -41.499  58.690 -52.375  1.00  0.00     0.326 A 
HETATM    8  O   UNL     1     -41.067  59.823 -52.520  1.00  0.00    -0.247 OA
HETATM    9  N   UNL     1     -40.769  57.632 -51.905  1.00  0.00    -0.320 N 
HETATM   10  C   UNL     1     -41.548  56.410 -51.821  1.00  0.00     0.144 A 
HETATM   11  H   UNL     1     -39.768  57.689 -51.773  1.00  0.00     0.165 HD
HETATM   12  C   UNL     1     -41.067  55.356 -52.811  1.00  0.00    -0.014 A 
HETATM   13  C   UNL     1     -41.577  55.932 -50.363  1.00  0.00     0.047 C 
HETATM   14  C   UNL     1     -42.931  56.977 -52.246  1.00  0.00     0.261 A 
HETATM   15  C   UNL     1     -41.017  53.995 -52.446  1.00  0.00    -0.049 A 
HETATM   16  C   UNL     1     -40.731  55.710 -54.134  1.00  0.00     0.011 A 
HETATM   17  C   UNL     1     -40.623  53.034 -53.393  1.00  0.00     0.007 A 
HETATM   18  C   UNL     1     -41.321  53.530 -51.043  1.00  0.00     0.039 C 
HETATM   19  C   UNL     1     -40.300  53.405 -54.696  1.00  0.00     0.001 A 
HETATM   20  C   UNL     1     -40.352  54.743 -55.066  1.00  0.00     0.001 A 
HETATM   21  C   UNL     1     -42.150  54.525 -50.240  1.00  0.00     0.008 C 
HETATM   22  O   UNL     1     -43.982  56.352 -52.292  1.00  0.00    -0.270 OA
ENDBRANCH   5   6
ENDBRANCH   2   5
BRANCH   1  23
HETATM   23  C   UNL     1     -43.085  59.243 -57.018  1.00  0.00     0.155 C 
BRANCH  23  24
HETATM   24  C   UNL     1     -41.703  59.669 -57.553  1.00  0.00     0.043 C 
BRANCH  24  25
HETATM   25  C   UNL     1     -41.616  61.118 -58.026  1.00  0.00     0.076 C 
BRANCH  25  26
HETATM   26  S   UNL     1     -41.721  61.160 -59.850  1.00  0.00    -0.173 SA
HETATM   27  C   UNL     1     -43.494  61.453 -60.029  1.00  0.00     0.089 C 
ENDBRANCH  25  26
ENDBRANCH  24  25
ENDBRANCH  23  24
BRANCH  23  28
HETATM   28  C   UNL     1     -43.698  58.181 -57.895  1.00  0.00     0.128 A 
HETATM   29  N   UNL     1     -43.146  57.027 -58.217  1.00  0.00    -0.231 NA
HETATM   30  C   UNL     1     -44.033  56.406 -59.061  1.00  0.00     0.085 A 
HETATM   31  C   UNL     1     -45.160  57.194 -59.260  1.00  0.00     0.062 A 
HETATM   32  C   UNL     1     -43.939  55.167 -59.708  1.00  0.00     0.034 A 
HETATM   33  N   UNL     1     -44.935  58.302 -58.487  1.00  0.00    -0.341 N 
HETATM   34  C   UNL     1     -46.216  56.824 -60.096  1.00  0.00     0.032 A 
HETATM   35  H   UNL     1     -45.547  59.099 -58.398  1.00  0.00     0.167 HD
HETATM   36  C   UNL     1     -46.100  55.587 -60.743  1.00  0.00     0.002 A 
HETATM   37  C   UNL     1     -44.983  54.769 -60.552  1.00  0.00     0.002 A 
ENDBRANCH  23  28
ENDBRANCH   1  23
TORSDOF 7
ENDMDL
MODEL 5
REMARK VINA RESULT:      -8.3      5.343      7.901
REMARK  7 active torsions:
REMARK  status: ('A' for Active; 'I' for Inactive)
REMARK    1  A    between atoms: S_2  and  C_3 
REMARK    2  A    between atoms: C_3  and  C_4 
REMARK    3  A    between atoms: C_4  and  C_5 
REMARK    4  A    between atoms: C_5  and  N_6 
REMARK    5  A    between atoms: C_5  and  C_26 
REMARK       I    between atoms: N_6  and  C_7 
REMARK    6  A    between atoms: C_7  and  C_8 
REMARK    7  A    between atoms: C_8  and  N_9 
ROOT
HETATM    1  N   UNL     1     -42.792  58.850 -57.296  1.00  0.00    -0.348 N 
HETATM    2  C   UNL     1     -42.737  57.571 -56.772  1.00  0.00     0.236 C 
HETATM    3  O   UNL     1     -43.011  56.568 -57.424  1.00  0.00    -0.272 OA
HETATM    4  H   UNL     1     -42.086  59.465 -56.892  1.00  0.00     0.163 HD
ENDROOT
BRANCH   2   5
HETATM    5  C   UNL     1     -42.124  57.455 -55.376  1.00  0.00     0.239 C 
BRANCH   5   6
HETATM    6  N   UNL     1     -42.278  56.161 -54.742  1.00  0.00    -0.259 N 
HETATM    7  C   UNL     1     -43.434  55.696 -54.210  1.00  0.00     0.326 A 
HETATM    8  O   UNL     1     -44.539  56.198 -54.345  1.00  0.00    -0.247 OA
HETATM    9  N   UNL     1     -43.185  54.531 -53.535  1.00  0.00    -0.320 N 
HETATM   10  C   UNL     1     -41.780  54.166 -53.553  1.00  0.00     0.144 A 
HETATM   11  H   UNL     1     -43.894  54.073 -52.978  1.00  0.00     0.165 HD
HETATM   12  C   UNL     1     -41.151  54.243 -52.168  1.00  0.00    -0.014 A 
HETATM   13  C   UNL     1     -41.626  52.799 -54.234  1.00  0.00     0.047 C 
HETATM   14  C   UNL     1     -41.247  55.303 -54.467  1.00  0.00     0.261 A 
HETATM   15  C   UNL     1     -40.221  53.272 -51.743  1.00  0.00    -0.049 A 
HETATM   16  C   UNL     1     -41.432  55.325 -51.308  1.00  0.00     0.011 A 
HETATM   17  C   UNL     1     -39.612  53.395 -50.483  1.00  0.00     0.007 A 
HETATM   18  C   UNL     1     -39.890  52.060 -52.580  1.00  0.00     0.039 C 
HETATM   19  C   UNL     1     -39.900  54.476 -49.652  1.00  0.00     0.001 A 
HETATM   20  C   UNL     1     -40.811  55.439 -50.064  1.00  0.00     0.001 A 
HETATM   21  C   UNL     1     -40.222  52.233 -54.057  1.00  0.00     0.008 C 
HETATM   22  O   UNL     1     -40.094  55.435 -54.854  1.00  0.00    -0.270 OA
ENDBRANCH   5   6
ENDBRANCH   2   5
BRANCH   1  23
HETATM   23  C   UNL     1     -43.026  59.087 -58.724  1.00  0.00     0.155 C 
BRANCH  23  24
HETATM   24  C   UNL     1     -44.488  59.277 -59.177  1.00  0.00     0.043 C 
BRANCH  24  25
HETATM   25  C   UNL     1     -45.030  58.170 -60.077  1.00  0.00     0.076 C 
BRANCH  25  26
HETATM   26  S   UNL     1     -46.680  57.664 -59.476  1.00  0.00    -0.173 SA
HETATM   27  C   UNL     1     -46.853  56.112 -60.384  1.00  0.00     0.089 C 
ENDBRANCH  25  26
ENDBRANCH  24  25
ENDBRANCH  23  24
BRANCH  23  28
HETATM   28  C   UNL     1     -42.168  60.242 -59.175  1.00  0.00     0.128 A 
HETATM   29  N   UNL     1     -42.029  60.667 -60.416  1.00  0.00    -0.231 NA
HETATM   30  C   UNL     1     -41.127  61.700 -60.363  1.00  0.00     0.085 A 
HETATM   31  C   UNL     1     -40.703  61.920 -59.058  1.00  0.00     0.062 A 
HETATM   32  C   UNL     1     -40.610  62.494 -61.396  1.00  0.00     0.034 A 
HETATM   33  N   UNL     1     -41.400  61.000 -58.320  1.00  0.00    -0.341 N 
HETATM   34  C   UNL     1     -39.763  62.893 -58.711  1.00  0.00     0.032 A 
HETATM   35  H   UNL     1     -41.332  60.863 -57.323  1.00  0.00     0.167 HD
HETATM   36  C   UNL     1     -39.250  63.670 -59.757  1.00  0.00     0.002 A 
HETATM   37  C   UNL     1     -39.667  63.479 -61.077  1.00  0.00     0.002 A 
ENDBRANCH  23  28
ENDBRANCH   1  23
TORSDOF 7
ENDMDL
MODEL 6
REMARK VINA RESULT:      -8.1      3.998      9.124
REMARK  7 active torsions:
REMARK  status: ('A' for Active; 'I' for Inactive)
REMARK    1  A    between atoms: S_2  and  C_3 
REMARK    2  A    between atoms: C_3  and  C_4 
REMARK    3  A    between atoms: C_4  and  C_5 
REMARK    4  A    between atoms: C_5  and  N_6 
REMARK    5  A    between atoms: C_5  and  C_26 
REMARK       I    between atoms: N_6  and  C_7 
REMARK    6  A    between atoms: C_7  and  C_8 
REMARK    7  A    between atoms: C_8  and  N_9 
ROOT
HETATM    1  N   UNL     1     -42.460  55.694 -52.987  1.00  0.00    -0.348 N 
HETATM    2  C   UNL     1     -42.711  56.794 -53.788  1.00  0.00     0.236 C 
HETATM    3  O   UNL     1     -41.917  57.720 -53.920  1.00  0.00    -0.272 OA
HETATM    4  H   UNL     1     -42.878  54.841 -53.358  1.00  0.00     0.163 HD
ENDROOT
BRANCH   2   5
HETATM    5  C   UNL     1     -43.962  56.702 -54.663  1.00  0.00     0.239 C 
BRANCH   5   6
HETATM    6  N   UNL     1     -43.718  56.746 -56.091  1.00  0.00    -0.259 N 
HETATM    7  C   UNL     1     -42.730  56.070 -56.726  1.00  0.00     0.326 A 
HETATM    8  O   UNL     1     -42.032  55.196 -56.238  1.00  0.00    -0.247 OA
HETATM    9  N   UNL     1     -42.669  56.479 -58.030  1.00  0.00    -0.320 N 
HETATM   10  C   UNL     1     -43.630  57.524 -58.334  1.00  0.00     0.144 A 
HETATM   11  H   UNL     1     -41.933  56.173 -58.653  1.00  0.00     0.165 HD
HETATM   12  C   UNL     1     -42.953  58.850 -58.653  1.00  0.00    -0.014 A 
HETATM   13  C   UNL     1     -44.581  57.027 -59.432  1.00  0.00     0.047 C 
HETATM   14  C   UNL     1     -44.355  57.589 -56.962  1.00  0.00     0.261 A 
HETATM   15  C   UNL     1     -43.446  59.683 -59.679  1.00  0.00    -0.049 A 
HETATM   16  C   UNL     1     -41.863  59.306 -57.883  1.00  0.00     0.011 A 
HETATM   17  C   UNL     1     -42.838  60.927 -59.918  1.00  0.00     0.007 A 
HETATM   18  C   UNL     1     -44.581  59.259 -60.578  1.00  0.00     0.039 C 
HETATM   19  C   UNL     1     -41.766  61.361 -59.141  1.00  0.00     0.001 A 
HETATM   20  C   UNL     1     -41.277  60.549 -58.126  1.00  0.00     0.001 A 
HETATM   21  C   UNL     1     -45.446  58.154 -59.984  1.00  0.00     0.008 C 
HETATM   22  O   UNL     1     -45.316  58.296 -56.688  1.00  0.00    -0.270 OA
ENDBRANCH   5   6
ENDBRANCH   2   5
BRANCH   1  23
HETATM   23  C   UNL     1     -41.151  55.479 -52.363  1.00  0.00     0.155 C 
BRANCH  23  24
HETATM   24  C   UNL     1     -41.010  55.857 -50.875  1.00  0.00     0.043 C 
BRANCH  24  25
HETATM   25  C   UNL     1     -41.711  57.151 -50.470  1.00  0.00     0.076 C 
BRANCH  25  26
HETATM   26  S   UNL     1     -40.572  58.556 -50.729  1.00  0.00    -0.173 SA
HETATM   27  C   UNL     1     -41.787  59.869 -50.975  1.00  0.00     0.089 C 
ENDBRANCH  25  26
ENDBRANCH  24  25
ENDBRANCH  23  24
BRANCH  23  28
HETATM   28  C   UNL     1     -40.723  54.053 -52.600  1.00  0.00     0.128 A 
HETATM   29  N   UNL     1     -40.765  53.411 -53.751  1.00  0.00    -0.231 NA
HETATM   30  C   UNL     1     -40.327  52.137 -53.490  1.00  0.00     0.085 A 
HETATM   31  C   UNL     1     -40.002  51.992 -52.146  1.00  0.00     0.062 A 
HETATM   32  C   UNL     1     -40.189  51.041 -54.352  1.00  0.00     0.034 A 
HETATM   33  N   UNL     1     -40.236  53.230 -51.610  1.00  0.00    -0.341 N 
HETATM   34  C   UNL     1     -39.555  50.791 -51.591  1.00  0.00     0.032 A 
HETATM   35  H   UNL     1     -40.119  53.490 -50.642  1.00  0.00     0.167 HD
HETATM   36  C   UNL     1     -39.433  49.703 -52.466  1.00  0.00     0.002 A 
HETATM   37  C   UNL     1     -39.740  49.824 -53.823  1.00  0.00     0.002 A 
ENDBRANCH  23  28
ENDBRANCH   1  23
TORSDOF 7
ENDMDL
MODEL 7
REMARK VINA RESULT:      -7.9      3.609      8.343
REMARK  7 active torsions:
REMARK  status: ('A' for Active; 'I' for Inactive)
REMARK    1  A    between atoms: S_2  and  C_3 
REMARK    2  A    between atoms: C_3  and  C_4 
REMARK    3  A    between atoms: C_4  and  C_5 
REMARK    4  A    between atoms: C_5  and  N_6 
REMARK    5  A    between atoms: C_5  and  C_26 
REMARK       I    between atoms: N_6  and  C_7 
REMARK    6  A    between atoms: C_7  and  C_8 
REMARK    7  A    between atoms: C_8  and  N_9 
ROOT
HETATM    1  N   UNL     1     -43.940  58.394 -56.642  1.00  0.00    -0.348 N 
HETATM    2  C   UNL     1     -44.956  59.179 -57.158  1.00  0.00     0.236 C 
HETATM    3  O   UNL     1     -45.494  58.953 -58.237  1.00  0.00    -0.272 OA
HETATM    4  H   UNL     1     -43.967  58.345 -55.624  1.00  0.00     0.163 HD
ENDROOT
BRANCH   2   5
HETATM    5  C   UNL     1     -45.512  60.244 -56.212  1.00  0.00     0.239 C 
BRANCH   5   6
HETATM    6  N   UNL     1     -44.541  60.836 -55.314  1.00  0.00    -0.259 N 
HETATM    7  C   UNL     1     -43.486  61.590 -55.706  1.00  0.00     0.326 A 
HETATM    8  O   UNL     1     -43.302  62.035 -56.828  1.00  0.00    -0.247 OA
HETATM    9  N   UNL     1     -42.676  61.829 -54.630  1.00  0.00    -0.320 N 
HETATM   10  C   UNL     1     -43.152  61.185 -53.419  1.00  0.00     0.144 A 
HETATM   11  H   UNL     1     -41.780  62.289 -54.726  1.00  0.00     0.165 HD
HETATM   12  C   UNL     1     -42.212  60.082 -52.951  1.00  0.00    -0.014 A 
HETATM   13  C   UNL     1     -43.434  62.258 -52.358  1.00  0.00     0.047 C 
HETATM   14  C   UNL     1     -44.476  60.588 -53.968  1.00  0.00     0.261 A 
HETATM   15  C   UNL     1     -41.945  59.896 -51.578  1.00  0.00    -0.049 A 
HETATM   16  C   UNL     1     -41.645  59.178 -53.873  1.00  0.00     0.011 A 
HETATM   17  C   UNL     1     -41.119  58.836 -51.167  1.00  0.00     0.007 A 
HETATM   18  C   UNL     1     -42.475  60.837 -50.525  1.00  0.00     0.039 C 
HETATM   19  C   UNL     1     -40.574  57.952 -52.095  1.00  0.00     0.001 A 
HETATM   20  C   UNL     1     -40.835  58.125 -53.448  1.00  0.00     0.001 A 
HETATM   21  C   UNL     1     -43.684  61.644 -50.985  1.00  0.00     0.008 C 
HETATM   22  O   UNL     1     -45.311  59.971 -53.321  1.00  0.00    -0.270 OA
ENDBRANCH   5   6
ENDBRANCH   2   5
BRANCH   1  23
HETATM   23  C   UNL     1     -43.543  57.134 -57.278  1.00  0.00     0.155 C 
BRANCH  23  24
HETATM   24  C   UNL     1     -42.605  57.225 -58.498  1.00  0.00     0.043 C 
BRANCH  24  25
HETATM   25  C   UNL     1     -43.244  56.841 -59.831  1.00  0.00     0.076 C 
BRANCH  25  26
HETATM   26  S   UNL     1     -44.132  55.257 -59.634  1.00  0.00    -0.173 SA
HETATM   27  C   UNL     1     -45.789  55.796 -60.108  1.00  0.00     0.089 C 
ENDBRANCH  25  26
ENDBRANCH  24  25
ENDBRANCH  23  24
BRANCH  23  28
HETATM   28  C   UNL     1     -42.973  56.214 -56.228  1.00  0.00     0.128 A 
HETATM   29  N   UNL     1     -43.491  55.979 -55.038  1.00  0.00    -0.231 NA
HETATM   30  C   UNL     1     -42.622  55.123 -54.410  1.00  0.00     0.085 A 
HETATM   31  C   UNL     1     -41.545  54.818 -55.235  1.00  0.00     0.062 A 
HETATM   32  C   UNL     1     -42.680  54.568 -53.124  1.00  0.00     0.034 A 
HETATM   33  N   UNL     1     -41.807  55.501 -56.392  1.00  0.00    -0.341 N 
HETATM   34  C   UNL     1     -40.491  53.990 -54.844  1.00  0.00     0.032 A 
HETATM   35  H   UNL     1     -41.224  55.521 -57.215  1.00  0.00     0.167 HD
HETATM   36  C   UNL     1     -40.561  53.453 -53.552  1.00  0.00     0.002 A 
HETATM   37  C   UNL     1     -41.638  53.732 -52.706  1.00  0.00     0.002 A 
ENDBRANCH  23  28
ENDBRANCH   1  23
TORSDOF 7
ENDMDL
MODEL 8
REMARK VINA RESULT:      -7.8      2.923      5.938
REMARK  7 active torsions:
REMARK  status: ('A' for Active; 'I' for Inactive)
REMARK    1  A    between atoms: S_2  and  C_3 
REMARK    2  A    between atoms: C_3  and  C_4 
REMARK    3  A    between atoms: C_4  and  C_5 
REMARK    4  A    between atoms: C_5  and  N_6 
REMARK    5  A    between atoms: C_5  and  C_26 
REMARK       I    between atoms: N_6  and  C_7 
REMARK    6  A    between atoms: C_7  and  C_8 
REMARK    7  A    between atoms: C_8  and  N_9 
ROOT
HETATM    1  N   UNL     1     -42.878  60.714 -52.829  1.00  0.00    -0.348 N 
HETATM    2  C   UNL     1     -43.600  59.817 -52.062  1.00  0.00     0.236 C 
HETATM    3  O   UNL     1     -44.826  59.807 -52.021  1.00  0.00    -0.272 OA
HETATM    4  H   UNL     1     -42.012  60.311 -53.183  1.00  0.00     0.163 HD
ENDROOT
BRANCH   2   5
HETATM    5  C   UNL     1     -42.784  58.699 -51.410  1.00  0.00     0.239 C 
BRANCH   5   6
HETATM    6  N   UNL     1     -43.115  57.359 -51.852  1.00  0.00    -0.259 N 
HETATM    7  C   UNL     1     -44.076  56.580 -51.298  1.00  0.00     0.326 A 
HETATM    8  O   UNL     1     -44.917  56.943 -50.491  1.00  0.00    -0.247 OA
HETATM    9  N   UNL     1     -43.998  55.321 -51.830  1.00  0.00    -0.320 N 
HETATM   10  C   UNL     1     -42.908  55.182 -52.778  1.00  0.00     0.144 A 
HETATM   11  H   UNL     1     -44.560  54.557 -51.479  1.00  0.00     0.165 HD
HETATM   12  C   UNL     1     -41.825  54.239 -52.270  1.00  0.00    -0.014 A 
HETATM   13  C   UNL     1     -43.481  54.794 -54.148  1.00  0.00     0.047 C 
HETATM   14  C   UNL     1     -42.405  56.651 -52.784  1.00  0.00     0.261 A 
HETATM   15  C   UNL     1     -41.184  53.338 -53.146  1.00  0.00    -0.049 A 
HETATM   16  C   UNL     1     -41.390  54.297 -50.930  1.00  0.00     0.011 A 
HETATM   17  C   UNL     1     -40.149  52.518 -52.666  1.00  0.00     0.007 A 
HETATM   18  C   UNL     1     -41.610  53.180 -54.585  1.00  0.00     0.039 C 
HETATM   19  C   UNL     1     -39.731  52.595 -51.339  1.00  0.00     0.001 A 
HETATM   20  C   UNL     1     -40.353  53.483 -50.471  1.00  0.00     0.001 A 
HETATM   21  C   UNL     1     -42.386  54.377 -55.123  1.00  0.00     0.008 C 
HETATM   22  O   UNL     1     -41.503  57.101 -53.478  1.00  0.00    -0.270 OA
ENDBRANCH   5   6
ENDBRANCH   2   5
BRANCH   1  23
HETATM   23  C   UNL     1     -43.535  61.617 -53.778  1.00  0.00     0.155 C 
BRANCH  23  24
HETATM   24  C   UNL     1     -43.110  63.099 -53.751  1.00  0.00     0.043 C 
BRANCH  24  25
HETATM   25  C   UNL     1     -43.342  63.810 -52.420  1.00  0.00     0.076 C 
BRANCH  25  26
HETATM   26  S   UNL     1     -45.082  63.578 -51.912  1.00  0.00    -0.173 SA
HETATM   27  C   UNL     1     -44.810  62.875 -50.271  1.00  0.00     0.089 C 
ENDBRANCH  25  26
ENDBRANCH  24  25
ENDBRANCH  23  24
BRANCH  23  28
HETATM   28  C   UNL     1     -43.405  61.045 -55.168  1.00  0.00     0.128 A 
HETATM   29  N   UNL     1     -44.396  60.619 -55.927  1.00  0.00    -0.231 NA
HETATM   30  C   UNL     1     -43.814  60.146 -57.077  1.00  0.00     0.085 A 
HETATM   31  C   UNL     1     -42.432  60.289 -57.027  1.00  0.00     0.062 A 
HETATM   32  C   UNL     1     -44.404  59.568 -58.209  1.00  0.00     0.034 A 
HETATM   33  N   UNL     1     -42.201  60.887 -55.817  1.00  0.00    -0.341 N 
HETATM   34  C   UNL     1     -41.581  59.866 -58.050  1.00  0.00     0.032 A 
HETATM   35  H   UNL     1     -41.299  61.132 -55.437  1.00  0.00     0.167 HD
HETATM   36  C   UNL     1     -42.187  59.281 -59.168  1.00  0.00     0.002 A 
HETATM   37  C   UNL     1     -43.575  59.136 -59.251  1.00  0.00     0.002 A 
ENDBRANCH  23  28
ENDBRANCH   1  23
TORSDOF 7
ENDMDL
MODEL 9
REMARK VINA RESULT:      -7.7      5.252      9.810
REMARK  7 active torsions:
REMARK  status: ('A' for Active; 'I' for Inactive)
REMARK    1  A    between atoms: S_2  and  C_3 
REMARK    2  A    between atoms: C_3  and  C_4 
REMARK    3  A    between atoms: C_4  and  C_5 
REMARK    4  A    between atoms: C_5  and  N_6 
REMARK    5  A    between atoms: C_5  and  C_26 
REMARK       I    between atoms: N_6  and  C_7 
REMARK    6  A    between atoms: C_7  and  C_8 
REMARK    7  A    between atoms: C_8  and  N_9 
ROOT
HETATM    1  N   UNL     1     -42.398  55.375 -55.384  1.00  0.00    -0.348 N 
HETATM    2  C   UNL     1     -42.498  56.324 -56.385  1.00  0.00     0.236 C 
HETATM    3  O   UNL     1     -41.883  57.386 -56.365  1.00  0.00    -0.272 OA
HETATM    4  H   UNL     1     -42.489  54.424 -55.741  1.00  0.00     0.163 HD
ENDROOT
BRANCH   2   5
HETATM    5  C   UNL     1     -43.275  55.892 -57.630  1.00  0.00     0.239 C 
BRANCH   5   6
HETATM    6  N   UNL     1     -43.427  56.915 -58.645  1.00  0.00    -0.259 N 
HETATM    7  C   UNL     1     -42.711  56.973 -59.795  1.00  0.00     0.326 A 
HETATM    8  O   UNL     1     -41.984  56.095 -60.232  1.00  0.00    -0.247 OA
HETATM    9  N   UNL     1     -42.973  58.156 -60.431  1.00  0.00    -0.320 N 
HETATM   10  C   UNL     1     -43.888  59.001 -59.684  1.00  0.00     0.144 A 
HETATM   11  H   UNL     1     -42.465  58.444 -61.256  1.00  0.00     0.165 HD
HETATM   12  C   UNL     1     -43.212  60.269 -59.178  1.00  0.00    -0.014 A 
HETATM   13  C   UNL     1     -45.141  59.257 -60.534  1.00  0.00     0.047 C 
HETATM   14  C   UNL     1     -44.203  58.035 -58.510  1.00  0.00     0.261 A 
HETATM   15  C   UNL     1     -43.893  61.504 -59.193  1.00  0.00    -0.049 A 
HETATM   16  C   UNL     1     -41.919  60.221 -58.618  1.00  0.00     0.011 A 
HETATM   17  C   UNL     1     -43.269  62.649 -58.669  1.00  0.00     0.007 A 
HETATM   18  C   UNL     1     -45.262  61.656 -59.808  1.00  0.00     0.039 C 
HETATM   19  C   UNL     1     -41.993  62.578 -58.115  1.00  0.00     0.001 A 
HETATM   20  C   UNL     1     -41.317  61.365 -58.092  1.00  0.00     0.001 A 
HETATM   21  C   UNL     1     -46.024  60.341 -59.927  1.00  0.00     0.008 C 
HETATM   22  O   UNL     1     -44.988  58.245 -57.595  1.00  0.00    -0.270 OA
ENDBRANCH   5   6
ENDBRANCH   2   5
BRANCH   1  23
HETATM   23  C   UNL     1     -41.419  55.500 -54.300  1.00  0.00     0.155 C 
BRANCH  23  24
HETATM   24  C   UNL     1     -41.855  56.285 -53.046  1.00  0.00     0.043 C 
BRANCH  24  25
HETATM   25  C   UNL     1     -43.311  56.083 -52.634  1.00  0.00     0.076 C 
BRANCH  25  26
HETATM   26  S   UNL     1     -44.107  57.715 -52.430  1.00  0.00    -0.173 SA
HETATM   27  C   UNL     1     -44.871  57.867 -54.060  1.00  0.00     0.089 C 
ENDBRANCH  25  26
ENDBRANCH  24  25
ENDBRANCH  23  24
BRANCH  23  28
HETATM   28  C   UNL     1     -40.919  54.127 -53.930  1.00  0.00     0.128 A 
HETATM   29  N   UNL     1     -40.848  53.084 -54.734  1.00  0.00    -0.231 NA
HETATM   30  C   UNL     1     -40.382  52.046 -53.966  1.00  0.00     0.085 A 
HETATM   31  C   UNL     1     -40.155  52.461 -52.659  1.00  0.00     0.062 A 
HETATM   32  C   UNL     1     -40.135  50.712 -54.316  1.00  0.00     0.034 A 
HETATM   33  N   UNL     1     -40.477  53.792 -52.670  1.00  0.00    -0.341 N 
HETATM   34  C   UNL     1     -39.705  51.606 -51.651  1.00  0.00     0.032 A 
HETATM   35  H   UNL     1     -40.445  54.418 -51.879  1.00  0.00     0.167 HD
HETATM   36  C   UNL     1     -39.474  50.273 -52.016  1.00  0.00     0.002 A 
HETATM   37  C   UNL     1     -39.681  49.832 -53.326  1.00  0.00     0.002 A 
ENDBRANCH  23  28
ENDBRANCH   1  23
TORSDOF 7
ENDMDL
MODEL 10
REMARK VINA RESULT:      -7.6      5.228      9.729
REMARK  7 active torsions:
REMARK  status: ('A' for Active; 'I' for Inactive)
REMARK    1  A    between atoms: S_2  and  C_3 
REMARK    2  A    between atoms: C_3  and  C_4 
REMARK    3  A    between atoms: C_4  and  C_5 
REMARK    4  A    between atoms: C_5  and  N_6 
REMARK    5  A    between atoms: C_5  and  C_26 
REMARK       I    between atoms: N_6  and  C_7 
REMARK    6  A    between atoms: C_7  and  C_8 
REMARK    7  A    between atoms: C_8  and  N_9 
ROOT
HETATM    1  N   UNL     1     -41.278  55.361 -55.850  1.00  0.00    -0.348 N 
HETATM    2  C   UNL     1     -42.609  55.259 -56.213  1.00  0.00     0.236 C 
HETATM    3  O   UNL     1     -43.511  55.073 -55.403  1.00  0.00    -0.272 OA
HETATM    4  H   UNL     1     -40.761  56.002 -56.452  1.00  0.00     0.163 HD
ENDROOT
BRANCH   2   5
HETATM    5  C   UNL     1     -42.922  55.587 -57.674  1.00  0.00     0.239 C 
BRANCH   5   6
HETATM    6  N   UNL     1     -43.594  56.852 -57.889  1.00  0.00    -0.259 N 
HETATM    7  C   UNL     1     -44.681  57.024 -58.681  1.00  0.00     0.326 A 
HETATM    8  O   UNL     1     -45.358  56.135 -59.171  1.00  0.00    -0.247 OA
HETATM    9  N   UNL     1     -44.943  58.361 -58.805  1.00  0.00    -0.320 N 
HETATM   10  C   UNL     1     -43.978  59.187 -58.101  1.00  0.00     0.144 A 
HETATM   11  H   UNL     1     -45.651  58.712 -59.436  1.00  0.00     0.165 HD
HETATM   12  C   UNL     1     -43.127  60.014 -59.057  1.00  0.00    -0.014 A 
HETATM   13  C   UNL     1     -44.709  60.017 -57.038  1.00  0.00     0.047 C 
HETATM   14  C   UNL     1     -43.134  58.062 -57.442  1.00  0.00     0.261 A 
HETATM   15  C   UNL     1     -42.778  61.344 -58.745  1.00  0.00    -0.049 A 
HETATM   16  C   UNL     1     -42.612  59.444 -60.240  1.00  0.00     0.011 A 
HETATM   17  C   UNL     1     -41.946  62.068 -59.616  1.00  0.00     0.007 A 
HETATM   18  C   UNL     1     -43.315  62.047 -57.523  1.00  0.00     0.039 C 
HETATM   19  C   UNL     1     -41.444  61.484 -60.776  1.00  0.00     0.001 A 
HETATM   20  C   UNL     1     -41.779  60.173 -61.090  1.00  0.00     0.001 A 
HETATM   21  C   UNL     1     -43.808  61.093 -56.441  1.00  0.00     0.008 C 
HETATM   22  O   UNL     1     -42.193  58.222 -56.676  1.00  0.00    -0.270 OA
ENDBRANCH   5   6
ENDBRANCH   2   5
BRANCH   1  23
HETATM   23  C   UNL     1     -40.866  55.417 -54.445  1.00  0.00     0.155 C 
BRANCH  23  24
HETATM   24  C   UNL     1     -41.831  56.101 -53.455  1.00  0.00     0.043 C 
BRANCH  24  25
HETATM   25  C   UNL     1     -41.505  57.559 -53.143  1.00  0.00     0.076 C 
BRANCH  25  26
HETATM   26  S   UNL     1     -42.013  57.933 -51.428  1.00  0.00    -0.173 SA
HETATM   27  C   UNL     1     -41.134  56.607 -50.572  1.00  0.00     0.089 C 
ENDBRANCH  25  26
ENDBRANCH  24  25
ENDBRANCH  23  24
BRANCH  23  28
HETATM   28  C   UNL     1     -40.515  54.026 -53.981  1.00  0.00     0.128 A 
HETATM   29  N   UNL     1     -40.399  52.959 -54.747  1.00  0.00    -0.231 NA
HETATM   30  C   UNL     1     -40.116  51.916 -53.902  1.00  0.00     0.085 A 
HETATM   31  C   UNL     1     -40.051  52.351 -52.583  1.00  0.00     0.062 A 
HETATM   32  C   UNL     1     -39.910  50.559 -54.187  1.00  0.00     0.034 A 
HETATM   33  N   UNL     1     -40.280  53.699 -52.665  1.00  0.00    -0.341 N 
HETATM   34  C   UNL     1     -39.805  51.498 -51.505  1.00  0.00     0.032 A 
HETATM   35  H   UNL     1     -40.319  54.343 -51.889  1.00  0.00     0.167 HD
HETATM   36  C   UNL     1     -39.613  50.144 -51.809  1.00  0.00     0.002 A 
HETATM   37  C   UNL     1     -39.661  49.680 -53.126  1.00  0.00     0.002 A 
ENDBRANCH  23  28
ENDBRANCH   1  23
TORSDOF 7
ENDMDL
