MODEL 1
REMARK VINA RESULT:      -7.9      0.000      0.000
REMARK  9 active torsions:
REMARK  status: ('A' for Active; 'I' for Inactive)
REMARK    1  A    between atoms: C_3  and  C_4 
REMARK    2  A    between atoms: C_4  and  O_5 
REMARK    3  A    between atoms: C_8  and  N_9 
REMARK       I    between atoms: N_9  and  C_10 
REMARK    4  A    between atoms: C_10  and  C_11 
REMARK    5  A    between atoms: C_11  and  N_12 
REMARK    6  A    between atoms: C_14  and  C_15 
REMARK    7  A    between atoms: C_16  and  O_17 
REMARK    8  A    between atoms: C_21  and  O_22 
REMARK    9  A    between atoms: C_26  and  O_27 
ROOT
HETATM    1  N   UNL     1     -43.402  57.426 -55.974  1.00  0.00    -0.054 N 
HETATM    2  H   UNL     1     -42.894  58.230 -55.581  1.00  0.00     0.281 HD
HETATM    3  C   UNL     1     -44.229  58.089 -57.086  1.00  0.00     0.231 C 
HETATM    4  C   UNL     1     -44.562  57.080 -58.224  1.00  0.00     0.055 C 
HETATM    5  C   UNL     1     -43.458  56.086 -58.637  1.00  0.00     0.065 C 
HETATM    6  C   UNL     1     -42.827  55.452 -57.401  1.00  0.00     0.066 C 
HETATM    7  C   UNL     1     -42.313  56.511 -56.443  1.00  0.00     0.239 C 
HETATM    8  C   UNL     1     -45.214  57.731 -59.455  1.00  0.00     0.010 C 
HETATM    9  C   UNL     1     -45.797  56.664 -60.384  1.00  0.00     0.001 C 
HETATM   10  C   UNL     1     -44.768  55.608 -60.776  1.00  0.00     0.003 C 
HETATM   11  C   UNL     1     -44.059  55.004 -59.560  1.00  0.00     0.038 C 
ENDROOT
BRANCH   1  12
HETATM   12  C   UNL     1     -44.206  56.958 -54.753  1.00  0.00     0.338 C 
BRANCH  12  13
HETATM   13  C   UNL     1     -43.569  55.873 -53.892  1.00  0.00     0.248 C 
HETATM   14  N   UNL     1     -42.447  56.290 -53.192  1.00  0.00    -0.319 N 
HETATM   15  H   UNL     1     -41.839  56.993 -53.594  1.00  0.00     0.169 HD
HETATM   16  O   UNL     1     -43.997  54.721 -53.922  1.00  0.00    -0.271 OA
BRANCH  14  17
HETATM   17  C   UNL     1     -41.835  55.425 -52.308  1.00  0.00     0.094 C 
HETATM   18  C   UNL     1     -40.977  54.354 -52.478  1.00  0.00     0.080 C 
HETATM   19  C   UNL     1     -40.503  53.897 -51.171  1.00  0.00    -0.030 C 
HETATM   20  C   UNL     1     -39.508  52.793 -50.957  1.00  0.00     0.050 C 
HETATM   21  C   UNL     1     -41.114  54.592 -50.132  1.00  0.00    -0.012 C 
HETATM   22  S   UNL     1     -42.262  55.720 -50.700  1.00  0.00    -0.076 SA
HETATM   23  C   UNL     1     -40.908  54.432 -48.658  1.00  0.00     0.057 C 
BRANCH  18  24
HETATM   24  C   UNL     1     -40.699  53.766 -53.800  1.00  0.00     0.296 C 
HETATM   25  O   UNL     1     -40.103  54.366 -54.691  1.00  0.00    -0.259 OA
BRANCH  24  26
HETATM   26  O   UNL     1     -41.240  52.526 -53.961  1.00  0.00    -0.322 OA
HETATM   27  C   UNL     1     -40.307  51.486 -54.263  1.00  0.00     0.213 C 
ENDBRANCH  24  26
ENDBRANCH  18  24
ENDBRANCH  14  17
ENDBRANCH  12  13
ENDBRANCH   1  12
BRANCH   3  28
HETATM   28  C   UNL     1     -43.666  59.480 -57.392  1.00  0.00     0.009 A 
HETATM   29  C   UNL     1     -44.536  60.598 -57.397  1.00  0.00     0.076 A 
HETATM   30  C   UNL     1     -44.036  61.885 -57.618  1.00  0.00     0.040 A 
HETATM   31  C   UNL     1     -42.674  62.080 -57.835  1.00  0.00     0.039 A 
HETATM   32  C   UNL     1     -41.800  60.999 -57.833  1.00  0.00     0.069 A 
HETATM   33  C   UNL     1     -42.295  59.716 -57.594  1.00  0.00     0.048 A 
BRANCH  29  34
HETATM   34  O   UNL     1     -45.854  60.344 -57.109  1.00  0.00    -0.355 OA
HETATM   35  C   UNL     1     -46.820  60.885 -58.011  1.00  0.00     0.210 C 
ENDBRANCH  29  34
BRANCH  32  36
HETATM   36  O   UNL     1     -40.486  61.319 -58.033  1.00  0.00    -0.356 OA
HETATM   37  C   UNL     1     -40.222  62.514 -58.760  1.00  0.00     0.210 C 
ENDBRANCH  32  36
ENDBRANCH   3  28
BRANCH   5  38
HETATM   38  O   UNL     1     -42.408  56.754 -59.328  1.00  0.00    -0.389 OA
HETATM   39  H   UNL     1     -41.796  57.166 -58.688  1.00  0.00     0.210 HD
ENDBRANCH   5  38
TORSDOF 9
ENDMDL
MODEL 2
REMARK VINA RESULT:      -7.8      2.041      2.996
REMARK  9 active torsions:
REMARK  status: ('A' for Active; 'I' for Inactive)
REMARK    1  A    between atoms: C_3  and  C_4 
REMARK    2  A    between atoms: C_4  and  O_5 
REMARK    3  A    between atoms: C_8  and  N_9 
REMARK       I    between atoms: N_9  and  C_10 
REMARK    4  A    between atoms: C_10  and  C_11 
REMARK    5  A    between atoms: C_11  and  N_12 
REMARK    6  A    between atoms: C_14  and  C_15 
REMARK    7  A    between atoms: C_16  and  O_17 
REMARK    8  A    between atoms: C_21  and  O_22 
REMARK    9  A    between atoms: C_26  and  O_27 
ROOT
HETATM    1  N   UNL     1     -43.246  56.940 -57.369  1.00  0.00    -0.054 N 
HETATM    2  H   UNL     1     -42.364  57.443 -57.199  1.00  0.00     0.281 HD
HETATM    3  C   UNL     1     -44.128  58.047 -57.968  1.00  0.00     0.231 C 
HETATM    4  C   UNL     1     -45.231  57.454 -58.893  1.00  0.00     0.055 C 
HETATM    5  C   UNL     1     -44.837  56.271 -59.800  1.00  0.00     0.065 C 
HETATM    6  C   UNL     1     -44.060  55.228 -59.003  1.00  0.00     0.066 C 
HETATM    7  C   UNL     1     -42.857  55.847 -58.315  1.00  0.00     0.239 C 
HETATM    8  C   UNL     1     -46.017  58.519 -59.677  1.00  0.00     0.010 C 
HETATM    9  C   UNL     1     -47.270  57.909 -60.308  1.00  0.00     0.001 C 
HETATM   10  C   UNL     1     -46.955  56.687 -61.166  1.00  0.00     0.003 C 
HETATM   11  C   UNL     1     -46.108  55.651 -60.419  1.00  0.00     0.038 C 
ENDROOT
BRANCH   1  12
HETATM   12  C   UNL     1     -43.620  56.508 -55.945  1.00  0.00     0.338 C 
BRANCH  12  13
HETATM   13  C   UNL     1     -42.497  55.924 -55.094  1.00  0.00     0.248 C 
HETATM   14  N   UNL     1     -42.899  54.899 -54.250  1.00  0.00    -0.319 N 
HETATM   15  H   UNL     1     -43.832  54.911 -53.858  1.00  0.00     0.169 HD
HETATM   16  O   UNL     1     -41.370  56.415 -55.124  1.00  0.00    -0.271 OA
BRANCH  14  17
HETATM   17  C   UNL     1     -41.958  54.230 -53.495  1.00  0.00     0.094 C 
HETATM   18  C   UNL     1     -41.543  54.347 -52.182  1.00  0.00     0.080 C 
HETATM   19  C   UNL     1     -40.622  53.258 -51.861  1.00  0.00    -0.030 C 
HETATM   20  C   UNL     1     -40.011  53.019 -50.510  1.00  0.00     0.050 C 
HETATM   21  C   UNL     1     -40.344  52.475 -52.978  1.00  0.00    -0.012 C 
HETATM   22  S   UNL     1     -41.120  53.058 -54.381  1.00  0.00    -0.076 SA
HETATM   23  C   UNL     1     -39.458  51.272 -53.074  1.00  0.00     0.057 C 
BRANCH  18  24
HETATM   24  C   UNL     1     -41.948  55.475 -51.324  1.00  0.00     0.296 C 
HETATM   25  O   UNL     1     -42.619  55.337 -50.304  1.00  0.00    -0.259 OA
BRANCH  24  26
HETATM   26  O   UNL     1     -41.576  56.688 -51.820  1.00  0.00    -0.322 OA
HETATM   27  C   UNL     1     -42.578  57.706 -51.764  1.00  0.00     0.213 C 
ENDBRANCH  24  26
ENDBRANCH  18  24
ENDBRANCH  14  17
ENDBRANCH  12  13
ENDBRANCH   1  12
BRANCH   3  28
HETATM   28  C   UNL     1     -43.253  59.220 -58.420  1.00  0.00     0.009 A 
HETATM   29  C   UNL     1     -42.767  60.138 -57.456  1.00  0.00     0.076 A 
HETATM   30  C   UNL     1     -41.921  61.184 -57.836  1.00  0.00     0.040 A 
HETATM   31  C   UNL     1     -41.546  61.333 -59.170  1.00  0.00     0.039 A 
HETATM   32  C   UNL     1     -42.009  60.445 -60.133  1.00  0.00     0.069 A 
HETATM   33  C   UNL     1     -42.838  59.388 -59.752  1.00  0.00     0.048 A 
BRANCH  29  34
HETATM   34  O   UNL     1     -43.119  59.893 -56.152  1.00  0.00    -0.355 OA
HETATM   35  C   UNL     1     -42.056  59.870 -55.198  1.00  0.00     0.210 C 
ENDBRANCH  29  34
BRANCH  32  36
HETATM   36  O   UNL     1     -41.553  60.680 -61.400  1.00  0.00    -0.356 OA
HETATM   37  C   UNL     1     -41.052  61.984 -61.668  1.00  0.00     0.210 C 
ENDBRANCH  32  36
ENDBRANCH   3  28
BRANCH   5  38
HETATM   38  O   UNL     1     -43.974  56.701 -60.848  1.00  0.00    -0.389 OA
HETATM   39  H   UNL     1     -43.718  55.940 -61.403  1.00  0.00     0.210 HD
ENDBRANCH   5  38
TORSDOF 9
ENDMDL
MODEL 3
REMARK VINA RESULT:      -7.8      1.624      4.328
REMARK  9 active torsions:
REMARK  status: ('A' for Active; 'I' for Inactive)
REMARK    1  A    between atoms: C_3  and  C_4 
REMARK    2  A    between atoms: C_4  and  O_5 
REMARK    3  A    between atoms: C_8  and  N_9 
REMARK       I    between atoms: N_9  and  C_10 
REMARK    4  A    between atoms: C_10  and  C_11 
REMARK    5  A    between atoms: C_11  and  N_12 
REMARK    6  A    between atoms: C_14  and  C_15 
REMARK    7  A    between atoms: C_16  and  O_17 
REMARK    8  A    between atoms: C_21  and  O_22 
REMARK    9  A    between atoms: C_26  and  O_27 
ROOT
HETATM    1  N   UNL     1     -43.616  56.524 -57.205  1.00  0.00    -0.054 N 
HETATM    2  H   UNL     1     -44.467  55.972 -57.377  1.00  0.00     0.281 HD
HETATM    3  C   UNL     1     -43.459  57.278 -58.535  1.00  0.00     0.231 C 
HETATM    4  C   UNL     1     -42.689  58.618 -58.338  1.00  0.00     0.055 C 
HETATM    5  C   UNL     1     -43.005  59.439 -57.072  1.00  0.00     0.065 C 
HETATM    6  C   UNL     1     -43.014  58.535 -55.843  1.00  0.00     0.066 C 
HETATM    7  C   UNL     1     -43.972  57.372 -56.024  1.00  0.00     0.239 C 
HETATM    8  C   UNL     1     -42.674  59.510 -59.591  1.00  0.00     0.010 C 
HETATM    9  C   UNL     1     -41.653  60.639 -59.437  1.00  0.00     0.001 C 
HETATM   10  C   UNL     1     -41.870  61.450 -58.162  1.00  0.00     0.003 C 
HETATM   11  C   UNL     1     -41.961  60.565 -56.915  1.00  0.00     0.038 C 
ENDROOT
BRANCH   1  12
HETATM   12  C   UNL     1     -42.587  55.412 -56.960  1.00  0.00     0.338 C 
BRANCH  12  13
HETATM   13  C   UNL     1     -42.557  54.807 -55.561  1.00  0.00     0.248 C 
HETATM   14  N   UNL     1     -41.346  54.958 -54.903  1.00  0.00    -0.319 N 
HETATM   15  H   UNL     1     -40.485  54.961 -55.435  1.00  0.00     0.169 HD
HETATM   16  O   UNL     1     -43.521  54.173 -55.135  1.00  0.00    -0.271 OA
BRANCH  14  17
HETATM   17  C   UNL     1     -41.224  54.532 -53.596  1.00  0.00     0.094 C 
HETATM   18  C   UNL     1     -40.802  53.346 -53.025  1.00  0.00     0.080 C 
HETATM   19  C   UNL     1     -40.716  53.506 -51.573  1.00  0.00    -0.030 C 
HETATM   20  C   UNL     1     -40.234  52.451 -50.620  1.00  0.00     0.050 C 
HETATM   21  C   UNL     1     -41.171  54.757 -51.167  1.00  0.00    -0.012 C 
HETATM   22  S   UNL     1     -41.736  55.693 -52.478  1.00  0.00    -0.076 SA
HETATM   23  C   UNL     1     -41.248  55.314 -49.780  1.00  0.00     0.057 C 
BRANCH  18  24
HETATM   24  C   UNL     1     -40.572  52.126 -53.818  1.00  0.00     0.296 C 
HETATM   25  O   UNL     1     -41.374  51.701 -54.646  1.00  0.00    -0.259 OA
BRANCH  24  26
HETATM   26  O   UNL     1     -39.424  51.474 -53.480  1.00  0.00    -0.322 OA
HETATM   27  C   UNL     1     -39.485  50.048 -53.556  1.00  0.00     0.213 C 
ENDBRANCH  24  26
ENDBRANCH  18  24
ENDBRANCH  14  17
ENDBRANCH  12  13
ENDBRANCH   1  12
BRANCH   3  28
HETATM   28  C   UNL     1     -44.769  57.219 -59.324  1.00  0.00     0.009 A 
HETATM   29  C   UNL     1     -45.103  56.039 -60.032  1.00  0.00     0.076 A 
HETATM   30  C   UNL     1     -46.320  55.940 -60.713  1.00  0.00     0.040 A 
HETATM   31  C   UNL     1     -47.219  57.005 -60.700  1.00  0.00     0.039 A 
HETATM   32  C   UNL     1     -46.915  58.173 -60.011  1.00  0.00     0.069 A 
HETATM   33  C   UNL     1     -45.708  58.265 -59.315  1.00  0.00     0.048 A 
BRANCH  29  34
HETATM   34  O   UNL     1     -44.205  55.005 -59.947  1.00  0.00    -0.355 OA
HETATM   35  C   UNL     1     -44.735  53.728 -59.588  1.00  0.00     0.210 C 
ENDBRANCH  29  34
BRANCH  32  36
HETATM   36  O   UNL     1     -47.885  59.135 -60.052  1.00  0.00    -0.356 OA
HETATM   37  C   UNL     1     -47.929  60.046 -58.959  1.00  0.00     0.210 C 
ENDBRANCH  32  36
ENDBRANCH   3  28
BRANCH   5  38
HETATM   38  O   UNL     1     -44.303  60.019 -57.155  1.00  0.00    -0.389 OA
HETATM   39  H   UNL     1     -44.835  59.758 -56.378  1.00  0.00     0.210 HD
ENDBRANCH   5  38
TORSDOF 9
ENDMDL
MODEL 4
REMARK VINA RESULT:      -7.7      2.005      4.788
REMARK  9 active torsions:
REMARK  status: ('A' for Active; 'I' for Inactive)
REMARK    1  A    between atoms: C_3  and  C_4 
REMARK    2  A    between atoms: C_4  and  O_5 
REMARK    3  A    between atoms: C_8  and  N_9 
REMARK       I    between atoms: N_9  and  C_10 
REMARK    4  A    between atoms: C_10  and  C_11 
REMARK    5  A    between atoms: C_11  and  N_12 
REMARK    6  A    between atoms: C_14  and  C_15 
REMARK    7  A    between atoms: C_16  and  O_17 
REMARK    8  A    between atoms: C_21  and  O_22 
REMARK    9  A    between atoms: C_26  and  O_27 
ROOT
HETATM    1  N   UNL     1     -43.707  56.573 -57.121  1.00  0.00    -0.054 N 
HETATM    2  H   UNL     1     -44.560  56.027 -57.300  1.00  0.00     0.281 HD
HETATM    3  C   UNL     1     -43.498  57.282 -58.468  1.00  0.00     0.231 C 
HETATM    4  C   UNL     1     -42.716  58.617 -58.291  1.00  0.00     0.055 C 
HETATM    5  C   UNL     1     -43.059  59.483 -57.062  1.00  0.00     0.065 C 
HETATM    6  C   UNL     1     -43.118  58.620 -55.805  1.00  0.00     0.066 C 
HETATM    7  C   UNL     1     -44.087  57.464 -55.979  1.00  0.00     0.239 C 
HETATM    8  C   UNL     1     -42.651  59.468 -59.571  1.00  0.00     0.010 C 
HETATM    9  C   UNL     1     -41.620  60.589 -59.421  1.00  0.00     0.001 C 
HETATM   10  C   UNL     1     -41.864  61.443 -58.180  1.00  0.00     0.003 C 
HETATM   11  C   UNL     1     -42.004  60.600 -56.909  1.00  0.00     0.038 C 
ENDROOT
BRANCH   1  12
HETATM   12  C   UNL     1     -42.700  55.457 -56.809  1.00  0.00     0.338 C 
BRANCH  12  13
HETATM   13  C   UNL     1     -42.613  55.005 -55.355  1.00  0.00     0.248 C 
HETATM   14  N   UNL     1     -41.375  55.221 -54.767  1.00  0.00    -0.319 N 
HETATM   15  H   UNL     1     -40.537  55.163 -55.331  1.00  0.00     0.169 HD
HETATM   16  O   UNL     1     -43.558  54.424 -54.824  1.00  0.00    -0.271 OA
BRANCH  14  17
HETATM   17  C   UNL     1     -41.199  54.937 -53.428  1.00  0.00     0.094 C 
HETATM   18  C   UNL     1     -41.447  55.652 -52.271  1.00  0.00     0.080 C 
HETATM   19  C   UNL     1     -41.225  54.792 -51.109  1.00  0.00    -0.030 C 
HETATM   20  C   UNL     1     -41.453  55.201 -49.683  1.00  0.00     0.050 C 
HETATM   21  C   UNL     1     -40.738  53.543 -51.481  1.00  0.00    -0.012 C 
HETATM   22  S   UNL     1     -40.502  53.420 -53.166  1.00  0.00    -0.076 SA
HETATM   23  C   UNL     1     -40.386  52.382 -50.603  1.00  0.00     0.057 C 
BRANCH  18  24
HETATM   24  C   UNL     1     -41.796  57.083 -52.287  1.00  0.00     0.296 C 
HETATM   25  O   UNL     1     -42.930  57.497 -52.516  1.00  0.00    -0.259 OA
BRANCH  24  26
HETATM   26  O   UNL     1     -40.720  57.901 -52.105  1.00  0.00    -0.322 OA
HETATM   27  C   UNL     1     -40.498  58.859 -53.141  1.00  0.00     0.213 C 
ENDBRANCH  24  26
ENDBRANCH  18  24
ENDBRANCH  14  17
ENDBRANCH  12  13
ENDBRANCH   1  12
BRANCH   3  28
HETATM   28  C   UNL     1     -44.785  57.214 -59.295  1.00  0.00     0.009 A 
HETATM   29  C   UNL     1     -45.105  56.022 -59.988  1.00  0.00     0.076 A 
HETATM   30  C   UNL     1     -46.302  55.916 -60.703  1.00  0.00     0.040 A 
HETATM   31  C   UNL     1     -47.194  56.986 -60.739  1.00  0.00     0.039 A 
HETATM   32  C   UNL     1     -46.903  58.167 -60.066  1.00  0.00     0.069 A 
HETATM   33  C   UNL     1     -45.717  58.266 -59.336  1.00  0.00     0.048 A 
BRANCH  29  34
HETATM   34  O   UNL     1     -44.217  54.984 -59.855  1.00  0.00    -0.355 OA
HETATM   35  C   UNL     1     -44.777  53.691 -59.621  1.00  0.00     0.210 C 
ENDBRANCH  29  34
BRANCH  32  36
HETATM   36  O   UNL     1     -47.864  59.134 -60.156  1.00  0.00    -0.356 OA
HETATM   37  C   UNL     1     -48.336  59.447 -61.461  1.00  0.00     0.210 C 
ENDBRANCH  32  36
ENDBRANCH   3  28
BRANCH   5  38
HETATM   38  O   UNL     1     -44.346  60.076 -57.203  1.00  0.00    -0.389 OA
HETATM   39  H   UNL     1     -44.541  60.637 -56.428  1.00  0.00     0.210 HD
ENDBRANCH   5  38
TORSDOF 9
ENDMDL
MODEL 5
REMARK VINA RESULT:      -7.6      2.715      8.656
REMARK  9 active torsions:
REMARK  status: ('A' for Active; 'I' for Inactive)
REMARK    1  A    between atoms: C_3  and  C_4 
REMARK    2  A    between atoms: C_4  and  O_5 
REMARK    3  A    between atoms: C_8  and  N_9 
REMARK       I    between atoms: N_9  and  C_10 
REMARK    4  A    between atoms: C_10  and  C_11 
REMARK    5  A    between atoms: C_11  and  N_12 
REMARK    6  A    between atoms: C_14  and  C_15 
REMARK    7  A    between atoms: C_16  and  O_17 
REMARK    8  A    between atoms: C_21  and  O_22 
REMARK    9  A    between atoms: C_26  and  O_27 
ROOT
HETATM    1  N   UNL     1     -41.456  56.002 -54.030  1.00  0.00    -0.054 N 
HETATM    2  H   UNL     1     -40.733  55.295 -53.839  1.00  0.00     0.281 HD
HETATM    3  C   UNL     1     -42.484  55.705 -52.926  1.00  0.00     0.231 C 
HETATM    4  C   UNL     1     -43.314  56.973 -52.569  1.00  0.00     0.055 C 
HETATM    5  C   UNL     1     -42.566  58.320 -52.520  1.00  0.00     0.065 C 
HETATM    6  C   UNL     1     -41.677  58.479 -53.750  1.00  0.00     0.066 C 
HETATM    7  C   UNL     1     -40.729  57.303 -53.896  1.00  0.00     0.239 C 
HETATM    8  C   UNL     1     -44.217  56.792 -51.338  1.00  0.00     0.010 C 
HETATM    9  C   UNL     1     -45.223  57.940 -51.233  1.00  0.00     0.001 C 
HETATM   10  C   UNL     1     -44.548  59.309 -51.249  1.00  0.00     0.003 C 
HETATM   11  C   UNL     1     -43.589  59.474 -52.432  1.00  0.00     0.038 C 
ENDROOT
BRANCH   1  12
HETATM   12  C   UNL     1     -41.890  55.606 -55.448  1.00  0.00     0.338 C 
BRANCH  12  13
HETATM   13  C   UNL     1     -42.651  56.659 -56.246  1.00  0.00     0.248 C 
HETATM   14  N   UNL     1     -41.875  57.337 -57.176  1.00  0.00    -0.319 N 
HETATM   15  H   UNL     1     -40.897  57.506 -56.981  1.00  0.00     0.169 HD
HETATM   16  O   UNL     1     -43.826  56.910 -55.988  1.00  0.00    -0.271 OA
BRANCH  14  17
HETATM   17  C   UNL     1     -42.470  58.250 -58.022  1.00  0.00     0.094 C 
HETATM   18  C   UNL     1     -43.087  58.134 -59.253  1.00  0.00     0.080 C 
HETATM   19  C   UNL     1     -43.692  59.414 -59.619  1.00  0.00    -0.030 C 
HETATM   20  C   UNL     1     -44.503  59.658 -60.859  1.00  0.00     0.050 C 
HETATM   21  C   UNL     1     -43.398  60.405 -58.688  1.00  0.00    -0.012 C 
HETATM   22  S   UNL     1     -42.383  59.835 -57.441  1.00  0.00    -0.076 SA
HETATM   23  C   UNL     1     -43.823  61.841 -58.691  1.00  0.00     0.057 C 
BRANCH  18  24
HETATM   24  C   UNL     1     -43.029  56.897 -60.052  1.00  0.00     0.296 C 
HETATM   25  O   UNL     1     -41.981  56.313 -60.313  1.00  0.00    -0.259 OA
BRANCH  24  26
HETATM   26  O   UNL     1     -44.244  56.515 -60.538  1.00  0.00    -0.322 OA
HETATM   27  C   UNL     1     -44.605  55.156 -60.284  1.00  0.00     0.213 C 
ENDBRANCH  24  26
ENDBRANCH  18  24
ENDBRANCH  14  17
ENDBRANCH  12  13
ENDBRANCH   1  12
BRANCH   3  28
HETATM   28  C   UNL     1     -41.842  54.838 -51.839  1.00  0.00     0.009 A 
HETATM   29  C   UNL     1     -41.276  53.588 -52.189  1.00  0.00     0.076 A 
HETATM   30  C   UNL     1     -40.634  52.805 -51.225  1.00  0.00     0.040 A 
HETATM   31  C   UNL     1     -40.545  53.249 -49.907  1.00  0.00     0.039 A 
HETATM   32  C   UNL     1     -41.092  54.473 -49.539  1.00  0.00     0.069 A 
HETATM   33  C   UNL     1     -41.716  55.264 -50.506  1.00  0.00     0.048 A 
BRANCH  29  34
HETATM   34  O   UNL     1     -41.338  53.243 -53.516  1.00  0.00    -0.355 OA
HETATM   35  C   UNL     1     -40.219  52.530 -54.043  1.00  0.00     0.210 C 
ENDBRANCH  29  34
BRANCH  32  36
HETATM   36  O   UNL     1     -40.920  54.810 -48.226  1.00  0.00    -0.356 OA
HETATM   37  C   UNL     1     -40.181  53.897 -47.423  1.00  0.00     0.210 C 
ENDBRANCH  32  36
ENDBRANCH   3  28
BRANCH   5  38
HETATM   38  O   UNL     1     -41.702  58.379 -51.389  1.00  0.00    -0.389 OA
HETATM   39  H   UNL     1     -42.067  57.841 -50.661  1.00  0.00     0.210 HD
ENDBRANCH   5  38
TORSDOF 9
ENDMDL
MODEL 6
REMARK VINA RESULT:      -7.3      3.503      8.279
REMARK  9 active torsions:
REMARK  status: ('A' for Active; 'I' for Inactive)
REMARK    1  A    between atoms: C_3  and  C_4 
REMARK    2  A    between atoms: C_4  and  O_5 
REMARK    3  A    between atoms: C_8  and  N_9 
REMARK       I    between atoms: N_9  and  C_10 
REMARK    4  A    between atoms: C_10  and  C_11 
REMARK    5  A    between atoms: C_11  and  N_12 
REMARK    6  A    between atoms: C_14  and  C_15 
REMARK    7  A    between atoms: C_16  and  O_17 
REMARK    8  A    between atoms: C_21  and  O_22 
REMARK    9  A    between atoms: C_26  and  O_27 
ROOT
HETATM    1  N   UNL     1     -42.778  56.985 -53.970  1.00  0.00    -0.054 N 
HETATM    2  H   UNL     1     -43.321  57.846 -54.117  1.00  0.00     0.281 HD
HETATM    3  C   UNL     1     -42.023  57.308 -52.671  1.00  0.00     0.231 C 
HETATM    4  C   UNL     1     -41.661  56.012 -51.888  1.00  0.00     0.055 C 
HETATM    5  C   UNL     1     -42.714  54.887 -51.853  1.00  0.00     0.065 C 
HETATM    6  C   UNL     1     -43.273  54.640 -53.252  1.00  0.00     0.066 C 
HETATM    7  C   UNL     1     -43.822  55.919 -53.857  1.00  0.00     0.239 C 
HETATM    8  C   UNL     1     -41.084  56.278 -50.488  1.00  0.00     0.010 C 
HETATM    9  C   UNL     1     -40.464  55.004 -49.909  1.00  0.00     0.001 C 
HETATM   10  C   UNL     1     -41.438  53.829 -49.910  1.00  0.00     0.003 C 
HETATM   11  C   UNL     1     -42.076  53.601 -51.285  1.00  0.00     0.038 C 
ENDROOT
BRANCH   1  12
HETATM   12  C   UNL     1     -41.913  56.961 -55.238  1.00  0.00     0.338 C 
BRANCH  12  13
HETATM   13  C   UNL     1     -42.329  57.902 -56.364  1.00  0.00     0.248 C 
HETATM   14  N   UNL     1     -42.512  57.275 -57.588  1.00  0.00    -0.319 N 
HETATM   15  H   UNL     1     -41.944  56.472 -57.828  1.00  0.00     0.169 HD
HETATM   16  O   UNL     1     -42.396  59.115 -56.172  1.00  0.00    -0.271 OA
BRANCH  14  17
HETATM   17  C   UNL     1     -42.976  58.005 -58.663  1.00  0.00     0.094 C 
HETATM   18  C   UNL     1     -44.242  58.378 -59.075  1.00  0.00     0.080 C 
HETATM   19  C   UNL     1     -44.136  59.299 -60.206  1.00  0.00    -0.030 C 
HETATM   20  C   UNL     1     -45.298  59.966 -60.883  1.00  0.00     0.050 C 
HETATM   21  C   UNL     1     -42.815  59.464 -60.612  1.00  0.00    -0.012 C 
HETATM   22  S   UNL     1     -41.738  58.502 -59.701  1.00  0.00    -0.076 SA
HETATM   23  C   UNL     1     -42.281  60.314 -61.722  1.00  0.00     0.057 C 
BRANCH  18  24
HETATM   24  C   UNL     1     -45.465  57.824 -58.468  1.00  0.00     0.296 C 
HETATM   25  O   UNL     1     -45.730  57.928 -57.273  1.00  0.00    -0.259 OA
BRANCH  24  26
HETATM   26  O   UNL     1     -46.227  57.116 -59.348  1.00  0.00    -0.322 OA
HETATM   27  C   UNL     1     -45.608  55.949 -59.894  1.00  0.00     0.213 C 
ENDBRANCH  24  26
ENDBRANCH  18  24
ENDBRANCH  14  17
ENDBRANCH  12  13
ENDBRANCH   1  12
BRANCH   3  28
HETATM   28  C   UNL     1     -42.676  58.505 -51.975  1.00  0.00     0.009 A 
HETATM   29  C   UNL     1     -41.872  59.596 -51.563  1.00  0.00     0.076 A 
HETATM   30  C   UNL     1     -42.453  60.724 -50.977  1.00  0.00     0.040 A 
HETATM   31  C   UNL     1     -43.833  60.786 -50.792  1.00  0.00     0.039 A 
HETATM   32  C   UNL     1     -44.643  59.730 -51.188  1.00  0.00     0.069 A 
HETATM   33  C   UNL     1     -44.066  58.610 -51.792  1.00  0.00     0.048 A 
BRANCH  29  34
HETATM   34  O   UNL     1     -40.531  59.499 -51.836  1.00  0.00    -0.355 OA
HETATM   35  C   UNL     1     -39.647  59.532 -50.715  1.00  0.00     0.210 C 
ENDBRANCH  29  34
BRANCH  32  36
HETATM   36  O   UNL     1     -45.981  59.917 -50.977  1.00  0.00    -0.356 OA
HETATM   37  C   UNL     1     -46.691  60.638 -51.978  1.00  0.00     0.210 C 
ENDBRANCH  32  36
ENDBRANCH   3  28
BRANCH   5  38
HETATM   38  O   UNL     1     -43.822  55.254 -51.037  1.00  0.00    -0.389 OA
HETATM   39  H   UNL     1     -43.687  56.151 -50.675  1.00  0.00     0.210 HD
ENDBRANCH   5  38
TORSDOF 9
ENDMDL
MODEL 7
REMARK VINA RESULT:      -7.2      3.289      8.232
REMARK  9 active torsions:
REMARK  status: ('A' for Active; 'I' for Inactive)
REMARK    1  A    between atoms: C_3  and  C_4 
REMARK    2  A    between atoms: C_4  and  O_5 
REMARK    3  A    between atoms: C_8  and  N_9 
REMARK       I    between atoms: N_9  and  C_10 
REMARK    4  A    between atoms: C_10  and  C_11 
REMARK    5  A    between atoms: C_11  and  N_12 
REMARK    6  A    between atoms: C_14  and  C_15 
REMARK    7  A    between atoms: C_16  and  O_17 
REMARK    8  A    between atoms: C_21  and  O_22 
REMARK    9  A    between atoms: C_26  and  O_27 
ROOT
HETATM    1  N   UNL     1     -42.740  56.842 -53.694  1.00  0.00    -0.054 N 
HETATM    2  H   UNL     1     -43.292  57.704 -53.796  1.00  0.00     0.281 HD
HETATM    3  C   UNL     1     -41.859  57.175 -52.480  1.00  0.00     0.231 C 
HETATM    4  C   UNL     1     -41.426  55.885 -51.723  1.00  0.00     0.055 C 
HETATM    5  C   UNL     1     -42.475  54.766 -51.572  1.00  0.00     0.065 C 
HETATM    6  C   UNL     1     -43.171  54.507 -52.905  1.00  0.00     0.066 C 
HETATM    7  C   UNL     1     -43.772  55.782 -53.466  1.00  0.00     0.239 C 
HETATM    8  C   UNL     1     -40.711  56.163 -50.390  1.00  0.00     0.010 C 
HETATM    9  C   UNL     1     -40.042  54.892 -49.862  1.00  0.00     0.001 C 
HETATM   10  C   UNL     1     -41.016  53.722 -49.753  1.00  0.00     0.003 C 
HETATM   11  C   UNL     1     -41.789  53.483 -51.055  1.00  0.00     0.038 C 
ENDROOT
BRANCH   1  12
HETATM   12  C   UNL     1     -42.006  56.800 -55.041  1.00  0.00     0.338 C 
BRANCH  12  13
HETATM   13  C   UNL     1     -42.839  57.110 -56.281  1.00  0.00     0.248 C 
HETATM   14  N   UNL     1     -43.345  58.401 -56.317  1.00  0.00    -0.319 N 
HETATM   15  H   UNL     1     -43.594  58.864 -55.452  1.00  0.00     0.169 HD
HETATM   16  O   UNL     1     -43.085  56.229 -57.104  1.00  0.00    -0.271 OA
BRANCH  14  17
HETATM   17  C   UNL     1     -44.038  58.829 -57.430  1.00  0.00     0.094 C 
HETATM   18  C   UNL     1     -43.641  59.245 -58.687  1.00  0.00     0.080 C 
HETATM   19  C   UNL     1     -44.819  59.427 -59.536  1.00  0.00    -0.030 C 
HETATM   20  C   UNL     1     -44.781  59.813 -60.986  1.00  0.00     0.050 C 
HETATM   21  C   UNL     1     -45.999  59.230 -58.825  1.00  0.00    -0.012 C 
HETATM   22  S   UNL     1     -45.709  58.892 -57.177  1.00  0.00    -0.076 SA
HETATM   23  C   UNL     1     -47.409  59.319 -59.319  1.00  0.00     0.057 C 
BRANCH  18  24
HETATM   24  C   UNL     1     -42.233  59.521 -59.019  1.00  0.00     0.296 C 
HETATM   25  O   UNL     1     -41.812  60.643 -59.289  1.00  0.00    -0.259 OA
BRANCH  24  26
HETATM   26  O   UNL     1     -41.465  58.396 -59.078  1.00  0.00    -0.322 OA
HETATM   27  C   UNL     1     -41.773  57.500 -60.149  1.00  0.00     0.213 C 
ENDBRANCH  24  26
ENDBRANCH  18  24
ENDBRANCH  14  17
ENDBRANCH  12  13
ENDBRANCH   1  12
BRANCH   3  28
HETATM   28  C   UNL     1     -42.435  58.382 -51.736  1.00  0.00     0.009 A 
HETATM   29  C   UNL     1     -41.583  59.460 -51.392  1.00  0.00     0.076 A 
HETATM   30  C   UNL     1     -42.097  60.598 -50.763  1.00  0.00     0.040 A 
HETATM   31  C   UNL     1     -43.456  60.682 -50.468  1.00  0.00     0.039 A 
HETATM   32  C   UNL     1     -44.313  59.639 -50.797  1.00  0.00     0.069 A 
HETATM   33  C   UNL     1     -43.804  58.510 -51.443  1.00  0.00     0.048 A 
BRANCH  29  34
HETATM   34  O   UNL     1     -40.269  59.342 -51.772  1.00  0.00    -0.355 OA
HETATM   35  C   UNL     1     -39.292  59.485 -50.741  1.00  0.00     0.210 C 
ENDBRANCH  29  34
BRANCH  32  36
HETATM   36  O   UNL     1     -45.625  59.848 -50.479  1.00  0.00    -0.356 OA
HETATM   37  C   UNL     1     -46.419  60.521 -51.450  1.00  0.00     0.210 C 
ENDBRANCH  32  36
ENDBRANCH   3  28
BRANCH   5  38
HETATM   38  O   UNL     1     -43.495  55.147 -50.654  1.00  0.00    -0.389 OA
HETATM   39  H   UNL     1     -44.198  55.639 -51.121  1.00  0.00     0.210 HD
ENDBRANCH   5  38
TORSDOF 9
ENDMDL
MODEL 8
REMARK VINA RESULT:      -7.2      3.160      8.715
REMARK  9 active torsions:
REMARK  status: ('A' for Active; 'I' for Inactive)
REMARK    1  A    between atoms: C_3  and  C_4 
REMARK    2  A    between atoms: C_4  and  O_5 
REMARK    3  A    between atoms: C_8  and  N_9 
REMARK       I    between atoms: N_9  and  C_10 
REMARK    4  A    between atoms: C_10  and  C_11 
REMARK    5  A    between atoms: C_11  and  N_12 
REMARK    6  A    between atoms: C_14  and  C_15 
REMARK    7  A    between atoms: C_16  and  O_17 
REMARK    8  A    between atoms: C_21  and  O_22 
REMARK    9  A    between atoms: C_26  and  O_27 
ROOT
HETATM    1  N   UNL     1     -42.931  57.348 -54.195  1.00  0.00    -0.054 N 
HETATM    2  H   UNL     1     -42.282  56.551 -54.227  1.00  0.00     0.281 HD
HETATM    3  C   UNL     1     -43.754  57.034 -52.936  1.00  0.00     0.231 C 
HETATM    4  C   UNL     1     -44.328  58.333 -52.296  1.00  0.00     0.055 C 
HETATM    5  C   UNL     1     -43.417  59.576 -52.274  1.00  0.00     0.065 C 
HETATM    6  C   UNL     1     -42.771  59.784 -53.641  1.00  0.00     0.066 C 
HETATM    7  C   UNL     1     -42.029  58.539 -54.092  1.00  0.00     0.239 C 
HETATM    8  C   UNL     1     -44.991  58.104 -50.927  1.00  0.00     0.010 C 
HETATM    9  C   UNL     1     -45.800  59.334 -50.508  1.00  0.00     0.001 C 
HETATM   10  C   UNL     1     -44.969  60.614 -50.532  1.00  0.00     0.003 C 
HETATM   11  C   UNL     1     -44.244  60.814 -51.867  1.00  0.00     0.038 C 
ENDROOT
BRANCH   1  12
HETATM   12  C   UNL     1     -43.679  57.174 -55.524  1.00  0.00     0.338 C 
BRANCH  12  13
HETATM   13  C   UNL     1     -42.978  57.694 -56.774  1.00  0.00     0.248 C 
HETATM   14  N   UNL     1     -43.471  58.904 -57.240  1.00  0.00    -0.319 N 
HETATM   15  H   UNL     1     -44.453  59.122 -57.123  1.00  0.00     0.169 HD
HETATM   16  O   UNL     1     -42.117  57.018 -57.334  1.00  0.00    -0.271 OA
BRANCH  14  17
HETATM   17  C   UNL     1     -42.859  59.522 -58.311  1.00  0.00     0.094 C 
HETATM   18  C   UNL     1     -42.950  59.348 -59.679  1.00  0.00     0.080 C 
HETATM   19  C   UNL     1     -42.195  60.401 -60.357  1.00  0.00    -0.030 C 
HETATM   20  C   UNL     1     -42.113  60.576 -61.846  1.00  0.00     0.050 C 
HETATM   21  C   UNL     1     -41.522  61.215 -59.451  1.00  0.00    -0.012 C 
HETATM   22  S   UNL     1     -41.744  60.701 -57.838  1.00  0.00    -0.076 SA
HETATM   23  C   UNL     1     -40.647  62.396 -59.732  1.00  0.00     0.057 C 
BRANCH  18  24
HETATM   24  C   UNL     1     -43.652  58.202 -60.284  1.00  0.00     0.296 C 
HETATM   25  O   UNL     1     -43.079  57.179 -60.652  1.00  0.00    -0.259 OA
BRANCH  24  26
HETATM   26  O   UNL     1     -44.984  58.426 -60.470  1.00  0.00    -0.322 OA
HETATM   27  C   UNL     1     -45.857  57.592 -59.706  1.00  0.00     0.213 C 
ENDBRANCH  24  26
ENDBRANCH  18  24
ENDBRANCH  14  17
ENDBRANCH  12  13
ENDBRANCH   1  12
BRANCH   3  28
HETATM   28  C   UNL     1     -43.032  55.980 -52.093  1.00  0.00     0.009 A 
HETATM   29  C   UNL     1     -42.868  54.670 -52.607  1.00  0.00     0.076 A 
HETATM   30  C   UNL     1     -42.162  53.707 -51.880  1.00  0.00     0.040 A 
HETATM   31  C   UNL     1     -41.612  54.027 -50.641  1.00  0.00     0.039 A 
HETATM   32  C   UNL     1     -41.757  55.306 -50.116  1.00  0.00     0.069 A 
HETATM   33  C   UNL     1     -42.445  56.274 -50.850  1.00  0.00     0.048 A 
BRANCH  29  34
HETATM   34  O   UNL     1     -43.375  54.442 -53.861  1.00  0.00    -0.355 OA
HETATM   35  C   UNL     1     -42.497  53.820 -54.801  1.00  0.00     0.210 C 
ENDBRANCH  29  34
BRANCH  32  36
HETATM   36  O   UNL     1     -41.154  55.505 -48.907  1.00  0.00    -0.356 OA
HETATM   37  C   UNL     1     -40.615  54.356 -48.263  1.00  0.00     0.210 C 
ENDBRANCH  32  36
ENDBRANCH   3  28
BRANCH   5  38
HETATM   38  O   UNL     1     -42.349  59.406 -51.347  1.00  0.00    -0.389 OA
HETATM   39  H   UNL     1     -42.694  59.427 -50.434  1.00  0.00     0.210 HD
ENDBRANCH   5  38
TORSDOF 9
ENDMDL
MODEL 9
REMARK VINA RESULT:      -6.9      2.098      2.739
REMARK  9 active torsions:
REMARK  status: ('A' for Active; 'I' for Inactive)
REMARK    1  A    between atoms: C_3  and  C_4 
REMARK    2  A    between atoms: C_4  and  O_5 
REMARK    3  A    between atoms: C_8  and  N_9 
REMARK       I    between atoms: N_9  and  C_10 
REMARK    4  A    between atoms: C_10  and  C_11 
REMARK    5  A    between atoms: C_11  and  N_12 
REMARK    6  A    between atoms: C_14  and  C_15 
REMARK    7  A    between atoms: C_16  and  O_17 
REMARK    8  A    between atoms: C_21  and  O_22 
REMARK    9  A    between atoms: C_26  and  O_27 
ROOT
HETATM    1  N   UNL     1     -43.558  57.077 -57.430  1.00  0.00    -0.054 N 
HETATM    2  H   UNL     1     -42.693  57.594 -57.223  1.00  0.00     0.281 HD
HETATM    3  C   UNL     1     -44.384  58.132 -58.182  1.00  0.00     0.231 C 
HETATM    4  C   UNL     1     -45.405  57.468 -59.151  1.00  0.00     0.055 C 
HETATM    5  C   UNL     1     -44.937  56.223 -59.931  1.00  0.00     0.065 C 
HETATM    6  C   UNL     1     -44.233  55.245 -58.996  1.00  0.00     0.066 C 
HETATM    7  C   UNL     1     -43.092  55.918 -58.256  1.00  0.00     0.239 C 
HETATM    8  C   UNL     1     -46.119  58.469 -60.076  1.00  0.00     0.010 C 
HETATM    9  C   UNL     1     -47.315  57.808 -60.765  1.00  0.00     0.001 C 
HETATM   10  C   UNL     1     -46.929  56.527 -61.501  1.00  0.00     0.003 C 
HETATM   11  C   UNL     1     -46.152  55.553 -60.609  1.00  0.00     0.038 C 
ENDROOT
BRANCH   1  12
HETATM   12  C   UNL     1     -44.053  56.749 -56.015  1.00  0.00     0.338 C 
BRANCH  12  13
HETATM   13  C   UNL     1     -43.016  56.811 -54.899  1.00  0.00     0.248 C 
HETATM   14  N   UNL     1     -43.544  57.093 -53.647  1.00  0.00    -0.319 N 
HETATM   15  H   UNL     1     -44.357  57.692 -53.572  1.00  0.00     0.169 HD
HETATM   16  O   UNL     1     -41.818  56.702 -55.153  1.00  0.00    -0.271 OA
BRANCH  14  17
HETATM   17  C   UNL     1     -42.718  57.086 -52.542  1.00  0.00     0.094 C 
HETATM   18  C   UNL     1     -42.348  56.101 -51.646  1.00  0.00     0.080 C 
HETATM   19  C   UNL     1     -41.304  56.614 -50.759  1.00  0.00    -0.030 C 
HETATM   20  C   UNL     1     -40.610  55.813 -49.696  1.00  0.00     0.050 C 
HETATM   21  C   UNL     1     -41.048  57.961 -50.995  1.00  0.00    -0.012 C 
HETATM   22  S   UNL     1     -42.063  58.608 -52.204  1.00  0.00    -0.076 SA
HETATM   23  C   UNL     1     -40.060  58.854 -50.310  1.00  0.00     0.057 C 
BRANCH  18  24
HETATM   24  C   UNL     1     -43.010  54.785 -51.601  1.00  0.00     0.296 C 
HETATM   25  O   UNL     1     -43.565  54.345 -50.597  1.00  0.00    -0.259 OA
BRANCH  24  26
HETATM   26  O   UNL     1     -42.873  54.075 -52.757  1.00  0.00    -0.322 OA
HETATM   27  C   UNL     1     -41.555  53.592 -53.025  1.00  0.00     0.213 C 
ENDBRANCH  24  26
ENDBRANCH  18  24
ENDBRANCH  14  17
ENDBRANCH  12  13
ENDBRANCH   1  12
BRANCH   3  28
HETATM   28  C   UNL     1     -43.472  59.273 -58.642  1.00  0.00     0.009 A 
HETATM   29  C   UNL     1     -43.017  60.226 -57.698  1.00  0.00     0.076 A 
HETATM   30  C   UNL     1     -42.138  61.243 -58.083  1.00  0.00     0.040 A 
HETATM   31  C   UNL     1     -41.700  61.328 -59.403  1.00  0.00     0.039 A 
HETATM   32  C   UNL     1     -42.130  60.404 -60.348  1.00  0.00     0.069 A 
HETATM   33  C   UNL     1     -42.993  59.376 -59.960  1.00  0.00     0.048 A 
BRANCH  29  34
HETATM   34  O   UNL     1     -43.433  60.043 -56.403  1.00  0.00    -0.355 OA
HETATM   35  C   UNL     1     -42.544  60.493 -55.379  1.00  0.00     0.210 C 
ENDBRANCH  29  34
BRANCH  32  36
HETATM   36  O   UNL     1     -41.613  60.577 -61.601  1.00  0.00    -0.356 OA
HETATM   37  C   UNL     1     -41.472  61.918 -62.055  1.00  0.00     0.210 C 
ENDBRANCH  32  36
ENDBRANCH   3  28
BRANCH   5  38
HETATM   38  O   UNL     1     -43.987  56.579 -60.931  1.00  0.00    -0.389 OA
HETATM   39  H   UNL     1     -43.963  55.895 -61.627  1.00  0.00     0.210 HD
ENDBRANCH   5  38
TORSDOF 9
ENDMDL
MODEL 10
REMARK VINA RESULT:      -6.7     16.193     19.211
REMARK  9 active torsions:
REMARK  status: ('A' for Active; 'I' for Inactive)
REMARK    1  A    between atoms: C_3  and  C_4 
REMARK    2  A    between atoms: C_4  and  O_5 
REMARK    3  A    between atoms: C_8  and  N_9 
REMARK       I    between atoms: N_9  and  C_10 
REMARK    4  A    between atoms: C_10  and  C_11 
REMARK    5  A    between atoms: C_11  and  N_12 
REMARK    6  A    between atoms: C_14  and  C_15 
REMARK    7  A    between atoms: C_16  and  O_17 
REMARK    8  A    between atoms: C_21  and  O_22 
REMARK    9  A    between atoms: C_26  and  O_27 
ROOT
HETATM    1  N   UNL     1     -37.083  41.001 -54.168  1.00  0.00    -0.054 N 
HETATM    2  H   UNL     1     -37.779  41.398 -54.813  1.00  0.00     0.281 HD
HETATM    3  C   UNL     1     -36.451  39.896 -55.029  1.00  0.00     0.231 C 
HETATM    4  C   UNL     1     -34.992  39.590 -54.578  1.00  0.00     0.055 C 
HETATM    5  C   UNL     1     -34.109  40.787 -54.172  1.00  0.00     0.065 C 
HETATM    6  C   UNL     1     -34.874  41.716 -53.234  1.00  0.00     0.066 C 
HETATM    7  C   UNL     1     -36.188  42.159 -53.851  1.00  0.00     0.239 C 
HETATM    8  C   UNL     1     -34.241  38.639 -55.524  1.00  0.00     0.010 C 
HETATM    9  C   UNL     1     -32.952  38.135 -54.871  1.00  0.00     0.001 C 
HETATM   10  C   UNL     1     -32.062  39.275 -54.383  1.00  0.00     0.003 C 
HETATM   11  C   UNL     1     -32.820  40.271 -53.499  1.00  0.00     0.038 C 
ENDROOT
BRANCH   1  12
HETATM   12  C   UNL     1     -37.984  40.505 -53.029  1.00  0.00     0.338 C 
BRANCH  12  13
HETATM   13  C   UNL     1     -37.343  39.563 -52.015  1.00  0.00     0.248 C 
HETATM   14  N   UNL     1     -37.130  40.131 -50.768  1.00  0.00    -0.319 N 
HETATM   15  H   UNL     1     -36.914  41.117 -50.698  1.00  0.00     0.169 HD
HETATM   16  O   UNL     1     -36.984  38.435 -52.351  1.00  0.00    -0.271 OA
BRANCH  14  17
HETATM   17  C   UNL     1     -36.639  39.352 -49.740  1.00  0.00     0.094 C 
HETATM   18  C   UNL     1     -35.361  39.002 -49.348  1.00  0.00     0.080 C 
HETATM   19  C   UNL     1     -35.420  38.283 -48.075  1.00  0.00    -0.030 C 
HETATM   20  C   UNL     1     -34.225  37.798 -47.307  1.00  0.00     0.050 C 
HETATM   21  C   UNL     1     -36.733  38.067 -47.669  1.00  0.00    -0.012 C 
HETATM   22  S   UNL     1     -37.863  38.658 -48.802  1.00  0.00    -0.076 SA
HETATM   23  C   UNL     1     -37.223  37.376 -46.434  1.00  0.00     0.057 C 
BRANCH  18  24
HETATM   24  C   UNL     1     -34.177  39.275 -50.181  1.00  0.00     0.296 C 
HETATM   25  O   UNL     1     -33.612  40.365 -50.212  1.00  0.00    -0.259 OA
BRANCH  24  26
HETATM   26  O   UNL     1     -33.824  38.223 -50.974  1.00  0.00    -0.322 OA
HETATM   27  C   UNL     1     -32.467  37.793 -50.851  1.00  0.00     0.213 C 
ENDBRANCH  24  26
ENDBRANCH  18  24
ENDBRANCH  14  17
ENDBRANCH  12  13
ENDBRANCH   1  12
BRANCH   3  28
HETATM   28  C   UNL     1     -36.800  40.124 -56.502  1.00  0.00     0.009 A 
HETATM   29  C   UNL     1     -37.295  39.045 -57.275  1.00  0.00     0.076 A 
HETATM   30  C   UNL     1     -37.674  39.241 -58.607  1.00  0.00     0.040 A 
HETATM   31  C   UNL     1     -37.568  40.504 -59.187  1.00  0.00     0.039 A 
HETATM   32  C   UNL     1     -37.087  41.578 -58.449  1.00  0.00     0.069 A 
HETATM   33  C   UNL     1     -36.726  41.387 -57.113  1.00  0.00     0.048 A 
BRANCH  29  34
HETATM   34  O   UNL     1     -37.438  37.846 -56.623  1.00  0.00    -0.355 OA
HETATM   35  C   UNL     1     -36.853  36.704 -57.252  1.00  0.00     0.210 C 
ENDBRANCH  29  34
BRANCH  32  36
HETATM   36  O   UNL     1     -37.052  42.769 -59.119  1.00  0.00    -0.356 OA
HETATM   37  C   UNL     1     -37.445  42.745 -60.486  1.00  0.00     0.210 C 
ENDBRANCH  32  36
ENDBRANCH   3  28
BRANCH   5  38
HETATM   38  O   UNL     1     -33.757  41.567 -55.311  1.00  0.00    -0.389 OA
HETATM   39  H   UNL     1     -34.558  41.963 -55.705  1.00  0.00     0.210 HD
ENDBRANCH   5  38
TORSDOF 9
ENDMDL
