MODEL 1
REMARK VINA RESULT:      -7.7      0.000      0.000
REMARK  7 active torsions:
REMARK  status: ('A' for Active; 'I' for Inactive)
REMARK    1  A    between atoms: C_2  and  C_3 
REMARK    2  A    between atoms: C_3  and  O_4 
REMARK    3  A    between atoms: O_4  and  C_5 
REMARK    4  A    between atoms: C_9  and  C_10 
REMARK    5  A    between atoms: C_10  and  N_11 
REMARK    6  A    between atoms: N_11  and  C_12 
REMARK    7  A    between atoms: C_19  and  C_20 
REMARK       I    between atoms: C_20  and  N_21 
ROOT
HETATM    1  C   UNL     1     -42.691  56.673 -56.871  1.00  0.00     0.009 A 
HETATM    2  C   UNL     1     -43.298  55.957 -57.920  1.00  0.00     0.039 A 
HETATM    3  C   UNL     1     -44.139  56.613 -58.844  1.00  0.00     0.030 A 
HETATM    4  C   UNL     1     -44.384  57.967 -58.676  1.00  0.00     0.063 A 
HETATM    5  N   UNL     1     -45.224  58.315 -59.695  1.00  0.00    -0.277 N 
HETATM    6  H   UNL     1     -45.616  59.231 -59.883  1.00  0.00     0.189 HD
HETATM    7  N   UNL     1     -45.547  57.303 -60.520  1.00  0.00    -0.168 NA
HETATM    8  C   UNL     1     -44.883  56.243 -60.003  1.00  0.00     0.156 A 
HETATM    9  C   UNL     1     -43.839  58.711 -57.628  1.00  0.00     0.034 A 
HETATM   10  C   UNL     1     -43.003  58.032 -56.729  1.00  0.00     0.026 A 
ENDROOT
BRANCH   1  11
HETATM   11  N   UNL     1     -41.922  55.959 -55.942  1.00  0.00    -0.289 NA
HETATM   12  H   UNL     1     -40.945  55.902 -56.226  1.00  0.00     0.128 HD
BRANCH  11  13
HETATM   13  C   UNL     1     -42.066  56.247 -54.524  1.00  0.00     0.131 C 
BRANCH  13  14
HETATM   14  C   UNL     1     -41.417  55.148 -53.714  1.00  0.00    -0.043 A 
HETATM   15  C   UNL     1     -41.016  53.950 -54.318  1.00  0.00     0.035 A 
HETATM   16  C   UNL     1     -40.385  52.954 -53.564  1.00  0.00     0.068 A 
HETATM   17  C   UNL     1     -40.137  53.140 -52.196  1.00  0.00     0.090 A 
HETATM   18 CL   UNL     1     -39.897  51.508 -54.379  1.00  0.00    -0.081 Cl
HETATM   19  C   UNL     1     -40.573  54.319 -51.584  1.00  0.00     0.039 A 
HETATM   20  C   UNL     1     -41.204  55.314 -52.339  1.00  0.00     0.011 A 
BRANCH  17  21
HETATM   21  O   UNL     1     -39.508  52.126 -51.522  1.00  0.00    -0.346 OA
BRANCH  21  22
HETATM   22  C   UNL     1     -40.295  51.443 -50.547  1.00  0.00     0.202 C 
BRANCH  22  23
HETATM   23  C   UNL     1     -39.863  50.007 -50.549  1.00  0.00    -0.011 C 
HETATM   24  C   UNL     1     -39.671  49.265 -51.647  1.00  0.00     0.009 C 
ENDBRANCH  22  23
ENDBRANCH  21  22
ENDBRANCH  17  21
ENDBRANCH  13  14
ENDBRANCH  11  13
ENDBRANCH   1  11
BRANCH   8  25
HETATM   25  C   UNL     1     -44.970  54.913 -60.620  1.00  0.00     0.270 C 
HETATM   26  N   UNL     1     -45.099  53.888 -59.722  1.00  0.00    -0.365 N 
HETATM   27  H   UNL     1     -45.128  54.110 -58.735  1.00  0.00     0.159 HD
HETATM   28  H   UNL     1     -45.171  52.939 -60.052  1.00  0.00     0.159 HD
HETATM   29  O   UNL     1     -44.937  54.701 -61.828  1.00  0.00    -0.266 OA
ENDBRANCH   8  25
TORSDOF 7
ENDMDL
MODEL 2
REMARK VINA RESULT:      -7.7      4.423      6.563
REMARK  7 active torsions:
REMARK  status: ('A' for Active; 'I' for Inactive)
REMARK    1  A    between atoms: C_2  and  C_3 
REMARK    2  A    between atoms: C_3  and  O_4 
REMARK    3  A    between atoms: O_4  and  C_5 
REMARK    4  A    between atoms: C_9  and  C_10 
REMARK    5  A    between atoms: C_10  and  N_11 
REMARK    6  A    between atoms: N_11  and  C_12 
REMARK    7  A    between atoms: C_19  and  C_20 
REMARK       I    between atoms: C_20  and  N_21 
ROOT
HETATM    1  C   UNL     1     -42.942  57.198 -53.206  1.00  0.00     0.009 A 
HETATM    2  C   UNL     1     -41.670  57.726 -52.914  1.00  0.00     0.039 A 
HETATM    3  C   UNL     1     -41.498  58.637 -51.850  1.00  0.00     0.030 A 
HETATM    4  C   UNL     1     -42.613  59.028 -51.123  1.00  0.00     0.063 A 
HETATM    5  N   UNL     1     -42.146  59.904 -50.185  1.00  0.00    -0.277 N 
HETATM    6  H   UNL     1     -42.686  60.395 -49.480  1.00  0.00     0.189 HD
HETATM    7  N   UNL     1     -40.820  60.118 -50.233  1.00  0.00    -0.168 NA
HETATM    8  C   UNL     1     -40.407  59.341 -51.261  1.00  0.00     0.156 A 
HETATM    9  C   UNL     1     -43.900  58.564 -51.400  1.00  0.00     0.034 A 
HETATM   10  C   UNL     1     -44.037  57.656 -52.461  1.00  0.00     0.026 A 
ENDROOT
BRANCH   1  11
HETATM   11  N   UNL     1     -43.066  56.352 -54.317  1.00  0.00    -0.289 NA
HETATM   12  H   UNL     1     -42.249  56.404 -54.923  1.00  0.00     0.128 HD
BRANCH  11  13
HETATM   13  C   UNL     1     -43.523  54.985 -54.125  1.00  0.00     0.131 C 
BRANCH  13  14
HETATM   14  C   UNL     1     -42.353  54.109 -53.736  1.00  0.00    -0.043 A 
HETATM   15  C   UNL     1     -41.802  54.172 -52.450  1.00  0.00     0.035 A 
HETATM   16  C   UNL     1     -40.742  53.333 -52.092  1.00  0.00     0.068 A 
HETATM   17  C   UNL     1     -40.218  52.410 -53.009  1.00  0.00     0.090 A 
HETATM   18 CL   UNL     1     -40.125  53.449 -50.480  1.00  0.00    -0.081 Cl
HETATM   19  C   UNL     1     -40.741  52.374 -54.306  1.00  0.00     0.039 A 
HETATM   20  C   UNL     1     -41.802  53.214 -54.662  1.00  0.00     0.011 A 
BRANCH  17  21
HETATM   21  O   UNL     1     -39.185  51.613 -52.588  1.00  0.00    -0.346 OA
BRANCH  21  22
HETATM   22  C   UNL     1     -39.478  50.220 -52.477  1.00  0.00     0.202 C 
BRANCH  22  23
HETATM   23  C   UNL     1     -39.364  49.853 -51.028  1.00  0.00    -0.011 C 
HETATM   24  C   UNL     1     -40.318  50.054 -50.109  1.00  0.00     0.009 C 
ENDBRANCH  22  23
ENDBRANCH  21  22
ENDBRANCH  17  21
ENDBRANCH  13  14
ENDBRANCH  11  13
ENDBRANCH   1  11
BRANCH   8  25
HETATM   25  C   UNL     1     -38.993  59.284 -51.656  1.00  0.00     0.270 C 
HETATM   26  N   UNL     1     -38.117  59.405 -50.611  1.00  0.00    -0.365 N 
HETATM   27  H   UNL     1     -38.490  59.520 -49.677  1.00  0.00     0.159 HD
HETATM   28  H   UNL     1     -37.124  59.373 -50.783  1.00  0.00     0.159 HD
HETATM   29  O   UNL     1     -38.595  59.137 -52.807  1.00  0.00    -0.266 OA
ENDBRANCH   8  25
TORSDOF 7
ENDMDL
MODEL 3
REMARK VINA RESULT:      -7.6      3.267      9.254
REMARK  7 active torsions:
REMARK  status: ('A' for Active; 'I' for Inactive)
REMARK    1  A    between atoms: C_2  and  C_3 
REMARK    2  A    between atoms: C_3  and  O_4 
REMARK    3  A    between atoms: O_4  and  C_5 
REMARK    4  A    between atoms: C_9  and  C_10 
REMARK    5  A    between atoms: C_10  and  N_11 
REMARK    6  A    between atoms: N_11  and  C_12 
REMARK    7  A    between atoms: C_19  and  C_20 
REMARK       I    between atoms: C_20  and  N_21 
ROOT
HETATM    1  C   UNL     1     -40.555  54.169 -54.467  1.00  0.00     0.009 A 
HETATM    2  C   UNL     1     -40.742  54.621 -53.148  1.00  0.00     0.039 A 
HETATM    3  C   UNL     1     -40.525  53.756 -52.054  1.00  0.00     0.030 A 
HETATM    4  C   UNL     1     -40.159  52.442 -52.309  1.00  0.00     0.063 A 
HETATM    5  N   UNL     1     -40.032  51.856 -51.081  1.00  0.00    -0.277 N 
HETATM    6  H   UNL     1     -39.780  50.894 -50.883  1.00  0.00     0.189 HD
HETATM    7  N   UNL     1     -40.280  52.675 -50.045  1.00  0.00    -0.168 NA
HETATM    8  C   UNL     1     -40.588  53.854 -50.633  1.00  0.00     0.156 A 
HETATM    9  C   UNL     1     -40.000  51.936 -53.600  1.00  0.00     0.034 A 
HETATM   10  C   UNL     1     -40.219  52.823 -54.665  1.00  0.00     0.026 A 
ENDROOT
BRANCH   1  11
HETATM   11  N   UNL     1     -40.852  55.050 -55.516  1.00  0.00    -0.289 NA
HETATM   12  H   UNL     1     -40.972  54.557 -56.400  1.00  0.00     0.128 HD
BRANCH  11  13
HETATM   13  C   UNL     1     -41.861  56.079 -55.319  1.00  0.00     0.131 C 
BRANCH  13  14
HETATM   14  C   UNL     1     -42.517  56.406 -56.642  1.00  0.00    -0.043 A 
HETATM   15  C   UNL     1     -43.038  55.393 -57.457  1.00  0.00     0.035 A 
HETATM   16  C   UNL     1     -43.673  55.711 -58.662  1.00  0.00     0.068 A 
HETATM   17  C   UNL     1     -43.806  57.046 -59.071  1.00  0.00     0.090 A 
HETATM   18 CL   UNL     1     -44.312  54.412 -59.609  1.00  0.00    -0.081 Cl
HETATM   19  C   UNL     1     -43.251  58.054 -58.277  1.00  0.00     0.039 A 
HETATM   20  C   UNL     1     -42.617  57.735 -57.072  1.00  0.00     0.011 A 
BRANCH  17  21
HETATM   21  O   UNL     1     -44.447  57.285 -60.259  1.00  0.00    -0.346 OA
BRANCH  21  22
HETATM   22  C   UNL     1     -45.673  58.010 -60.171  1.00  0.00     0.202 C 
BRANCH  22  23
HETATM   23  C   UNL     1     -46.775  57.008 -60.001  1.00  0.00    -0.011 C 
HETATM   24  C   UNL     1     -47.505  56.494 -61.000  1.00  0.00     0.009 C 
ENDBRANCH  22  23
ENDBRANCH  21  22
ENDBRANCH  17  21
ENDBRANCH  13  14
ENDBRANCH  11  13
ENDBRANCH   1  11
BRANCH   8  25
HETATM   25  C   UNL     1     -40.931  55.039 -49.836  1.00  0.00     0.270 C 
HETATM   26  N   UNL     1     -41.010  54.803 -48.490  1.00  0.00    -0.365 N 
HETATM   27  H   UNL     1     -40.832  53.865 -48.152  1.00  0.00     0.159 HD
HETATM   28  H   UNL     1     -41.235  55.557 -47.861  1.00  0.00     0.159 HD
HETATM   29  O   UNL     1     -41.132  56.157 -50.299  1.00  0.00    -0.266 OA
ENDBRANCH   8  25
TORSDOF 7
ENDMDL
MODEL 4
REMARK VINA RESULT:      -7.6      2.682      3.698
REMARK  7 active torsions:
REMARK  status: ('A' for Active; 'I' for Inactive)
REMARK    1  A    between atoms: C_2  and  C_3 
REMARK    2  A    between atoms: C_3  and  O_4 
REMARK    3  A    between atoms: O_4  and  C_5 
REMARK    4  A    between atoms: C_9  and  C_10 
REMARK    5  A    between atoms: C_10  and  N_11 
REMARK    6  A    between atoms: N_11  and  C_12 
REMARK    7  A    between atoms: C_19  and  C_20 
REMARK       I    between atoms: C_20  and  N_21 
ROOT
HETATM    1  C   UNL     1     -43.189  56.186 -57.164  1.00  0.00     0.009 A 
HETATM    2  C   UNL     1     -42.690  57.500 -57.236  1.00  0.00     0.039 A 
HETATM    3  C   UNL     1     -42.354  58.073 -58.481  1.00  0.00     0.030 A 
HETATM    4  C   UNL     1     -42.492  57.303 -59.626  1.00  0.00     0.063 A 
HETATM    5  N   UNL     1     -42.091  58.106 -60.655  1.00  0.00    -0.277 N 
HETATM    6  H   UNL     1     -42.054  57.870 -61.641  1.00  0.00     0.189 HD
HETATM    7  N   UNL     1     -41.705  59.339 -60.282  1.00  0.00    -0.168 NA
HETATM    8  C   UNL     1     -41.861  59.331 -58.938  1.00  0.00     0.156 A 
HETATM    9  C   UNL     1     -42.945  55.983 -59.602  1.00  0.00     0.034 A 
HETATM   10  C   UNL     1     -43.274  55.444 -58.349  1.00  0.00     0.026 A 
ENDROOT
BRANCH   1  11
HETATM   11  N   UNL     1     -43.440  55.644 -55.896  1.00  0.00    -0.289 NA
HETATM   12  H   UNL     1     -43.514  54.628 -55.929  1.00  0.00     0.128 HD
BRANCH  11  13
HETATM   13  C   UNL     1     -42.659  56.101 -54.757  1.00  0.00     0.131 C 
BRANCH  13  14
HETATM   14  C   UNL     1     -41.795  54.970 -54.248  1.00  0.00    -0.043 A 
HETATM   15  C   UNL     1     -41.817  54.598 -52.897  1.00  0.00     0.035 A 
HETATM   16  C   UNL     1     -41.038  53.528 -52.445  1.00  0.00     0.068 A 
HETATM   17  C   UNL     1     -40.230  52.805 -53.334  1.00  0.00     0.090 A 
HETATM   18 CL   UNL     1     -41.130  53.110 -50.769  1.00  0.00    -0.081 Cl
HETATM   19  C   UNL     1     -40.176  53.200 -54.674  1.00  0.00     0.039 A 
HETATM   20  C   UNL     1     -40.956  54.271 -55.126  1.00  0.00     0.011 A 
BRANCH  17  21
HETATM   21  O   UNL     1     -39.499  51.763 -52.824  1.00  0.00    -0.346 OA
BRANCH  21  22
HETATM   22  C   UNL     1     -39.788  50.475 -53.367  1.00  0.00     0.202 C 
BRANCH  22  23
HETATM   23  C   UNL     1     -39.559  49.469 -52.278  1.00  0.00    -0.011 C 
HETATM   24  C   UNL     1     -39.661  49.722 -50.967  1.00  0.00     0.009 C 
ENDBRANCH  22  23
ENDBRANCH  21  22
ENDBRANCH  17  21
ENDBRANCH  13  14
ENDBRANCH  11  13
ENDBRANCH   1  11
BRANCH   8  25
HETATM   25  C   UNL     1     -41.543  60.512 -58.125  1.00  0.00     0.270 C 
HETATM   26  N   UNL     1     -41.213  61.621 -58.856  1.00  0.00    -0.365 N 
HETATM   27  H   UNL     1     -41.214  61.552 -59.866  1.00  0.00     0.159 HD
HETATM   28  H   UNL     1     -40.984  62.482 -58.386  1.00  0.00     0.159 HD
HETATM   29  O   UNL     1     -41.564  60.541 -56.898  1.00  0.00    -0.266 OA
ENDBRANCH   8  25
TORSDOF 7
ENDMDL
MODEL 5
REMARK VINA RESULT:      -7.6      3.198      8.984
REMARK  7 active torsions:
REMARK  status: ('A' for Active; 'I' for Inactive)
REMARK    1  A    between atoms: C_2  and  C_3 
REMARK    2  A    between atoms: C_3  and  O_4 
REMARK    3  A    between atoms: O_4  and  C_5 
REMARK    4  A    between atoms: C_9  and  C_10 
REMARK    5  A    between atoms: C_10  and  N_11 
REMARK    6  A    between atoms: N_11  and  C_12 
REMARK    7  A    between atoms: C_19  and  C_20 
REMARK       I    between atoms: C_20  and  N_21 
ROOT
HETATM    1  C   UNL     1     -41.173  54.441 -54.534  1.00  0.00     0.009 A 
HETATM    2  C   UNL     1     -40.767  53.094 -54.575  1.00  0.00     0.039 A 
HETATM    3  C   UNL     1     -40.351  52.433 -53.400  1.00  0.00     0.030 A 
HETATM    4  C   UNL     1     -40.318  53.147 -52.211  1.00  0.00     0.063 A 
HETATM    5  N   UNL     1     -39.876  52.263 -51.268  1.00  0.00    -0.277 N 
HETATM    6  H   UNL     1     -39.724  52.443 -50.282  1.00  0.00     0.189 HD
HETATM    7  N   UNL     1     -39.620  51.030 -51.738  1.00  0.00    -0.168 NA
HETATM    8  C   UNL     1     -39.908  51.122 -53.056  1.00  0.00     0.156 A 
HETATM    9  C   UNL     1     -40.673  54.494 -52.127  1.00  0.00     0.034 A 
HETATM   10  C   UNL     1     -41.085  55.122 -53.312  1.00  0.00     0.026 A 
ENDROOT
BRANCH   1  11
HETATM   11  N   UNL     1     -41.509  55.068 -55.742  1.00  0.00    -0.289 NA
HETATM   12  H   UNL     1     -42.091  54.470 -56.327  1.00  0.00     0.128 HD
BRANCH  11  13
HETATM   13  C   UNL     1     -41.976  56.445 -55.726  1.00  0.00     0.131 C 
BRANCH  13  14
HETATM   14  C   UNL     1     -42.816  56.710 -56.954  1.00  0.00    -0.043 A 
HETATM   15  C   UNL     1     -43.126  55.680 -57.851  1.00  0.00     0.035 A 
HETATM   16  C   UNL     1     -43.933  55.931 -58.965  1.00  0.00     0.068 A 
HETATM   17  C   UNL     1     -44.451  57.212 -59.201  1.00  0.00     0.090 A 
HETATM   18 CL   UNL     1     -44.294  54.607 -60.019  1.00  0.00    -0.081 Cl
HETATM   19  C   UNL     1     -44.109  58.250 -58.328  1.00  0.00     0.039 A 
HETATM   20  C   UNL     1     -43.303  57.998 -57.213  1.00  0.00     0.011 A 
BRANCH  17  21
HETATM   21  O   UNL     1     -45.241  57.384 -60.308  1.00  0.00    -0.346 OA
BRANCH  21  22
HETATM   22  C   UNL     1     -46.635  57.559 -60.057  1.00  0.00     0.202 C 
BRANCH  22  23
HETATM   23  C   UNL     1     -47.362  56.482 -60.806  1.00  0.00    -0.011 C 
HETATM   24  C   UNL     1     -48.128  56.683 -61.887  1.00  0.00     0.009 C 
ENDBRANCH  22  23
ENDBRANCH  21  22
ENDBRANCH  17  21
ENDBRANCH  13  14
ENDBRANCH  11  13
ENDBRANCH   1  11
BRANCH   8  25
HETATM   25  C   UNL     1     -39.759  49.968 -53.953  1.00  0.00     0.270 C 
HETATM   26  N   UNL     1     -40.849  49.734 -54.748  1.00  0.00    -0.365 N 
HETATM   27  H   UNL     1     -41.648  50.350 -54.667  1.00  0.00     0.159 HD
HETATM   28  H   UNL     1     -40.838  48.966 -55.400  1.00  0.00     0.159 HD
HETATM   29  O   UNL     1     -38.762  49.257 -54.015  1.00  0.00    -0.266 OA
ENDBRANCH   8  25
TORSDOF 7
ENDMDL
MODEL 6
REMARK VINA RESULT:      -7.4      2.308      3.231
REMARK  7 active torsions:
REMARK  status: ('A' for Active; 'I' for Inactive)
REMARK    1  A    between atoms: C_2  and  C_3 
REMARK    2  A    between atoms: C_3  and  O_4 
REMARK    3  A    between atoms: O_4  and  C_5 
REMARK    4  A    between atoms: C_9  and  C_10 
REMARK    5  A    between atoms: C_10  and  N_11 
REMARK    6  A    between atoms: N_11  and  C_12 
REMARK    7  A    between atoms: C_19  and  C_20 
REMARK       I    between atoms: C_20  and  N_21 
ROOT
HETATM    1  C   UNL     1     -43.339  56.295 -58.380  1.00  0.00     0.009 A 
HETATM    2  C   UNL     1     -44.405  57.213 -58.336  1.00  0.00     0.039 A 
HETATM    3  C   UNL     1     -45.446  57.150 -59.286  1.00  0.00     0.030 A 
HETATM    4  C   UNL     1     -45.378  56.190 -60.285  1.00  0.00     0.063 A 
HETATM    5  N   UNL     1     -46.497  56.376 -61.046  1.00  0.00    -0.277 N 
HETATM    6  H   UNL     1     -46.774  55.854 -61.870  1.00  0.00     0.189 HD
HETATM    7  N   UNL     1     -47.295  57.374 -60.628  1.00  0.00    -0.168 NA
HETATM    8  C   UNL     1     -46.655  57.863 -59.540  1.00  0.00     0.156 A 
HETATM    9  C   UNL     1     -44.321  55.285 -60.395  1.00  0.00     0.034 A 
HETATM   10  C   UNL     1     -43.304  55.370 -59.432  1.00  0.00     0.026 A 
ENDROOT
BRANCH   1  11
HETATM   11  N   UNL     1     -42.297  56.447 -57.455  1.00  0.00    -0.289 NA
HETATM   12  H   UNL     1     -41.564  57.059 -57.811  1.00  0.00     0.128 HD
BRANCH  11  13
HETATM   13  C   UNL     1     -42.615  56.722 -56.062  1.00  0.00     0.131 C 
BRANCH  13  14
HETATM   14  C   UNL     1     -42.119  55.587 -55.195  1.00  0.00    -0.043 A 
HETATM   15  C   UNL     1     -42.724  55.304 -53.964  1.00  0.00     0.035 A 
HETATM   16  C   UNL     1     -42.278  54.230 -53.187  1.00  0.00     0.068 A 
HETATM   17  C   UNL     1     -41.227  53.414 -53.629  1.00  0.00     0.090 A 
HETATM   18 CL   UNL     1     -43.085  53.925 -51.687  1.00  0.00    -0.081 Cl
HETATM   19  C   UNL     1     -40.597  53.719 -54.839  1.00  0.00     0.039 A 
HETATM   20  C   UNL     1     -41.044  54.794 -55.616  1.00  0.00     0.011 A 
BRANCH  17  21
HETATM   21  O   UNL     1     -40.848  52.373 -52.821  1.00  0.00    -0.346 OA
BRANCH  21  22
HETATM   22  C   UNL     1     -39.524  51.880 -53.020  1.00  0.00     0.202 C 
BRANCH  22  23
HETATM   23  C   UNL     1     -39.637  50.433 -53.397  1.00  0.00    -0.011 C 
HETATM   24  C   UNL     1     -40.307  49.969 -54.461  1.00  0.00     0.009 C 
ENDBRANCH  22  23
ENDBRANCH  21  22
ENDBRANCH  17  21
ENDBRANCH  13  14
ENDBRANCH  11  13
ENDBRANCH   1  11
BRANCH   8  25
HETATM   25  C   UNL     1     -47.205  58.988 -58.771  1.00  0.00     0.270 C 
HETATM   26  N   UNL     1     -47.599  58.657 -57.503  1.00  0.00    -0.365 N 
HETATM   27  H   UNL     1     -47.486  57.699 -57.195  1.00  0.00     0.159 HD
HETATM   28  H   UNL     1     -47.984  59.364 -56.897  1.00  0.00     0.159 HD
HETATM   29  O   UNL     1     -47.312  60.135 -59.193  1.00  0.00    -0.266 OA
ENDBRANCH   8  25
TORSDOF 7
ENDMDL
MODEL 7
REMARK VINA RESULT:      -7.2      3.515      9.445
REMARK  7 active torsions:
REMARK  status: ('A' for Active; 'I' for Inactive)
REMARK    1  A    between atoms: C_2  and  C_3 
REMARK    2  A    between atoms: C_3  and  O_4 
REMARK    3  A    between atoms: O_4  and  C_5 
REMARK    4  A    between atoms: C_9  and  C_10 
REMARK    5  A    between atoms: C_10  and  N_11 
REMARK    6  A    between atoms: N_11  and  C_12 
REMARK    7  A    between atoms: C_19  and  C_20 
REMARK       I    between atoms: C_20  and  N_21 
ROOT
HETATM    1  C   UNL     1     -40.590  54.133 -54.333  1.00  0.00     0.009 A 
HETATM    2  C   UNL     1     -40.937  54.393 -52.994  1.00  0.00     0.039 A 
HETATM    3  C   UNL     1     -40.654  53.450 -51.983  1.00  0.00     0.030 A 
HETATM    4  C   UNL     1     -40.063  52.248 -52.341  1.00  0.00     0.063 A 
HETATM    5  N   UNL     1     -39.923  51.549 -51.176  1.00  0.00    -0.277 N 
HETATM    6  H   UNL     1     -39.531  50.621 -51.059  1.00  0.00     0.189 HD
HETATM    7  N   UNL     1     -40.371  52.193 -50.084  1.00  0.00    -0.168 NA
HETATM    8  C   UNL     1     -40.828  53.370 -50.570  1.00  0.00     0.156 A 
HETATM    9  C   UNL     1     -39.737  51.927 -53.660  1.00  0.00     0.034 A 
HETATM   10  C   UNL     1     -40.027  52.888 -54.641  1.00  0.00     0.026 A 
ENDROOT
BRANCH   1  11
HETATM   11  N   UNL     1     -40.957  55.074 -55.305  1.00  0.00    -0.289 NA
HETATM   12  H   UNL     1     -40.641  54.798 -56.234  1.00  0.00     0.128 HD
BRANCH  11  13
HETATM   13  C   UNL     1     -42.315  55.594 -55.318  1.00  0.00     0.131 C 
BRANCH  13  14
HETATM   14  C   UNL     1     -42.612  56.203 -56.670  1.00  0.00    -0.043 A 
HETATM   15  C   UNL     1     -43.154  55.429 -57.704  1.00  0.00     0.035 A 
HETATM   16  C   UNL     1     -43.456  56.012 -58.940  1.00  0.00     0.068 A 
HETATM   17  C   UNL     1     -43.231  57.378 -59.161  1.00  0.00     0.090 A 
HETATM   18 CL   UNL     1     -44.143  55.002 -60.165  1.00  0.00    -0.081 Cl
HETATM   19  C   UNL     1     -42.654  58.142 -58.143  1.00  0.00     0.039 A 
HETATM   20  C   UNL     1     -42.352  57.559 -56.907  1.00  0.00     0.011 A 
BRANCH  17  21
HETATM   21  O   UNL     1     -43.559  57.884 -60.393  1.00  0.00    -0.346 OA
BRANCH  21  22
HETATM   22  C   UNL     1     -44.049  59.224 -60.406  1.00  0.00     0.202 C 
BRANCH  22  23
HETATM   23  C   UNL     1     -43.175  60.011 -61.336  1.00  0.00    -0.011 C 
HETATM   24  C   UNL     1     -41.914  60.380 -61.074  1.00  0.00     0.009 C 
ENDBRANCH  22  23
ENDBRANCH  21  22
ENDBRANCH  17  21
ENDBRANCH  13  14
ENDBRANCH  11  13
ENDBRANCH   1  11
BRANCH   8  25
HETATM   25  C   UNL     1     -41.413  54.387 -49.685  1.00  0.00     0.270 C 
HETATM   26  N   UNL     1     -40.744  54.548 -48.502  1.00  0.00    -0.365 N 
HETATM   27  H   UNL     1     -39.924  53.979 -48.327  1.00  0.00     0.159 HD
HETATM   28  H   UNL     1     -41.068  55.227 -47.831  1.00  0.00     0.159 HD
HETATM   29  O   UNL     1     -42.407  55.054 -49.950  1.00  0.00    -0.266 OA
ENDBRANCH   8  25
TORSDOF 7
ENDMDL
MODEL 8
REMARK VINA RESULT:      -7.1      2.052      2.775
REMARK  7 active torsions:
REMARK  status: ('A' for Active; 'I' for Inactive)
REMARK    1  A    between atoms: C_2  and  C_3 
REMARK    2  A    between atoms: C_3  and  O_4 
REMARK    3  A    between atoms: O_4  and  C_5 
REMARK    4  A    between atoms: C_9  and  C_10 
REMARK    5  A    between atoms: C_10  and  N_11 
REMARK    6  A    between atoms: N_11  and  C_12 
REMARK    7  A    between atoms: C_19  and  C_20 
REMARK       I    between atoms: C_20  and  N_21 
ROOT
HETATM    1  C   UNL     1     -43.036  56.162 -57.754  1.00  0.00     0.009 A 
HETATM    2  C   UNL     1     -43.807  57.322 -57.547  1.00  0.00     0.039 A 
HETATM    3  C   UNL     1     -44.437  57.967 -58.633  1.00  0.00     0.030 A 
HETATM    4  C   UNL     1     -44.252  57.456 -59.909  1.00  0.00     0.063 A 
HETATM    5  N   UNL     1     -44.962  58.280 -60.736  1.00  0.00    -0.277 N 
HETATM    6  H   UNL     1     -45.049  58.210 -61.744  1.00  0.00     0.189 HD
HETATM    7  N   UNL     1     -45.599  59.284 -60.110  1.00  0.00    -0.168 NA
HETATM    8  C   UNL     1     -45.281  59.103 -58.807  1.00  0.00     0.156 A 
HETATM    9  C   UNL     1     -43.465  56.334 -60.169  1.00  0.00     0.034 A 
HETATM   10  C   UNL     1     -42.855  55.712 -59.069  1.00  0.00     0.026 A 
ENDROOT
BRANCH   1  11
HETATM   11  N   UNL     1     -42.375  55.603 -56.651  1.00  0.00    -0.289 NA
HETATM   12  H   UNL     1     -41.473  56.047 -56.488  1.00  0.00     0.128 HD
BRANCH  11  13
HETATM   13  C   UNL     1     -43.111  55.381 -55.416  1.00  0.00     0.131 C 
BRANCH  13  14
HETATM   14  C   UNL     1     -42.248  54.608 -54.444  1.00  0.00    -0.043 A 
HETATM   15  C   UNL     1     -41.743  53.345 -54.776  1.00  0.00     0.035 A 
HETATM   16  C   UNL     1     -40.918  52.656 -53.881  1.00  0.00     0.068 A 
HETATM   17  C   UNL     1     -40.576  53.218 -52.643  1.00  0.00     0.090 A 
HETATM   18 CL   UNL     1     -40.311  51.110 -54.365  1.00  0.00    -0.081 Cl
HETATM   19  C   UNL     1     -41.112  54.462 -52.294  1.00  0.00     0.039 A 
HETATM   20  C   UNL     1     -41.937  55.151 -53.190  1.00  0.00     0.011 A 
BRANCH  17  21
HETATM   21  O   UNL     1     -39.756  52.491 -51.820  1.00  0.00    -0.346 OA
BRANCH  21  22
HETATM   22  C   UNL     1     -40.281  52.188 -50.528  1.00  0.00     0.202 C 
BRANCH  22  23
HETATM   23  C   UNL     1     -40.194  50.702 -50.347  1.00  0.00    -0.011 C 
HETATM   24  C   UNL     1     -39.459  49.878 -51.107  1.00  0.00     0.009 C 
ENDBRANCH  22  23
ENDBRANCH  21  22
ENDBRANCH  17  21
ENDBRANCH  13  14
ENDBRANCH  11  13
ENDBRANCH   1  11
BRANCH   8  25
HETATM   25  C   UNL     1     -45.785  60.008 -57.765  1.00  0.00     0.270 C 
HETATM   26  N   UNL     1     -46.644  59.415 -56.880  1.00  0.00    -0.365 N 
HETATM   27  H   UNL     1     -46.862  58.433 -56.999  1.00  0.00     0.159 HD
HETATM   28  H   UNL     1     -47.039  59.955 -56.126  1.00  0.00     0.159 HD
HETATM   29  O   UNL     1     -45.482  61.192 -57.663  1.00  0.00    -0.266 OA
ENDBRANCH   8  25
TORSDOF 7
ENDMDL
MODEL 9
REMARK VINA RESULT:      -7.1     14.785     17.548
REMARK  7 active torsions:
REMARK  status: ('A' for Active; 'I' for Inactive)
REMARK    1  A    between atoms: C_2  and  C_3 
REMARK    2  A    between atoms: C_3  and  O_4 
REMARK    3  A    between atoms: O_4  and  C_5 
REMARK    4  A    between atoms: C_9  and  C_10 
REMARK    5  A    between atoms: C_10  and  N_11 
REMARK    6  A    between atoms: N_11  and  C_12 
REMARK    7  A    between atoms: C_19  and  C_20 
REMARK       I    between atoms: C_20  and  N_21 
ROOT
HETATM    1  C   UNL     1     -36.325  41.811 -52.748  1.00  0.00     0.009 A 
HETATM    2  C   UNL     1     -37.215  40.802 -52.336  1.00  0.00     0.039 A 
HETATM    3  C   UNL     1     -36.956  40.049 -51.170  1.00  0.00     0.030 A 
HETATM    4  C   UNL     1     -35.790  40.300 -50.462  1.00  0.00     0.063 A 
HETATM    5  N   UNL     1     -35.809  39.429 -49.410  1.00  0.00    -0.277 N 
HETATM    6  H   UNL     1     -35.108  39.327 -48.684  1.00  0.00     0.189 HD
HETATM    7  N   UNL     1     -36.890  38.630 -49.368  1.00  0.00    -0.168 NA
HETATM    8  C   UNL     1     -37.607  39.003 -50.453  1.00  0.00     0.156 A 
HETATM    9  C   UNL     1     -34.858  41.262 -50.853  1.00  0.00     0.034 A 
HETATM   10  C   UNL     1     -35.146  41.997 -52.013  1.00  0.00     0.026 A 
ENDROOT
BRANCH   1  11
HETATM   11  N   UNL     1     -36.596  42.479 -53.950  1.00  0.00    -0.289 NA
HETATM   12  H   UNL     1     -36.821  43.461 -53.793  1.00  0.00     0.128 HD
BRANCH  11  13
HETATM   13  C   UNL     1     -35.705  42.295 -55.085  1.00  0.00     0.131 C 
BRANCH  13  14
HETATM   14  C   UNL     1     -36.460  41.642 -56.221  1.00  0.00    -0.043 A 
HETATM   15  C   UNL     1     -36.557  42.264 -57.473  1.00  0.00     0.035 A 
HETATM   16  C   UNL     1     -37.229  41.634 -58.525  1.00  0.00     0.068 A 
HETATM   17  C   UNL     1     -37.808  40.368 -58.350  1.00  0.00     0.090 A 
HETATM   18 CL   UNL     1     -37.292  42.449 -60.049  1.00  0.00    -0.081 Cl
HETATM   19  C   UNL     1     -37.745  39.765 -57.091  1.00  0.00     0.039 A 
HETATM   20  C   UNL     1     -37.073  40.395 -56.038  1.00  0.00     0.011 A 
BRANCH  17  21
HETATM   21  O   UNL     1     -38.443  39.806 -59.427  1.00  0.00    -0.346 OA
BRANCH  21  22
HETATM   22  C   UNL     1     -37.727  38.775 -60.105  1.00  0.00     0.202 C 
BRANCH  22  23
HETATM   23  C   UNL     1     -37.783  39.080 -61.572  1.00  0.00    -0.011 C 
HETATM   24  C   UNL     1     -38.263  38.253 -62.509  1.00  0.00     0.009 C 
ENDBRANCH  22  23
ENDBRANCH  21  22
ENDBRANCH  17  21
ENDBRANCH  13  14
ENDBRANCH  11  13
ENDBRANCH   1  11
BRANCH   8  25
HETATM   25  C   UNL     1     -38.888  38.361 -50.779  1.00  0.00     0.270 C 
HETATM   26  N   UNL     1     -39.906  39.242 -51.028  1.00  0.00    -0.365 N 
HETATM   27  H   UNL     1     -39.711  40.234 -50.974  1.00  0.00     0.159 HD
HETATM   28  H   UNL     1     -40.821  38.895 -51.266  1.00  0.00     0.159 HD
HETATM   29  O   UNL     1     -39.066  37.149 -50.837  1.00  0.00    -0.266 OA
ENDBRANCH   8  25
TORSDOF 7
ENDMDL
MODEL 10
REMARK VINA RESULT:      -7.0     15.132     16.479
REMARK  7 active torsions:
REMARK  status: ('A' for Active; 'I' for Inactive)
REMARK    1  A    between atoms: C_2  and  C_3 
REMARK    2  A    between atoms: C_3  and  O_4 
REMARK    3  A    between atoms: O_4  and  C_5 
REMARK    4  A    between atoms: C_9  and  C_10 
REMARK    5  A    between atoms: C_10  and  N_11 
REMARK    6  A    between atoms: N_11  and  C_12 
REMARK    7  A    between atoms: C_19  and  C_20 
REMARK       I    between atoms: C_20  and  N_21 
ROOT
HETATM    1  C   UNL     1     -37.358  39.192 -60.384  1.00  0.00     0.009 A 
HETATM    2  C   UNL     1     -38.720  38.842 -60.462  1.00  0.00     0.039 A 
HETATM    3  C   UNL     1     -39.246  38.263 -61.636  1.00  0.00     0.030 A 
HETATM    4  C   UNL     1     -38.404  38.081 -62.723  1.00  0.00     0.063 A 
HETATM    5  N   UNL     1     -39.183  37.522 -63.696  1.00  0.00    -0.277 N 
HETATM    6  H   UNL     1     -38.898  37.256 -64.633  1.00  0.00     0.189 HD
HETATM    7  N   UNL     1     -40.462  37.320 -63.338  1.00  0.00    -0.168 NA
HETATM    8  C   UNL     1     -40.516  37.777 -62.066  1.00  0.00     0.156 A 
HETATM    9  C   UNL     1     -37.058  38.448 -62.708  1.00  0.00     0.034 A 
HETATM   10  C   UNL     1     -36.563  39.017 -61.524  1.00  0.00     0.026 A 
ENDROOT
BRANCH   1  11
HETATM   11  N   UNL     1     -36.905  39.826 -59.220  1.00  0.00    -0.289 NA
HETATM   12  H   UNL     1     -35.889  39.908 -59.207  1.00  0.00     0.128 HD
BRANCH  11  13
HETATM   13  C   UNL     1     -37.561  41.044 -58.769  1.00  0.00     0.131 C 
BRANCH  13  14
HETATM   14  C   UNL     1     -37.063  41.408 -57.389  1.00  0.00    -0.043 A 
HETATM   15  C   UNL     1     -37.824  41.119 -56.249  1.00  0.00     0.035 A 
HETATM   16  C   UNL     1     -37.337  41.430 -54.975  1.00  0.00     0.068 A 
HETATM   17  C   UNL     1     -36.078  42.026 -54.816  1.00  0.00     0.090 A 
HETATM   18 CL   UNL     1     -38.321  41.026 -53.611  1.00  0.00    -0.081 Cl
HETATM   19  C   UNL     1     -35.334  42.350 -55.954  1.00  0.00     0.039 A 
HETATM   20  C   UNL     1     -35.822  42.039 -57.228  1.00  0.00     0.011 A 
BRANCH  17  21
HETATM   21  O   UNL     1     -35.660  42.294 -53.538  1.00  0.00    -0.346 OA
BRANCH  21  22
HETATM   22  C   UNL     1     -34.820  41.309 -52.937  1.00  0.00     0.202 C 
BRANCH  22  23
HETATM   23  C   UNL     1     -34.574  41.735 -51.520  1.00  0.00    -0.011 C 
HETATM   24  C   UNL     1     -33.944  40.998 -50.596  1.00  0.00     0.009 C 
ENDBRANCH  22  23
ENDBRANCH  21  22
ENDBRANCH  17  21
ENDBRANCH  13  14
ENDBRANCH  11  13
ENDBRANCH   1  11
BRANCH   8  25
HETATM   25  C   UNL     1     -41.764  37.737 -61.291  1.00  0.00     0.270 C 
HETATM   26  N   UNL     1     -42.736  38.582 -61.756  1.00  0.00    -0.365 N 
HETATM   27  H   UNL     1     -42.535  39.150 -62.569  1.00  0.00     0.159 HD
HETATM   28  H   UNL     1     -43.629  38.621 -61.292  1.00  0.00     0.159 HD
HETATM   29  O   UNL     1     -41.956  37.021 -60.314  1.00  0.00    -0.266 OA
ENDBRANCH   8  25
TORSDOF 7
ENDMDL
