MODEL 1
REMARK VINA RESULT:      -7.5      0.000      0.000
REMARK  8 active torsions:
REMARK  status: ('A' for Active; 'I' for Inactive)
REMARK    1  A    between atoms: C_2  and  O_3 
REMARK    2  A    between atoms: O_3  and  C_4 
REMARK    3  A    between atoms: C_5  and  O_6 
REMARK    4  A    between atoms: C_9  and  C_10 
REMARK    5  A    between atoms: C_10  and  N_11 
REMARK       I    between atoms: N_11  and  C_12 
REMARK    6  A    between atoms: C_12  and  C_13 
REMARK    7  A    between atoms: C_14  and  N_15 
REMARK       I    between atoms: N_15  and  C_16 
REMARK    8  A    between atoms: C_16  and  C_17 
ROOT
HETATM    1  C   UNL     1     -41.743  53.881 -54.023  1.00  0.00     0.058 A 
HETATM    2  C   UNL     1     -41.544  54.510 -52.769  1.00  0.00     0.050 A 
HETATM    3  C   UNL     1     -40.673  53.913 -51.849  1.00  0.00     0.030 A 
HETATM    4  C   UNL     1     -39.995  52.732 -52.162  1.00  0.00     0.002 A 
HETATM    5  C   UNL     1     -40.171  52.131 -53.403  1.00  0.00     0.001 A 
HETATM    6  C   UNL     1     -41.036  52.704 -54.333  1.00  0.00     0.019 A 
ENDROOT
BRANCH   1   7
HETATM    7  C   UNL     1     -42.657  54.486 -55.042  1.00  0.00     0.254 C 
HETATM    8  N   UNL     1     -42.078  55.037 -56.165  1.00  0.00    -0.353 N 
HETATM    9  H   UNL     1     -41.093  54.914 -56.348  1.00  0.00     0.163 HD
HETATM   10  O   UNL     1     -43.873  54.451 -54.873  1.00  0.00    -0.268 OA
BRANCH   8  11
HETATM   11  C   UNL     1     -42.864  55.708 -57.175  1.00  0.00     0.161 C 
BRANCH  11  12
HETATM   12  C   UNL     1     -42.495  57.165 -57.278  1.00  0.00    -0.038 A 
HETATM   13  C   UNL     1     -42.331  57.952 -56.127  1.00  0.00     0.048 A 
HETATM   14  C   UNL     1     -42.009  59.319 -56.210  1.00  0.00     0.102 A 
HETATM   15  C   UNL     1     -41.848  59.902 -57.479  1.00  0.00     0.102 A 
HETATM   16  C   UNL     1     -41.996  59.107 -58.625  1.00  0.00     0.040 A 
HETATM   17  C   UNL     1     -42.321  57.756 -58.531  1.00  0.00     0.012 A 
BRANCH  14  18
HETATM   18  O   UNL     1     -41.816  60.105 -55.106  1.00  0.00    -0.353 OA
HETATM   19  C   UNL     1     -42.902  60.893 -54.638  1.00  0.00     0.210 C 
ENDBRANCH  14  18
BRANCH  15  20
HETATM   20  O   UNL     1     -41.533  61.199 -57.790  1.00  0.00    -0.349 OA
BRANCH  20  21
HETATM   21  C   UNL     1     -41.244  61.529 -59.144  1.00  0.00     0.171 C 
HETATM   22  C   UNL     1     -40.101  62.531 -59.143  1.00  0.00     0.034 C 
ENDBRANCH  20  21
ENDBRANCH  15  20
ENDBRANCH  11  12
ENDBRANCH   8  11
ENDBRANCH   1   7
BRANCH   2  23
HETATM   23  N   UNL     1     -42.238  55.709 -52.474  1.00  0.00    -0.321 N 
HETATM   24  C   UNL     1     -41.822  57.012 -52.650  1.00  0.00     0.265 C 
HETATM   25  O   UNL     1     -40.773  57.396 -53.154  1.00  0.00    -0.267 OA
HETATM   26  H   UNL     1     -43.196  55.585 -52.137  1.00  0.00     0.169 HD
BRANCH  24  27
HETATM   27  C   UNL     1     -42.843  58.007 -52.174  1.00  0.00     0.097 C 
HETATM   28  S   UNL     1     -44.432  57.817 -52.858  1.00  0.00    -0.120 SA
HETATM   29  C   UNL     1     -45.219  59.312 -52.212  1.00  0.00     0.106 C 
HETATM   30  C   UNL     1     -44.771  59.526 -50.779  1.00  0.00     0.185 C 
HETATM   31  O   UNL     1     -43.384  59.867 -50.708  1.00  0.00    -0.353 OA
HETATM   32  C   UNL     1     -42.506  58.949 -51.266  1.00  0.00     0.064 C 
HETATM   33  C   UNL     1     -41.103  59.159 -50.760  1.00  0.00     0.078 C 
ENDBRANCH  24  27
ENDBRANCH   2  23
TORSDOF 8
ENDMDL
MODEL 2
REMARK VINA RESULT:      -7.4      3.187      7.981
REMARK  8 active torsions:
REMARK  status: ('A' for Active; 'I' for Inactive)
REMARK    1  A    between atoms: C_2  and  O_3 
REMARK    2  A    between atoms: O_3  and  C_4 
REMARK    3  A    between atoms: C_5  and  O_6 
REMARK    4  A    between atoms: C_9  and  C_10 
REMARK    5  A    between atoms: C_10  and  N_11 
REMARK       I    between atoms: N_11  and  C_12 
REMARK    6  A    between atoms: C_12  and  C_13 
REMARK    7  A    between atoms: C_14  and  N_15 
REMARK       I    between atoms: N_15  and  C_16 
REMARK    8  A    between atoms: C_16  and  C_17 
ROOT
HETATM    1  C   UNL     1     -43.978  56.903 -53.954  1.00  0.00     0.058 A 
HETATM    2  C   UNL     1     -44.681  57.780 -54.817  1.00  0.00     0.050 A 
HETATM    3  C   UNL     1     -45.163  58.987 -54.298  1.00  0.00     0.030 A 
HETATM    4  C   UNL     1     -44.944  59.336 -52.962  1.00  0.00     0.002 A 
HETATM    5  C   UNL     1     -44.231  58.485 -52.124  1.00  0.00     0.001 A 
HETATM    6  C   UNL     1     -43.745  57.276 -52.617  1.00  0.00     0.019 A 
ENDROOT
BRANCH   1   7
HETATM    7  C   UNL     1     -43.436  55.604 -54.466  1.00  0.00     0.254 C 
HETATM    8  N   UNL     1     -42.085  55.546 -54.736  1.00  0.00    -0.353 N 
HETATM    9  H   UNL     1     -41.474  56.304 -54.471  1.00  0.00     0.163 HD
HETATM   10  O   UNL     1     -44.181  54.638 -54.601  1.00  0.00    -0.268 OA
BRANCH   8  11
HETATM   11  C   UNL     1     -41.473  54.364 -55.299  1.00  0.00     0.161 C 
BRANCH  11  12
HETATM   12  C   UNL     1     -40.821  53.524 -54.233  1.00  0.00    -0.038 A 
HETATM   13  C   UNL     1     -40.649  54.017 -52.929  1.00  0.00     0.048 A 
HETATM   14  C   UNL     1     -40.021  53.252 -51.930  1.00  0.00     0.102 A 
HETATM   15  C   UNL     1     -39.559  51.962 -52.252  1.00  0.00     0.102 A 
HETATM   16  C   UNL     1     -39.750  51.469 -53.550  1.00  0.00     0.040 A 
HETATM   17  C   UNL     1     -40.367  52.238 -54.534  1.00  0.00     0.012 A 
BRANCH  14  18
HETATM   18  O   UNL     1     -39.863  53.693 -50.644  1.00  0.00    -0.353 OA
HETATM   19  C   UNL     1     -41.009  54.158 -49.943  1.00  0.00     0.210 C 
ENDBRANCH  14  18
BRANCH  15  20
HETATM   20  O   UNL     1     -38.931  51.053 -51.442  1.00  0.00    -0.349 OA
BRANCH  20  21
HETATM   21  C   UNL     1     -39.668  49.929 -50.972  1.00  0.00     0.171 C 
HETATM   22  C   UNL     1     -40.469  50.373 -49.759  1.00  0.00     0.034 C 
ENDBRANCH  20  21
ENDBRANCH  15  20
ENDBRANCH  11  12
ENDBRANCH   8  11
ENDBRANCH   1   7
BRANCH   2  23
HETATM   23  N   UNL     1     -44.888  57.410 -56.168  1.00  0.00    -0.321 N 
HETATM   24  C   UNL     1     -44.258  57.884 -57.299  1.00  0.00     0.265 C 
HETATM   25  O   UNL     1     -43.341  58.696 -57.354  1.00  0.00    -0.267 OA
HETATM   26  H   UNL     1     -45.557  56.650 -56.313  1.00  0.00     0.169 HD
BRANCH  24  27
HETATM   27  C   UNL     1     -44.793  57.260 -58.557  1.00  0.00     0.097 C 
HETATM   28  S   UNL     1     -43.867  55.917 -59.164  1.00  0.00    -0.120 SA
HETATM   29  C   UNL     1     -44.711  55.660 -60.745  1.00  0.00     0.106 C 
HETATM   30  C   UNL     1     -46.204  55.829 -60.540  1.00  0.00     0.185 C 
HETATM   31  O   UNL     1     -46.543  57.186 -60.240  1.00  0.00    -0.353 OA
HETATM   32  C   UNL     1     -45.925  57.731 -59.124  1.00  0.00     0.064 C 
HETATM   33  C   UNL     1     -46.658  58.955 -58.639  1.00  0.00     0.078 C 
ENDBRANCH  24  27
ENDBRANCH   2  23
TORSDOF 8
ENDMDL
MODEL 3
REMARK VINA RESULT:      -7.3      2.364      6.810
REMARK  8 active torsions:
REMARK  status: ('A' for Active; 'I' for Inactive)
REMARK    1  A    between atoms: C_2  and  O_3 
REMARK    2  A    between atoms: O_3  and  C_4 
REMARK    3  A    between atoms: C_5  and  O_6 
REMARK    4  A    between atoms: C_9  and  C_10 
REMARK    5  A    between atoms: C_10  and  N_11 
REMARK       I    between atoms: N_11  and  C_12 
REMARK    6  A    between atoms: C_12  and  C_13 
REMARK    7  A    between atoms: C_14  and  N_15 
REMARK       I    between atoms: N_15  and  C_16 
REMARK    8  A    between atoms: C_16  and  C_17 
ROOT
HETATM    1  C   UNL     1     -42.869  57.946 -56.434  1.00  0.00     0.058 A 
HETATM    2  C   UNL     1     -42.642  59.307 -56.109  1.00  0.00     0.050 A 
HETATM    3  C   UNL     1     -42.041  60.133 -57.065  1.00  0.00     0.030 A 
HETATM    4  C   UNL     1     -41.686  59.639 -58.323  1.00  0.00     0.002 A 
HETATM    5  C   UNL     1     -41.934  58.311 -58.650  1.00  0.00     0.001 A 
HETATM    6  C   UNL     1     -42.527  57.467 -57.713  1.00  0.00     0.019 A 
ENDROOT
BRANCH   1   7
HETATM    7  C   UNL     1     -43.517  57.025 -55.448  1.00  0.00     0.254 C 
HETATM    8  N   UNL     1     -42.745  56.009 -54.928  1.00  0.00    -0.353 N 
HETATM    9  H   UNL     1     -41.752  55.975 -55.105  1.00  0.00     0.163 HD
HETATM   10  O   UNL     1     -44.684  57.210 -55.111  1.00  0.00    -0.268 OA
BRANCH   8  11
HETATM   11  C   UNL     1     -43.292  55.024 -54.023  1.00  0.00     0.161 C 
BRANCH  11  12
HETATM   12  C   UNL     1     -42.217  54.116 -53.485  1.00  0.00    -0.038 A 
HETATM   13  C   UNL     1     -41.888  54.115 -52.119  1.00  0.00     0.048 A 
HETATM   14  C   UNL     1     -40.871  53.290 -51.609  1.00  0.00     0.102 A 
HETATM   15  C   UNL     1     -40.172  52.448 -52.493  1.00  0.00     0.102 A 
HETATM   16  C   UNL     1     -40.516  52.440 -53.852  1.00  0.00     0.040 A 
HETATM   17  C   UNL     1     -41.522  53.267 -54.348  1.00  0.00     0.012 A 
BRANCH  14  18
HETATM   18  O   UNL     1     -40.546  53.245 -50.279  1.00  0.00    -0.353 OA
HETATM   19  C   UNL     1     -39.776  54.309 -49.735  1.00  0.00     0.210 C 
ENDBRANCH  14  18
BRANCH  15  20
HETATM   20  O   UNL     1     -39.159  51.568 -52.214  1.00  0.00    -0.349 OA
BRANCH  20  21
HETATM   21  C   UNL     1     -39.457  50.177 -52.150  1.00  0.00     0.171 C 
HETATM   22  C   UNL     1     -39.666  49.813 -50.690  1.00  0.00     0.034 C 
ENDBRANCH  20  21
ENDBRANCH  15  20
ENDBRANCH  11  12
ENDBRANCH   8  11
ENDBRANCH   1   7
BRANCH   2  23
HETATM   23  N   UNL     1     -43.014  59.788 -54.830  1.00  0.00    -0.321 N 
HETATM   24  C   UNL     1     -42.225  59.975 -53.715  1.00  0.00     0.265 C 
HETATM   25  O   UNL     1     -41.013  59.807 -53.625  1.00  0.00    -0.267 OA
HETATM   26  H   UNL     1     -43.989  60.087 -54.745  1.00  0.00     0.169 HD
BRANCH  24  27
HETATM   27  C   UNL     1     -43.011  60.470 -52.534  1.00  0.00     0.097 C 
HETATM   28  S   UNL     1     -43.218  62.197 -52.459  1.00  0.00    -0.120 SA
HETATM   29  C   UNL     1     -43.976  62.338 -50.822  1.00  0.00     0.106 C 
HETATM   30  C   UNL     1     -44.969  61.207 -50.639  1.00  0.00     0.185 C 
HETATM   31  O   UNL     1     -44.312  59.939 -50.552  1.00  0.00    -0.353 OA
HETATM   32  C   UNL     1     -43.515  59.596 -51.635  1.00  0.00     0.064 C 
HETATM   33  C   UNL     1     -43.243  58.115 -51.664  1.00  0.00     0.078 C 
ENDBRANCH  24  27
ENDBRANCH   2  23
TORSDOF 8
ENDMDL
MODEL 4
REMARK VINA RESULT:      -7.3      3.301      8.203
REMARK  8 active torsions:
REMARK  status: ('A' for Active; 'I' for Inactive)
REMARK    1  A    between atoms: C_2  and  O_3 
REMARK    2  A    between atoms: O_3  and  C_4 
REMARK    3  A    between atoms: C_5  and  O_6 
REMARK    4  A    between atoms: C_9  and  C_10 
REMARK    5  A    between atoms: C_10  and  N_11 
REMARK       I    between atoms: N_11  and  C_12 
REMARK    6  A    between atoms: C_12  and  C_13 
REMARK    7  A    between atoms: C_14  and  N_15 
REMARK       I    between atoms: N_15  and  C_16 
REMARK    8  A    between atoms: C_16  and  C_17 
ROOT
HETATM    1  C   UNL     1     -44.122  57.283 -54.050  1.00  0.00     0.058 A 
HETATM    2  C   UNL     1     -44.880  58.088 -54.936  1.00  0.00     0.050 A 
HETATM    3  C   UNL     1     -45.409  59.294 -54.460  1.00  0.00     0.030 A 
HETATM    4  C   UNL     1     -45.183  59.711 -53.145  1.00  0.00     0.002 A 
HETATM    5  C   UNL     1     -44.417  58.932 -52.286  1.00  0.00     0.001 A 
HETATM    6  C   UNL     1     -43.883  57.726 -52.735  1.00  0.00     0.019 A 
ENDROOT
BRANCH   1   7
HETATM    7  C   UNL     1     -43.528  55.990 -54.515  1.00  0.00     0.254 C 
HETATM    8  N   UNL     1     -42.194  55.995 -54.862  1.00  0.00    -0.353 N 
HETATM    9  H   UNL     1     -41.617  56.803 -54.679  1.00  0.00     0.163 HD
HETATM   10  O   UNL     1     -44.217  54.974 -54.548  1.00  0.00    -0.268 OA
BRANCH   8  11
HETATM   11  C   UNL     1     -41.540  54.818 -55.389  1.00  0.00     0.161 C 
BRANCH  11  12
HETATM   12  C   UNL     1     -40.943  53.983 -54.287  1.00  0.00    -0.038 A 
HETATM   13  C   UNL     1     -40.365  52.733 -54.560  1.00  0.00     0.048 A 
HETATM   14  C   UNL     1     -39.824  51.933 -53.537  1.00  0.00     0.102 A 
HETATM   15  C   UNL     1     -39.865  52.406 -52.213  1.00  0.00     0.102 A 
HETATM   16  C   UNL     1     -40.428  53.663 -51.949  1.00  0.00     0.040 A 
HETATM   17  C   UNL     1     -40.966  54.443 -52.970  1.00  0.00     0.012 A 
BRANCH  14  18
HETATM   18  O   UNL     1     -39.230  50.723 -53.775  1.00  0.00    -0.353 OA
HETATM   19  C   UNL     1     -39.875  49.814 -54.657  1.00  0.00     0.210 C 
ENDBRANCH  14  18
BRANCH  15  20
HETATM   20  O   UNL     1     -39.398  51.802 -51.076  1.00  0.00    -0.349 OA
BRANCH  20  21
HETATM   21  C   UNL     1     -40.265  50.930 -50.356  1.00  0.00     0.171 C 
HETATM   22  C   UNL     1     -39.865  49.501 -50.688  1.00  0.00     0.034 C 
ENDBRANCH  20  21
ENDBRANCH  15  20
ENDBRANCH  11  12
ENDBRANCH   8  11
ENDBRANCH   1   7
BRANCH   2  23
HETATM   23  N   UNL     1     -45.093  57.650 -56.265  1.00  0.00    -0.321 N 
HETATM   24  C   UNL     1     -44.512  58.107 -57.429  1.00  0.00     0.265 C 
HETATM   25  O   UNL     1     -43.641  58.963 -57.538  1.00  0.00    -0.267 OA
HETATM   26  H   UNL     1     -45.723  56.849 -56.363  1.00  0.00     0.169 HD
BRANCH  24  27
HETATM   27  C   UNL     1     -45.038  57.401 -58.647  1.00  0.00     0.097 C 
HETATM   28  S   UNL     1     -44.061  56.074 -59.208  1.00  0.00    -0.120 SA
HETATM   29  C   UNL     1     -44.916  55.706 -60.760  1.00  0.00     0.106 C 
HETATM   30  C   UNL     1     -46.412  55.817 -60.537  1.00  0.00     0.185 C 
HETATM   31  O   UNL     1     -46.808  57.170 -60.294  1.00  0.00    -0.353 OA
HETATM   32  C   UNL     1     -46.199  57.794 -59.215  1.00  0.00     0.064 C 
HETATM   33  C   UNL     1     -46.979  59.005 -58.774  1.00  0.00     0.078 C 
ENDBRANCH  24  27
ENDBRANCH   2  23
TORSDOF 8
ENDMDL
MODEL 5
REMARK VINA RESULT:      -7.3      2.466      7.156
REMARK  8 active torsions:
REMARK  status: ('A' for Active; 'I' for Inactive)
REMARK    1  A    between atoms: C_2  and  O_3 
REMARK    2  A    between atoms: O_3  and  C_4 
REMARK    3  A    between atoms: C_5  and  O_6 
REMARK    4  A    between atoms: C_9  and  C_10 
REMARK    5  A    between atoms: C_10  and  N_11 
REMARK       I    between atoms: N_11  and  C_12 
REMARK    6  A    between atoms: C_12  and  C_13 
REMARK    7  A    between atoms: C_14  and  N_15 
REMARK       I    between atoms: N_15  and  C_16 
REMARK    8  A    between atoms: C_16  and  C_17 
ROOT
HETATM    1  C   UNL     1     -42.960  56.696 -57.225  1.00  0.00     0.058 A 
HETATM    2  C   UNL     1     -43.161  58.009 -57.717  1.00  0.00     0.050 A 
HETATM    3  C   UNL     1     -43.252  58.201 -59.100  1.00  0.00     0.030 A 
HETATM    4  C   UNL     1     -43.166  57.122 -59.984  1.00  0.00     0.002 A 
HETATM    5  C   UNL     1     -42.996  55.830 -59.498  1.00  0.00     0.001 A 
HETATM    6  C   UNL     1     -42.899  55.615 -58.125  1.00  0.00     0.019 A 
ENDROOT
BRANCH   1   7
HETATM    7  C   UNL     1     -42.866  56.439 -55.753  1.00  0.00     0.254 C 
HETATM    8  N   UNL     1     -43.557  55.356 -55.253  1.00  0.00    -0.353 N 
HETATM    9  H   UNL     1     -43.994  54.693 -55.876  1.00  0.00     0.163 HD
HETATM   10  O   UNL     1     -42.169  57.164 -55.047  1.00  0.00    -0.268 OA
BRANCH   8  11
HETATM   11  C   UNL     1     -43.590  55.061 -53.839  1.00  0.00     0.161 C 
BRANCH  11  12
HETATM   12  C   UNL     1     -42.463  54.144 -53.444  1.00  0.00    -0.038 A 
HETATM   13  C   UNL     1     -42.038  54.055 -52.108  1.00  0.00     0.048 A 
HETATM   14  C   UNL     1     -40.971  53.220 -51.730  1.00  0.00     0.102 A 
HETATM   15  C   UNL     1     -40.321  52.459 -52.719  1.00  0.00     0.102 A 
HETATM   16  C   UNL     1     -40.762  52.539 -54.048  1.00  0.00     0.040 A 
HETATM   17  C   UNL     1     -41.816  53.374 -54.412  1.00  0.00     0.012 A 
BRANCH  14  18
HETATM   18  O   UNL     1     -40.551  53.090 -50.434  1.00  0.00    -0.353 OA
HETATM   19  C   UNL     1     -39.728  54.110 -49.884  1.00  0.00     0.210 C 
ENDBRANCH  14  18
BRANCH  15  20
HETATM   20  O   UNL     1     -39.275  51.586 -52.576  1.00  0.00    -0.349 OA
BRANCH  20  21
HETATM   21  C   UNL     1     -39.551  50.191 -52.498  1.00  0.00     0.171 C 
HETATM   22  C   UNL     1     -39.522  49.793 -51.031  1.00  0.00     0.034 C 
ENDBRANCH  20  21
ENDBRANCH  15  20
ENDBRANCH  11  12
ENDBRANCH   8  11
ENDBRANCH   1   7
BRANCH   2  23
HETATM   23  N   UNL     1     -43.250  59.088 -56.803  1.00  0.00    -0.321 N 
HETATM   24  C   UNL     1     -42.350  60.108 -56.582  1.00  0.00     0.265 C 
HETATM   25  O   UNL     1     -41.300  60.315 -57.180  1.00  0.00    -0.267 OA
HETATM   26  H   UNL     1     -44.128  59.143 -56.280  1.00  0.00     0.169 HD
BRANCH  24  27
HETATM   27  C   UNL     1     -42.799  61.042 -55.494  1.00  0.00     0.097 C 
HETATM   28  S   UNL     1     -42.408  60.529 -53.877  1.00  0.00    -0.120 SA
HETATM   29  C   UNL     1     -43.316  61.781 -52.937  1.00  0.00     0.106 C 
HETATM   30  C   UNL     1     -43.156  63.125 -53.622  1.00  0.00     0.185 C 
HETATM   31  O   UNL     1     -43.830  63.155 -54.883  1.00  0.00    -0.353 OA
HETATM   32  C   UNL     1     -43.437  62.192 -55.801  1.00  0.00     0.064 C 
HETATM   33  C   UNL     1     -43.853  62.571 -57.199  1.00  0.00     0.078 C 
ENDBRANCH  24  27
ENDBRANCH   2  23
TORSDOF 8
ENDMDL
MODEL 6
REMARK VINA RESULT:      -7.1      2.754      7.722
REMARK  8 active torsions:
REMARK  status: ('A' for Active; 'I' for Inactive)
REMARK    1  A    between atoms: C_2  and  O_3 
REMARK    2  A    between atoms: O_3  and  C_4 
REMARK    3  A    between atoms: C_5  and  O_6 
REMARK    4  A    between atoms: C_9  and  C_10 
REMARK    5  A    between atoms: C_10  and  N_11 
REMARK       I    between atoms: N_11  and  C_12 
REMARK    6  A    between atoms: C_12  and  C_13 
REMARK    7  A    between atoms: C_14  and  N_15 
REMARK       I    between atoms: N_15  and  C_16 
REMARK    8  A    between atoms: C_16  and  C_17 
ROOT
HETATM    1  C   UNL     1     -44.059  57.033 -53.298  1.00  0.00     0.058 A 
HETATM    2  C   UNL     1     -44.579  58.138 -54.015  1.00  0.00     0.050 A 
HETATM    3  C   UNL     1     -45.140  59.200 -53.296  1.00  0.00     0.030 A 
HETATM    4  C   UNL     1     -45.173  59.186 -51.899  1.00  0.00     0.002 A 
HETATM    5  C   UNL     1     -44.638  58.112 -51.197  1.00  0.00     0.001 A 
HETATM    6  C   UNL     1     -44.078  57.042 -51.890  1.00  0.00     0.019 A 
ENDROOT
BRANCH   1   7
HETATM    7  C   UNL     1     -43.440  55.877 -54.022  1.00  0.00     0.254 C 
HETATM    8  N   UNL     1     -42.067  55.871 -54.148  1.00  0.00    -0.353 N 
HETATM    9  H   UNL     1     -41.502  56.546 -53.655  1.00  0.00     0.163 HD
HETATM   10  O   UNL     1     -44.149  54.971 -54.451  1.00  0.00    -0.268 OA
BRANCH   8  11
HETATM   11  C   UNL     1     -41.376  54.840 -54.889  1.00  0.00     0.161 C 
BRANCH  11  12
HETATM   12  C   UNL     1     -40.745  53.831 -53.965  1.00  0.00    -0.038 A 
HETATM   13  C   UNL     1     -40.792  54.000 -52.571  1.00  0.00     0.048 A 
HETATM   14  C   UNL     1     -40.187  53.077 -51.699  1.00  0.00     0.102 A 
HETATM   15  C   UNL     1     -39.524  51.962 -52.243  1.00  0.00     0.102 A 
HETATM   16  C   UNL     1     -39.496  51.790 -53.634  1.00  0.00     0.040 A 
HETATM   17  C   UNL     1     -40.093  52.714 -54.489  1.00  0.00     0.012 A 
BRANCH  14  18
HETATM   18  O   UNL     1     -40.238  53.199 -50.336  1.00  0.00    -0.353 OA
HETATM   19  C   UNL     1     -39.576  54.300 -49.730  1.00  0.00     0.210 C 
ENDBRANCH  14  18
BRANCH  15  20
HETATM   20  O   UNL     1     -38.878  50.948 -51.586  1.00  0.00    -0.349 OA
BRANCH  20  21
HETATM   21  C   UNL     1     -39.543  49.699 -51.428  1.00  0.00     0.171 C 
HETATM   22  C   UNL     1     -40.322  49.750 -50.124  1.00  0.00     0.034 C 
ENDBRANCH  20  21
ENDBRANCH  15  20
ENDBRANCH  11  12
ENDBRANCH   8  11
ENDBRANCH   1   7
BRANCH   2  23
HETATM   23  N   UNL     1     -44.531  58.135 -55.431  1.00  0.00    -0.321 N 
HETATM   24  C   UNL     1     -43.456  58.379 -56.259  1.00  0.00     0.265 C 
HETATM   25  O   UNL     1     -42.297  58.602 -55.926  1.00  0.00    -0.267 OA
HETATM   26  H   UNL     1     -45.400  57.859 -55.894  1.00  0.00     0.169 HD
BRANCH  24  27
HETATM   27  C   UNL     1     -43.828  58.316 -57.713  1.00  0.00     0.097 C 
HETATM   28  S   UNL     1     -44.526  59.774 -58.359  1.00  0.00    -0.120 SA
HETATM   29  C   UNL     1     -45.015  59.175 -59.995  1.00  0.00     0.106 C 
HETATM   30  C   UNL     1     -43.926  58.269 -60.534  1.00  0.00     0.185 C 
HETATM   31  O   UNL     1     -43.837  57.052 -59.788  1.00  0.00    -0.353 OA
HETATM   32  C   UNL     1     -43.599  57.193 -58.428  1.00  0.00     0.064 C 
HETATM   33  C   UNL     1     -43.085  55.910 -57.829  1.00  0.00     0.078 C 
ENDBRANCH  24  27
ENDBRANCH   2  23
TORSDOF 8
ENDMDL
MODEL 7
REMARK VINA RESULT:      -7.1      2.445      7.486
REMARK  8 active torsions:
REMARK  status: ('A' for Active; 'I' for Inactive)
REMARK    1  A    between atoms: C_2  and  O_3 
REMARK    2  A    between atoms: O_3  and  C_4 
REMARK    3  A    between atoms: C_5  and  O_6 
REMARK    4  A    between atoms: C_9  and  C_10 
REMARK    5  A    between atoms: C_10  and  N_11 
REMARK       I    between atoms: N_11  and  C_12 
REMARK    6  A    between atoms: C_12  and  C_13 
REMARK    7  A    between atoms: C_14  and  N_15 
REMARK       I    between atoms: N_15  and  C_16 
REMARK    8  A    between atoms: C_16  and  C_17 
ROOT
HETATM    1  C   UNL     1     -43.973  59.524 -51.688  1.00  0.00     0.058 A 
HETATM    2  C   UNL     1     -43.426  60.160 -52.831  1.00  0.00     0.050 A 
HETATM    3  C   UNL     1     -43.034  61.500 -52.729  1.00  0.00     0.030 A 
HETATM    4  C   UNL     1     -43.159  62.197 -51.524  1.00  0.00     0.002 A 
HETATM    5  C   UNL     1     -43.671  61.563 -50.397  1.00  0.00     0.001 A 
HETATM    6  C   UNL     1     -44.071  60.231 -50.475  1.00  0.00     0.019 A 
ENDROOT
BRANCH   1   7
HETATM    7  C   UNL     1     -44.398  58.089 -51.746  1.00  0.00     0.254 C 
HETATM    8  N   UNL     1     -44.080  57.291 -50.667  1.00  0.00    -0.353 N 
HETATM    9  H   UNL     1     -43.698  57.694 -49.824  1.00  0.00     0.163 HD
HETATM   10  O   UNL     1     -45.030  57.674 -52.714  1.00  0.00    -0.268 OA
BRANCH   8  11
HETATM   11  C   UNL     1     -44.382  55.878 -50.652  1.00  0.00     0.161 C 
BRANCH  11  12
HETATM   12  C   UNL     1     -43.196  55.060 -51.092  1.00  0.00    -0.038 A 
HETATM   13  C   UNL     1     -42.131  54.799 -50.214  1.00  0.00     0.048 A 
HETATM   14  C   UNL     1     -41.008  54.056 -50.620  1.00  0.00     0.102 A 
HETATM   15  C   UNL     1     -40.959  53.565 -51.937  1.00  0.00     0.102 A 
HETATM   16  C   UNL     1     -42.033  53.814 -52.804  1.00  0.00     0.040 A 
HETATM   17  C   UNL     1     -43.137  54.556 -52.393  1.00  0.00     0.012 A 
BRANCH  14  18
HETATM   18  O   UNL     1     -39.968  53.762 -49.780  1.00  0.00    -0.353 OA
HETATM   19  C   UNL     1     -40.153  53.949 -48.383  1.00  0.00     0.210 C 
ENDBRANCH  14  18
BRANCH  15  20
HETATM   20  O   UNL     1     -39.975  52.823 -52.536  1.00  0.00    -0.349 OA
BRANCH  20  21
HETATM   21  C   UNL     1     -40.173  52.371 -53.872  1.00  0.00     0.171 C 
HETATM   22  C   UNL     1     -39.798  50.899 -53.924  1.00  0.00     0.034 C 
ENDBRANCH  20  21
ENDBRANCH  15  20
ENDBRANCH  11  12
ENDBRANCH   8  11
ENDBRANCH   1   7
BRANCH   2  23
HETATM   23  N   UNL     1     -43.304  59.433 -54.040  1.00  0.00    -0.321 N 
HETATM   24  C   UNL     1     -42.162  58.969 -54.657  1.00  0.00     0.265 C 
HETATM   25  O   UNL     1     -41.010  59.049 -54.245  1.00  0.00    -0.267 OA
HETATM   26  H   UNL     1     -44.190  59.175 -54.483  1.00  0.00     0.169 HD
BRANCH  24  27
HETATM   27  C   UNL     1     -42.456  58.272 -55.955  1.00  0.00     0.097 C 
HETATM   28  S   UNL     1     -42.889  56.592 -55.808  1.00  0.00    -0.120 SA
HETATM   29  C   UNL     1     -42.912  56.132 -57.558  1.00  0.00     0.106 C 
HETATM   30  C   UNL     1     -43.542  57.258 -58.355  1.00  0.00     0.185 C 
HETATM   31  O   UNL     1     -42.714  58.423 -58.366  1.00  0.00    -0.353 OA
HETATM   32  C   UNL     1     -42.394  58.949 -57.123  1.00  0.00     0.064 C 
HETATM   33  C   UNL     1     -41.923  60.375 -57.239  1.00  0.00     0.078 C 
ENDBRANCH  24  27
ENDBRANCH   2  23
TORSDOF 8
ENDMDL
MODEL 8
REMARK VINA RESULT:      -6.9      2.284      3.388
REMARK  8 active torsions:
REMARK  status: ('A' for Active; 'I' for Inactive)
REMARK    1  A    between atoms: C_2  and  O_3 
REMARK    2  A    between atoms: O_3  and  C_4 
REMARK    3  A    between atoms: C_5  and  O_6 
REMARK    4  A    between atoms: C_9  and  C_10 
REMARK    5  A    between atoms: C_10  and  N_11 
REMARK       I    between atoms: N_11  and  C_12 
REMARK    6  A    between atoms: C_12  and  C_13 
REMARK    7  A    between atoms: C_14  and  N_15 
REMARK       I    between atoms: N_15  and  C_16 
REMARK    8  A    between atoms: C_16  and  C_17 
ROOT
HETATM    1  C   UNL     1     -40.439  53.318 -53.484  1.00  0.00     0.058 A 
HETATM    2  C   UNL     1     -40.551  53.769 -52.145  1.00  0.00     0.050 A 
HETATM    3  C   UNL     1     -40.230  52.882 -51.110  1.00  0.00     0.030 A 
HETATM    4  C   UNL     1     -39.789  51.585 -51.384  1.00  0.00     0.002 A 
HETATM    5  C   UNL     1     -39.655  51.154 -52.699  1.00  0.00     0.001 A 
HETATM    6  C   UNL     1     -39.972  52.016 -53.746  1.00  0.00     0.019 A 
ENDROOT
BRANCH   1   7
HETATM    7  C   UNL     1     -40.763  54.232 -54.624  1.00  0.00     0.254 C 
HETATM    8  N   UNL     1     -42.024  54.137 -55.174  1.00  0.00    -0.353 N 
HETATM    9  H   UNL     1     -42.735  53.570 -54.736  1.00  0.00     0.163 HD
HETATM   10  O   UNL     1     -39.930  55.046 -55.015  1.00  0.00    -0.268 OA
BRANCH   8  11
HETATM   11  C   UNL     1     -42.414  54.923 -56.322  1.00  0.00     0.161 C 
BRANCH  11  12
HETATM   12  C   UNL     1     -43.265  56.098 -55.917  1.00  0.00    -0.038 A 
HETATM   13  C   UNL     1     -43.488  57.167 -56.801  1.00  0.00     0.048 A 
HETATM   14  C   UNL     1     -44.261  58.281 -56.427  1.00  0.00     0.102 A 
HETATM   15  C   UNL     1     -44.822  58.316 -55.137  1.00  0.00     0.102 A 
HETATM   16  C   UNL     1     -44.610  57.238 -54.266  1.00  0.00     0.040 A 
HETATM   17  C   UNL     1     -43.837  56.143 -54.645  1.00  0.00     0.012 A 
BRANCH  14  18
HETATM   18  O   UNL     1     -44.520  59.325 -57.274  1.00  0.00    -0.353 OA
HETATM   19  C   UNL     1     -43.592  59.597 -58.315  1.00  0.00     0.210 C 
ENDBRANCH  14  18
BRANCH  15  20
HETATM   20  O   UNL     1     -45.603  59.289 -54.571  1.00  0.00    -0.349 OA
BRANCH  20  21
HETATM   21  C   UNL     1     -45.017  60.552 -54.271  1.00  0.00     0.171 C 
HETATM   22  C   UNL     1     -45.909  61.630 -54.864  1.00  0.00     0.034 C 
ENDBRANCH  20  21
ENDBRANCH  15  20
ENDBRANCH  11  12
ENDBRANCH   8  11
ENDBRANCH   1   7
BRANCH   2  23
HETATM   23  N   UNL     1     -40.995  55.089 -51.889  1.00  0.00    -0.321 N 
HETATM   24  C   UNL     1     -41.097  55.747 -50.683  1.00  0.00     0.265 C 
HETATM   25  O   UNL     1     -40.768  55.329 -49.578  1.00  0.00    -0.267 OA
HETATM   26  H   UNL     1     -41.216  55.641 -52.722  1.00  0.00     0.169 HD
BRANCH  24  27
HETATM   27  C   UNL     1     -41.652  57.136 -50.833  1.00  0.00     0.097 C 
HETATM   28  S   UNL     1     -40.462  58.407 -50.841  1.00  0.00    -0.120 SA
HETATM   29  C   UNL     1     -41.559  59.846 -50.798  1.00  0.00     0.106 C 
HETATM   30  C   UNL     1     -42.747  59.587 -51.704  1.00  0.00     0.185 C 
HETATM   31  O   UNL     1     -43.591  58.556 -51.184  1.00  0.00    -0.353 OA
HETATM   32  C   UNL     1     -42.982  57.328 -50.969  1.00  0.00     0.064 C 
HETATM   33  C   UNL     1     -44.002  56.225 -50.861  1.00  0.00     0.078 C 
ENDBRANCH  24  27
ENDBRANCH   2  23
TORSDOF 8
ENDMDL
MODEL 9
REMARK VINA RESULT:      -6.8      2.145      4.546
REMARK  8 active torsions:
REMARK  status: ('A' for Active; 'I' for Inactive)
REMARK    1  A    between atoms: C_2  and  O_3 
REMARK    2  A    between atoms: O_3  and  C_4 
REMARK    3  A    between atoms: C_5  and  O_6 
REMARK    4  A    between atoms: C_9  and  C_10 
REMARK    5  A    between atoms: C_10  and  N_11 
REMARK       I    between atoms: N_11  and  C_12 
REMARK    6  A    between atoms: C_12  and  C_13 
REMARK    7  A    between atoms: C_14  and  N_15 
REMARK       I    between atoms: N_15  and  C_16 
REMARK    8  A    between atoms: C_16  and  C_17 
ROOT
HETATM    1  C   UNL     1     -40.923  53.340 -52.235  1.00  0.00     0.058 A 
HETATM    2  C   UNL     1     -41.310  53.231 -53.593  1.00  0.00     0.050 A 
HETATM    3  C   UNL     1     -40.826  52.153 -54.343  1.00  0.00     0.030 A 
HETATM    4  C   UNL     1     -39.994  51.189 -53.766  1.00  0.00     0.002 A 
HETATM    5  C   UNL     1     -39.638  51.284 -52.425  1.00  0.00     0.001 A 
HETATM    6  C   UNL     1     -40.103  52.351 -51.659  1.00  0.00     0.019 A 
ENDROOT
BRANCH   1   7
HETATM    7  C   UNL     1     -41.422  54.471 -51.390  1.00  0.00     0.254 C 
HETATM    8  N   UNL     1     -40.622  55.590 -51.293  1.00  0.00    -0.353 N 
HETATM    9  H   UNL     1     -39.804  55.689 -51.875  1.00  0.00     0.163 HD
HETATM   10  O   UNL     1     -42.518  54.390 -50.841  1.00  0.00    -0.268 OA
BRANCH   8  11
HETATM   11  C   UNL     1     -40.977  56.708 -50.448  1.00  0.00     0.161 C 
BRANCH  11  12
HETATM   12  C   UNL     1     -41.375  57.908 -51.267  1.00  0.00    -0.038 A 
HETATM   13  C   UNL     1     -42.422  58.749 -50.855  1.00  0.00     0.048 A 
HETATM   14  C   UNL     1     -42.818  59.859 -51.622  1.00  0.00     0.102 A 
HETATM   15  C   UNL     1     -42.143  60.128 -52.827  1.00  0.00     0.102 A 
HETATM   16  C   UNL     1     -41.087  59.295 -53.224  1.00  0.00     0.040 A 
HETATM   17  C   UNL     1     -40.707  58.194 -52.459  1.00  0.00     0.012 A 
BRANCH  14  18
HETATM   18  O   UNL     1     -43.815  60.713 -51.235  1.00  0.00    -0.353 OA
HETATM   19  C   UNL     1     -43.537  61.656 -50.208  1.00  0.00     0.210 C 
ENDBRANCH  14  18
BRANCH  15  20
HETATM   20  O   UNL     1     -42.357  61.147 -53.718  1.00  0.00    -0.349 OA
BRANCH  20  21
HETATM   21  C   UNL     1     -43.475  61.066 -54.597  1.00  0.00     0.171 C 
HETATM   22  C   UNL     1     -42.977  61.343 -56.006  1.00  0.00     0.034 C 
ENDBRANCH  20  21
ENDBRANCH  15  20
ENDBRANCH  11  12
ENDBRANCH   8  11
ENDBRANCH   1   7
BRANCH   2  23
HETATM   23  N   UNL     1     -42.157  54.215 -54.158  1.00  0.00    -0.321 N 
HETATM   24  C   UNL     1     -41.816  55.416 -54.743  1.00  0.00     0.265 C 
HETATM   25  O   UNL     1     -40.687  55.852 -54.941  1.00  0.00    -0.267 OA
HETATM   26  H   UNL     1     -43.151  53.972 -54.179  1.00  0.00     0.169 HD
BRANCH  24  27
HETATM   27  C   UNL     1     -43.019  56.199 -55.187  1.00  0.00     0.097 C 
HETATM   28  S   UNL     1     -43.948  56.913 -53.901  1.00  0.00    -0.120 SA
HETATM   29  C   UNL     1     -45.364  57.519 -54.852  1.00  0.00     0.106 C 
HETATM   30  C   UNL     1     -44.866  58.098 -56.162  1.00  0.00     0.185 C 
HETATM   31  O   UNL     1     -44.344  57.082 -57.022  1.00  0.00    -0.353 OA
HETATM   32  C   UNL     1     -43.303  56.325 -56.502  1.00  0.00     0.064 C 
HETATM   33  C   UNL     1     -42.544  55.619 -57.594  1.00  0.00     0.078 C 
ENDBRANCH  24  27
ENDBRANCH   2  23
TORSDOF 8
ENDMDL
MODEL 10
REMARK VINA RESULT:      -6.8      1.207      2.317
REMARK  8 active torsions:
REMARK  status: ('A' for Active; 'I' for Inactive)
REMARK    1  A    between atoms: C_2  and  O_3 
REMARK    2  A    between atoms: O_3  and  C_4 
REMARK    3  A    between atoms: C_5  and  O_6 
REMARK    4  A    between atoms: C_9  and  C_10 
REMARK    5  A    between atoms: C_10  and  N_11 
REMARK       I    between atoms: N_11  and  C_12 
REMARK    6  A    between atoms: C_12  and  C_13 
REMARK    7  A    between atoms: C_14  and  N_15 
REMARK       I    between atoms: N_15  and  C_16 
REMARK    8  A    between atoms: C_16  and  C_17 
ROOT
HETATM    1  C   UNL     1     -41.462  53.721 -53.897  1.00  0.00     0.058 A 
HETATM    2  C   UNL     1     -41.188  54.340 -52.652  1.00  0.00     0.050 A 
HETATM    3  C   UNL     1     -40.349  53.680 -51.747  1.00  0.00     0.030 A 
HETATM    4  C   UNL     1     -39.773  52.447 -52.065  1.00  0.00     0.002 A 
HETATM    5  C   UNL     1     -40.022  51.855 -53.298  1.00  0.00     0.001 A 
HETATM    6  C   UNL     1     -40.858  52.490 -54.214  1.00  0.00     0.019 A 
ENDROOT
BRANCH   1   7
HETATM    7  C   UNL     1     -42.347  54.392 -54.902  1.00  0.00     0.254 C 
HETATM    8  N   UNL     1     -41.735  55.148 -55.880  1.00  0.00    -0.353 N 
HETATM    9  H   UNL     1     -40.732  55.135 -55.988  1.00  0.00     0.163 HD
HETATM   10  O   UNL     1     -43.563  54.233 -54.852  1.00  0.00    -0.268 OA
BRANCH   8  11
HETATM   11  C   UNL     1     -42.499  55.893 -56.855  1.00  0.00     0.161 C 
BRANCH  11  12
HETATM   12  C   UNL     1     -42.558  57.356 -56.503  1.00  0.00    -0.038 A 
HETATM   13  C   UNL     1     -42.422  58.344 -57.493  1.00  0.00     0.048 A 
HETATM   14  C   UNL     1     -42.452  59.713 -57.174  1.00  0.00     0.102 A 
HETATM   15  C   UNL     1     -42.625  60.094 -55.830  1.00  0.00     0.102 A 
HETATM   16  C   UNL     1     -42.778  59.103 -54.850  1.00  0.00     0.040 A 
HETATM   17  C   UNL     1     -42.740  57.750 -55.176  1.00  0.00     0.012 A 
BRANCH  14  18
HETATM   18  O   UNL     1     -42.350  60.699 -58.118  1.00  0.00    -0.353 OA
HETATM   19  C   UNL     1     -41.074  61.276 -58.358  1.00  0.00     0.210 C 
ENDBRANCH  14  18
BRANCH  15  20
HETATM   20  O   UNL     1     -42.688  61.356 -55.302  1.00  0.00    -0.349 OA
BRANCH  20  21
HETATM   21  C   UNL     1     -43.650  61.627 -54.287  1.00  0.00     0.171 C 
HETATM   22  C   UNL     1     -43.169  62.838 -53.505  1.00  0.00     0.034 C 
ENDBRANCH  20  21
ENDBRANCH  15  20
ENDBRANCH  11  12
ENDBRANCH   8  11
ENDBRANCH   1   7
BRANCH   2  23
HETATM   23  N   UNL     1     -41.778  55.592 -52.352  1.00  0.00    -0.321 N 
HETATM   24  C   UNL     1     -42.214  56.071 -51.135  1.00  0.00     0.265 C 
HETATM   25  O   UNL     1     -42.128  55.518 -50.044  1.00  0.00    -0.267 OA
HETATM   26  H   UNL     1     -41.834  56.244 -53.138  1.00  0.00     0.169 HD
BRANCH  24  27
HETATM   27  C   UNL     1     -42.819  57.442 -51.244  1.00  0.00     0.097 C 
HETATM   28  S   UNL     1     -44.552  57.472 -51.400  1.00  0.00    -0.120 SA
HETATM   29  C   UNL     1     -44.794  59.235 -51.730  1.00  0.00     0.106 C 
HETATM   30  C   UNL     1     -43.860  60.036 -50.844  1.00  0.00     0.185 C 
HETATM   31  O   UNL     1     -42.492  59.850 -51.218  1.00  0.00    -0.353 OA
HETATM   32  C   UNL     1     -42.033  58.541 -51.198  1.00  0.00     0.064 C 
HETATM   33  C   UNL     1     -40.528  58.492 -51.161  1.00  0.00     0.078 C 
ENDBRANCH  24  27
ENDBRANCH   2  23
TORSDOF 8
ENDMDL
