MODEL 1
REMARK VINA RESULT:      -6.9      0.000      0.000
REMARK  3 active torsions:
REMARK  status: ('A' for Active; 'I' for Inactive)
REMARK       I    between atoms: C_2  and  N_3 
REMARK    1  A    between atoms: N_3  and  C_4 
REMARK    2  A    between atoms: C_7  and  C_8 
REMARK       I    between atoms: C_8  and  N_9 
REMARK    3  A    between atoms: N_9  and  C_10 
ROOT
HETATM    1  C   UNL     1     -40.628  53.204 -54.155  1.00  0.00     0.034 A 
HETATM    2  C   UNL     1     -40.158  54.238 -54.968  1.00  0.00     0.030 A 
HETATM    3  C   UNL     1     -40.478  55.575 -54.689  1.00  0.00     0.019 A 
HETATM    4  C   UNL     1     -41.264  55.898 -53.576  1.00  0.00     0.032 A 
HETATM    5  C   UNL     1     -41.755  54.858 -52.776  1.00  0.00     0.019 A 
HETATM    6  C   UNL     1     -41.441  53.526 -53.063  1.00  0.00     0.030 A 
ENDROOT
BRANCH   4   7
HETATM    7  C   UNL     1     -41.622  57.302 -53.196  1.00  0.00     0.257 C 
HETATM    8  N   UNL     1     -42.145  57.468 -51.928  1.00  0.00    -0.307 N 
HETATM    9  H   UNL     1     -42.257  56.661 -51.339  1.00  0.00     0.170 HD
HETATM   10  O   UNL     1     -41.447  58.176 -54.037  1.00  0.00    -0.267 OA
BRANCH   8  11
HETATM   11  C   UNL     1     -42.616  58.680 -51.399  1.00  0.00     0.130 A 
HETATM   12  N   UNL     1     -43.928  58.974 -51.397  1.00  0.00    -0.242 NA
HETATM   13  C   UNL     1     -44.321  60.146 -50.844  1.00  0.00     0.142 A 
HETATM   14  C   UNL     1     -43.447  61.063 -50.288  1.00  0.00     0.051 A 
HETATM   15 CL   UNL     1     -44.013  62.528 -49.603  1.00  0.00    -0.083 Cl
HETATM   16  C   UNL     1     -42.094  60.760 -50.300  1.00  0.00     0.029 A 
HETATM   17  C   UNL     1     -41.671  59.551 -50.857  1.00  0.00     0.052 A 
ENDBRANCH   8  11
ENDBRANCH   4   7
BRANCH   1  18
HETATM   18  N   UNL     1     -40.342  51.841 -54.364  1.00  0.00    -0.328 N 
HETATM   19  C   UNL     1     -39.630  50.994 -53.535  1.00  0.00     0.218 C 
HETATM   20  C   UNL     1     -39.526  49.589 -54.078  1.00  0.00     0.117 C 
HETATM   21  O   UNL     1     -39.134  51.276 -52.449  1.00  0.00    -0.274 OA
HETATM   22  H   UNL     1     -40.724  51.436 -55.209  1.00  0.00     0.169 HD
ENDBRANCH   1  18
TORSDOF 3
ENDMDL
MODEL 2
REMARK VINA RESULT:      -6.8     16.220     17.973
REMARK  3 active torsions:
REMARK  status: ('A' for Active; 'I' for Inactive)
REMARK       I    between atoms: C_2  and  N_3 
REMARK    1  A    between atoms: N_3  and  C_4 
REMARK    2  A    between atoms: C_7  and  C_8 
REMARK       I    between atoms: C_8  and  N_9 
REMARK    3  A    between atoms: N_9  and  C_10 
ROOT
HETATM    1  C   UNL     1     -35.889  42.082 -57.067  1.00  0.00     0.034 A 
HETATM    2  C   UNL     1     -34.625  41.576 -56.756  1.00  0.00     0.030 A 
HETATM    3  C   UNL     1     -34.247  41.354 -55.424  1.00  0.00     0.019 A 
HETATM    4  C   UNL     1     -35.141  41.620 -54.380  1.00  0.00     0.032 A 
HETATM    5  C   UNL     1     -36.399  42.150 -54.691  1.00  0.00     0.019 A 
HETATM    6  C   UNL     1     -36.768  42.380 -56.020  1.00  0.00     0.030 A 
ENDROOT
BRANCH   4   7
HETATM    7  C   UNL     1     -34.821  41.379 -52.936  1.00  0.00     0.257 C 
HETATM    8  N   UNL     1     -33.943  40.344 -52.678  1.00  0.00    -0.307 N 
HETATM    9  H   UNL     1     -33.573  39.817 -53.449  1.00  0.00     0.170 HD
HETATM   10  O   UNL     1     -35.374  42.096 -52.109  1.00  0.00    -0.267 OA
BRANCH   8  11
HETATM   11  C   UNL     1     -33.569  39.901 -51.400  1.00  0.00     0.130 A 
HETATM   12  N   UNL     1     -34.419  39.197 -50.631  1.00  0.00    -0.242 NA
HETATM   13  C   UNL     1     -33.987  38.772 -49.420  1.00  0.00     0.142 A 
HETATM   14  C   UNL     1     -32.721  39.028 -48.925  1.00  0.00     0.051 A 
HETATM   15 CL   UNL     1     -32.237  38.457 -47.383  1.00  0.00    -0.083 Cl
HETATM   16  C   UNL     1     -31.849  39.761 -49.717  1.00  0.00     0.029 A 
HETATM   17  C   UNL     1     -32.275  40.199 -50.973  1.00  0.00     0.052 A 
ENDBRANCH   8  11
ENDBRANCH   4   7
BRANCH   1  18
HETATM   18  N   UNL     1     -36.345  42.323 -58.378  1.00  0.00    -0.328 N 
HETATM   19  C   UNL     1     -37.274  41.590 -59.094  1.00  0.00     0.218 C 
HETATM   20  C   UNL     1     -37.525  42.146 -60.474  1.00  0.00     0.117 C 
HETATM   21  O   UNL     1     -37.887  40.602 -58.704  1.00  0.00    -0.274 OA
HETATM   22  H   UNL     1     -35.961  43.141 -58.834  1.00  0.00     0.169 HD
ENDBRANCH   1  18
TORSDOF 3
ENDMDL
MODEL 3
REMARK VINA RESULT:      -6.7     16.625     18.741
REMARK  3 active torsions:
REMARK  status: ('A' for Active; 'I' for Inactive)
REMARK       I    between atoms: C_2  and  N_3 
REMARK    1  A    between atoms: N_3  and  C_4 
REMARK    2  A    between atoms: C_7  and  C_8 
REMARK       I    between atoms: C_8  and  N_9 
REMARK    3  A    between atoms: N_9  and  C_10 
ROOT
HETATM    1  C   UNL     1     -35.855  42.063 -54.871  1.00  0.00     0.034 A 
HETATM    2  C   UNL     1     -35.093  42.315 -56.014  1.00  0.00     0.030 A 
HETATM    3  C   UNL     1     -35.568  41.964 -57.287  1.00  0.00     0.019 A 
HETATM    4  C   UNL     1     -36.826  41.370 -57.434  1.00  0.00     0.032 A 
HETATM    5  C   UNL     1     -37.579  41.095 -56.285  1.00  0.00     0.019 A 
HETATM    6  C   UNL     1     -37.097  41.438 -55.018  1.00  0.00     0.030 A 
ENDROOT
BRANCH   4   7
HETATM    7  C   UNL     1     -37.414  40.995 -58.761  1.00  0.00     0.257 C 
HETATM    8  N   UNL     1     -37.746  39.664 -58.918  1.00  0.00    -0.307 N 
HETATM    9  H   UNL     1     -37.581  39.028 -58.156  1.00  0.00     0.170 HD
HETATM   10  O   UNL     1     -37.531  41.884 -59.597  1.00  0.00    -0.267 OA
BRANCH   8  11
HETATM   11  C   UNL     1     -38.236  39.086 -60.099  1.00  0.00     0.130 A 
HETATM   12  N   UNL     1     -37.543  39.161 -61.249  1.00  0.00    -0.242 NA
HETATM   13  C   UNL     1     -38.056  38.557 -62.348  1.00  0.00     0.142 A 
HETATM   14  C   UNL     1     -39.258  37.873 -62.355  1.00  0.00     0.051 A 
HETATM   15 CL   UNL     1     -39.848  37.128 -63.782  1.00  0.00    -0.083 Cl
HETATM   16  C   UNL     1     -39.974  37.805 -61.169  1.00  0.00     0.029 A 
HETATM   17  C   UNL     1     -39.456  38.414 -60.025  1.00  0.00     0.052 A 
ENDBRANCH   8  11
ENDBRANCH   4   7
BRANCH   1  18
HETATM   18  N   UNL     1     -35.451  42.395 -53.562  1.00  0.00    -0.328 N 
HETATM   19  C   UNL     1     -34.966  41.540 -52.590  1.00  0.00     0.218 C 
HETATM   20  C   UNL     1     -34.625  42.248 -51.301  1.00  0.00     0.117 C 
HETATM   21  O   UNL     1     -34.779  40.333 -52.701  1.00  0.00    -0.274 OA
HETATM   22  H   UNL     1     -35.504  43.376 -53.322  1.00  0.00     0.169 HD
ENDBRANCH   1  18
TORSDOF 3
ENDMDL
MODEL 4
REMARK VINA RESULT:      -6.6      3.932      8.513
REMARK  3 active torsions:
REMARK  status: ('A' for Active; 'I' for Inactive)
REMARK       I    between atoms: C_2  and  N_3 
REMARK    1  A    between atoms: N_3  and  C_4 
REMARK    2  A    between atoms: C_7  and  C_8 
REMARK       I    between atoms: C_8  and  N_9 
REMARK    3  A    between atoms: N_9  and  C_10 
ROOT
HETATM    1  C   UNL     1     -42.848  59.755 -50.964  1.00  0.00     0.034 A 
HETATM    2  C   UNL     1     -41.612  59.168 -50.684  1.00  0.00     0.030 A 
HETATM    3  C   UNL     1     -41.381  57.812 -50.958  1.00  0.00     0.019 A 
HETATM    4  C   UNL     1     -42.384  57.025 -51.535  1.00  0.00     0.032 A 
HETATM    5  C   UNL     1     -43.632  57.608 -51.792  1.00  0.00     0.019 A 
HETATM    6  C   UNL     1     -43.860  58.958 -51.509  1.00  0.00     0.030 A 
ENDROOT
BRANCH   4   7
HETATM    7  C   UNL     1     -42.204  55.579 -51.884  1.00  0.00     0.257 C 
HETATM    8  N   UNL     1     -40.915  55.191 -52.195  1.00  0.00    -0.307 N 
HETATM    9  H   UNL     1     -40.182  55.879 -52.174  1.00  0.00     0.170 HD
HETATM   10  O   UNL     1     -43.204  54.870 -51.886  1.00  0.00    -0.267 OA
BRANCH   8  11
HETATM   11  C   UNL     1     -40.536  53.908 -52.622  1.00  0.00     0.130 A 
HETATM   12  N   UNL     1     -40.106  52.983 -51.746  1.00  0.00    -0.242 NA
HETATM   13  C   UNL     1     -39.785  51.755 -52.218  1.00  0.00     0.142 A 
HETATM   14  C   UNL     1     -39.867  51.400 -53.552  1.00  0.00     0.051 A 
HETATM   15 CL   UNL     1     -39.446  49.825 -54.081  1.00  0.00    -0.083 Cl
HETATM   16  C   UNL     1     -40.303  52.360 -54.454  1.00  0.00     0.029 A 
HETATM   17  C   UNL     1     -40.647  53.629 -53.984  1.00  0.00     0.052 A 
ENDBRANCH   8  11
ENDBRANCH   4   7
BRANCH   1  18
HETATM   18  N   UNL     1     -43.152  61.110 -50.728  1.00  0.00    -0.328 N 
HETATM   19  C   UNL     1     -43.878  61.638 -49.676  1.00  0.00     0.218 C 
HETATM   20  C   UNL     1     -44.000  63.141 -49.741  1.00  0.00     0.117 C 
HETATM   21  O   UNL     1     -44.374  61.017 -48.741  1.00  0.00    -0.274 OA
HETATM   22  H   UNL     1     -42.773  61.768 -51.396  1.00  0.00     0.169 HD
ENDBRANCH   1  18
TORSDOF 3
ENDMDL
MODEL 5
REMARK VINA RESULT:      -6.6      4.676      7.956
REMARK  3 active torsions:
REMARK  status: ('A' for Active; 'I' for Inactive)
REMARK       I    between atoms: C_2  and  N_3 
REMARK    1  A    between atoms: N_3  and  C_4 
REMARK    2  A    between atoms: C_7  and  C_8 
REMARK       I    between atoms: C_8  and  N_9 
REMARK    3  A    between atoms: N_9  and  C_10 
ROOT
HETATM    1  C   UNL     1     -42.689  58.174 -57.044  1.00  0.00     0.034 A 
HETATM    2  C   UNL     1     -42.495  58.435 -55.685  1.00  0.00     0.030 A 
HETATM    3  C   UNL     1     -42.331  57.387 -54.768  1.00  0.00     0.019 A 
HETATM    4  C   UNL     1     -42.343  56.056 -55.203  1.00  0.00     0.032 A 
HETATM    5  C   UNL     1     -42.562  55.795 -56.561  1.00  0.00     0.019 A 
HETATM    6  C   UNL     1     -42.734  56.842 -57.471  1.00  0.00     0.030 A 
ENDROOT
BRANCH   4   7
HETATM    7  C   UNL     1     -42.145  54.886 -54.288  1.00  0.00     0.257 C 
HETATM    8  N   UNL     1     -40.833  54.528 -54.044  1.00  0.00    -0.307 N 
HETATM    9  H   UNL     1     -40.096  55.055 -54.480  1.00  0.00     0.170 HD
HETATM   10  O   UNL     1     -43.149  54.333 -53.854  1.00  0.00    -0.267 OA
BRANCH   8  11
HETATM   11  C   UNL     1     -40.424  53.421 -53.283  1.00  0.00     0.130 A 
HETATM   12  N   UNL     1     -40.348  53.490 -51.942  1.00  0.00    -0.242 NA
HETATM   13  C   UNL     1     -39.976  52.379 -51.263  1.00  0.00     0.142 A 
HETATM   14  C   UNL     1     -39.663  51.177 -51.873  1.00  0.00     0.051 A 
HETATM   15 CL   UNL     1     -39.202  49.807 -50.952  1.00  0.00    -0.083 Cl
HETATM   16  C   UNL     1     -39.735  51.112 -53.256  1.00  0.00     0.029 A 
HETATM   17  C   UNL     1     -40.126  52.246 -53.972  1.00  0.00     0.052 A 
ENDBRANCH   8  11
ENDBRANCH   4   7
BRANCH   1  18
HETATM   18  N   UNL     1     -42.850  59.171 -58.026  1.00  0.00    -0.328 N 
HETATM   19  C   UNL     1     -42.028  60.257 -58.266  1.00  0.00     0.218 C 
HETATM   20  C   UNL     1     -42.509  61.117 -59.409  1.00  0.00     0.117 C 
HETATM   21  O   UNL     1     -40.992  60.537 -57.674  1.00  0.00    -0.274 OA
HETATM   22  H   UNL     1     -43.649  59.060 -58.637  1.00  0.00     0.169 HD
ENDBRANCH   1  18
TORSDOF 3
ENDMDL
MODEL 6
REMARK VINA RESULT:      -6.6      4.800      5.882
REMARK  3 active torsions:
REMARK  status: ('A' for Active; 'I' for Inactive)
REMARK       I    between atoms: C_2  and  N_3 
REMARK    1  A    between atoms: N_3  and  C_4 
REMARK    2  A    between atoms: C_7  and  C_8 
REMARK       I    between atoms: C_8  and  N_9 
REMARK    3  A    between atoms: N_9  and  C_10 
ROOT
HETATM    1  C   UNL     1     -40.858  53.016 -53.637  1.00  0.00     0.034 A 
HETATM    2  C   UNL     1     -42.010  53.694 -53.234  1.00  0.00     0.030 A 
HETATM    3  C   UNL     1     -42.495  54.786 -53.967  1.00  0.00     0.019 A 
HETATM    4  C   UNL     1     -41.840  55.206 -55.131  1.00  0.00     0.032 A 
HETATM    5  C   UNL     1     -40.671  54.541 -55.521  1.00  0.00     0.019 A 
HETATM    6  C   UNL     1     -40.185  53.458 -54.781  1.00  0.00     0.030 A 
ENDROOT
BRANCH   4   7
HETATM    7  C   UNL     1     -42.315  56.343 -55.983  1.00  0.00     0.257 C 
HETATM    8  N   UNL     1     -42.530  56.048 -57.315  1.00  0.00    -0.307 N 
HETATM    9  H   UNL     1     -42.361  55.112 -57.640  1.00  0.00     0.170 HD
HETATM   10  O   UNL     1     -42.452  57.435 -55.442  1.00  0.00    -0.267 OA
BRANCH   8  11
HETATM   11  C   UNL     1     -42.900  56.978 -58.300  1.00  0.00     0.130 A 
HETATM   12  N   UNL     1     -44.190  57.155 -58.638  1.00  0.00    -0.242 NA
HETATM   13  C   UNL     1     -44.484  58.089 -59.574  1.00  0.00     0.142 A 
HETATM   14  C   UNL     1     -43.532  58.866 -60.208  1.00  0.00     0.051 A 
HETATM   15 CL   UNL     1     -43.974  60.032 -61.384  1.00  0.00    -0.083 Cl
HETATM   16  C   UNL     1     -42.202  58.674 -59.863  1.00  0.00     0.029 A 
HETATM   17  C   UNL     1     -41.881  57.722 -58.893  1.00  0.00     0.052 A 
ENDBRANCH   8  11
ENDBRANCH   4   7
BRANCH   1  18
HETATM   18  N   UNL     1     -40.314  51.905 -52.960  1.00  0.00    -0.328 N 
HETATM   19  C   UNL     1     -39.838  51.862 -51.663  1.00  0.00     0.218 C 
HETATM   20  C   UNL     1     -39.334  50.495 -51.267  1.00  0.00     0.117 C 
HETATM   21  O   UNL     1     -39.822  52.785 -50.856  1.00  0.00    -0.274 OA
HETATM   22  H   UNL     1     -40.295  51.039 -53.482  1.00  0.00     0.169 HD
ENDBRANCH   1  18
TORSDOF 3
ENDMDL
MODEL 7
REMARK VINA RESULT:      -6.6     16.709     18.332
REMARK  3 active torsions:
REMARK  status: ('A' for Active; 'I' for Inactive)
REMARK       I    between atoms: C_2  and  N_3 
REMARK    1  A    between atoms: N_3  and  C_4 
REMARK    2  A    between atoms: C_7  and  C_8 
REMARK       I    between atoms: C_8  and  N_9 
REMARK    3  A    between atoms: N_9  and  C_10 
ROOT
HETATM    1  C   UNL     1     -32.669  39.433 -49.448  1.00  0.00     0.034 A 
HETATM    2  C   UNL     1     -31.957  40.007 -50.504  1.00  0.00     0.030 A 
HETATM    3  C   UNL     1     -32.625  40.558 -51.607  1.00  0.00     0.019 A 
HETATM    4  C   UNL     1     -34.024  40.557 -51.660  1.00  0.00     0.032 A 
HETATM    5  C   UNL     1     -34.736  39.960 -50.613  1.00  0.00     0.019 A 
HETATM    6  C   UNL     1     -34.066  39.403 -49.519  1.00  0.00     0.030 A 
ENDROOT
BRANCH   4   7
HETATM    7  C   UNL     1     -34.809  41.153 -52.789  1.00  0.00     0.257 C 
HETATM    8  N   UNL     1     -34.752  40.470 -53.989  1.00  0.00    -0.307 N 
HETATM    9  H   UNL     1     -34.201  39.630 -54.044  1.00  0.00     0.170 HD
HETATM   10  O   UNL     1     -35.413  42.196 -52.567  1.00  0.00    -0.267 OA
BRANCH   8  11
HETATM   11  C   UNL     1     -35.347  40.890 -55.189  1.00  0.00     0.130 A 
HETATM   12  N   UNL     1     -36.595  40.511 -55.516  1.00  0.00    -0.242 NA
HETATM   13  C   UNL     1     -37.123  40.975 -56.673  1.00  0.00     0.142 A 
HETATM   14  C   UNL     1     -36.447  41.812 -57.542  1.00  0.00     0.051 A 
HETATM   15 CL   UNL     1     -37.177  42.366 -58.991  1.00  0.00    -0.083 Cl
HETATM   16  C   UNL     1     -35.157  42.195 -57.206  1.00  0.00     0.029 A 
HETATM   17  C   UNL     1     -34.600  41.733 -56.011  1.00  0.00     0.052 A 
ENDBRANCH   8  11
ENDBRANCH   4   7
BRANCH   1  18
HETATM   18  N   UNL     1     -32.070  38.870 -48.303  1.00  0.00    -0.328 N 
HETATM   19  C   UNL     1     -31.207  39.487 -47.416  1.00  0.00     0.218 C 
HETATM   20  C   UNL     1     -30.767  38.576 -46.295  1.00  0.00     0.117 C 
HETATM   21  O   UNL     1     -30.822  40.650 -47.455  1.00  0.00    -0.274 OA
HETATM   22  H   UNL     1     -32.324  37.912 -48.101  1.00  0.00     0.169 HD
ENDBRANCH   1  18
TORSDOF 3
ENDMDL
MODEL 8
REMARK VINA RESULT:      -6.2     16.924     18.187
REMARK  3 active torsions:
REMARK  status: ('A' for Active; 'I' for Inactive)
REMARK       I    between atoms: C_2  and  N_3 
REMARK    1  A    between atoms: N_3  and  C_4 
REMARK    2  A    between atoms: C_7  and  C_8 
REMARK       I    between atoms: C_8  and  N_9 
REMARK    3  A    between atoms: N_9  and  C_10 
ROOT
HETATM    1  C   UNL     1     -36.973  40.436 -58.490  1.00  0.00     0.034 A 
HETATM    2  C   UNL     1     -36.361  41.670 -58.257  1.00  0.00     0.030 A 
HETATM    3  C   UNL     1     -35.813  41.976 -57.003  1.00  0.00     0.019 A 
HETATM    4  C   UNL     1     -35.855  41.039 -55.964  1.00  0.00     0.032 A 
HETATM    5  C   UNL     1     -36.490  39.812 -56.190  1.00  0.00     0.019 A 
HETATM    6  C   UNL     1     -37.044  39.514 -57.440  1.00  0.00     0.030 A 
ENDROOT
BRANCH   4   7
HETATM    7  C   UNL     1     -35.265  41.281 -54.608  1.00  0.00     0.257 C 
HETATM    8  N   UNL     1     -34.537  40.236 -54.073  1.00  0.00    -0.307 N 
HETATM    9  H   UNL     1     -34.442  39.388 -54.604  1.00  0.00     0.170 HD
HETATM   10  O   UNL     1     -35.491  42.364 -54.079  1.00  0.00    -0.267 OA
BRANCH   8  11
HETATM   11  C   UNL     1     -33.965  40.221 -52.791  1.00  0.00     0.130 A 
HETATM   12  N   UNL     1     -34.727  40.081 -51.691  1.00  0.00    -0.242 NA
HETATM   13  C   UNL     1     -34.112  40.044 -50.486  1.00  0.00     0.142 A 
HETATM   14  C   UNL     1     -32.743  40.150 -50.320  1.00  0.00     0.051 A 
HETATM   15 CL   UNL     1     -32.028  40.092 -48.763  1.00  0.00    -0.083 Cl
HETATM   16  C   UNL     1     -31.961  40.303 -51.455  1.00  0.00     0.029 A 
HETATM   17  C   UNL     1     -32.578  40.333 -52.708  1.00  0.00     0.052 A 
ENDBRANCH   8  11
ENDBRANCH   4   7
BRANCH   1  18
HETATM   18  N   UNL     1     -37.536  40.052 -59.723  1.00  0.00    -0.328 N 
HETATM   19  C   UNL     1     -36.935  39.319 -60.730  1.00  0.00     0.218 C 
HETATM   20  C   UNL     1     -37.845  39.088 -61.912  1.00  0.00     0.117 C 
HETATM   21  O   UNL     1     -35.802  38.851 -60.721  1.00  0.00    -0.274 OA
HETATM   22  H   UNL     1     -38.498  40.328 -59.871  1.00  0.00     0.169 HD
ENDBRANCH   1  18
TORSDOF 3
ENDMDL
MODEL 9
REMARK VINA RESULT:      -6.0      2.194      2.944
REMARK  3 active torsions:
REMARK  status: ('A' for Active; 'I' for Inactive)
REMARK       I    between atoms: C_2  and  N_3 
REMARK    1  A    between atoms: N_3  and  C_4 
REMARK    2  A    between atoms: C_7  and  C_8 
REMARK       I    between atoms: C_8  and  N_9 
REMARK    3  A    between atoms: N_9  and  C_10 
ROOT
HETATM    1  C   UNL     1     -41.483  54.145 -52.028  1.00  0.00     0.034 A 
HETATM    2  C   UNL     1     -42.603  53.922 -51.223  1.00  0.00     0.030 A 
HETATM    3  C   UNL     1     -43.486  54.967 -50.914  1.00  0.00     0.019 A 
HETATM    4  C   UNL     1     -43.269  56.252 -51.424  1.00  0.00     0.032 A 
HETATM    5  C   UNL     1     -42.132  56.480 -52.210  1.00  0.00     0.019 A 
HETATM    6  C   UNL     1     -41.249  55.438 -52.508  1.00  0.00     0.030 A 
ENDROOT
BRANCH   4   7
HETATM    7  C   UNL     1     -44.183  57.411 -51.163  1.00  0.00     0.257 C 
HETATM    8  N   UNL     1     -43.721  58.646 -51.575  1.00  0.00    -0.307 N 
HETATM    9  H   UNL     1     -42.820  58.706 -52.016  1.00  0.00     0.170 HD
HETATM   10  O   UNL     1     -45.242  57.176 -50.594  1.00  0.00    -0.267 OA
BRANCH   8  11
HETATM   11  C   UNL     1     -44.379  59.868 -51.362  1.00  0.00     0.130 A 
HETATM   12  N   UNL     1     -45.420  60.239 -52.128  1.00  0.00    -0.242 NA
HETATM   13  C   UNL     1     -46.031  61.416 -51.852  1.00  0.00     0.142 A 
HETATM   14  C   UNL     1     -45.640  62.262 -50.830  1.00  0.00     0.051 A 
HETATM   15 CL   UNL     1     -46.460  63.737 -50.533  1.00  0.00    -0.083 Cl
HETATM   16  C   UNL     1     -44.561  61.879 -50.047  1.00  0.00     0.029 A 
HETATM   17  C   UNL     1     -43.925  60.664 -50.311  1.00  0.00     0.052 A 
ENDBRANCH   8  11
ENDBRANCH   4   7
BRANCH   1  18
HETATM   18  N   UNL     1     -40.557  53.146 -52.391  1.00  0.00    -0.328 N 
HETATM   19  C   UNL     1     -40.568  52.363 -53.530  1.00  0.00     0.218 C 
HETATM   20  C   UNL     1     -39.410  51.397 -53.591  1.00  0.00     0.117 C 
HETATM   21  O   UNL     1     -41.382  52.412 -54.447  1.00  0.00    -0.274 OA
HETATM   22  H   UNL     1     -39.787  53.009 -51.750  1.00  0.00     0.169 HD
ENDBRANCH   1  18
TORSDOF 3
ENDMDL
MODEL 10
REMARK VINA RESULT:      -6.0     17.361     19.256
REMARK  3 active torsions:
REMARK  status: ('A' for Active; 'I' for Inactive)
REMARK       I    between atoms: C_2  and  N_3 
REMARK    1  A    between atoms: N_3  and  C_4 
REMARK    2  A    between atoms: C_7  and  C_8 
REMARK       I    between atoms: C_8  and  N_9 
REMARK    3  A    between atoms: N_9  and  C_10 
ROOT
HETATM    1  C   UNL     1     -33.930  40.883 -55.243  1.00  0.00     0.034 A 
HETATM    2  C   UNL     1     -34.685  41.992 -55.634  1.00  0.00     0.030 A 
HETATM    3  C   UNL     1     -35.600  41.901 -56.693  1.00  0.00     0.019 A 
HETATM    4  C   UNL     1     -35.786  40.689 -57.367  1.00  0.00     0.032 A 
HETATM    5  C   UNL     1     -35.012  39.585 -56.990  1.00  0.00     0.019 A 
HETATM    6  C   UNL     1     -34.093  39.682 -55.940  1.00  0.00     0.030 A 
ENDROOT
BRANCH   4   7
HETATM    7  C   UNL     1     -36.766  40.507 -58.486  1.00  0.00     0.257 C 
HETATM    8  N   UNL     1     -37.001  39.202 -58.874  1.00  0.00    -0.307 N 
HETATM    9  H   UNL     1     -36.516  38.459 -58.401  1.00  0.00     0.170 HD
HETATM   10  O   UNL     1     -37.257  41.517 -58.976  1.00  0.00    -0.267 OA
BRANCH   8  11
HETATM   11  C   UNL     1     -37.819  38.811 -59.946  1.00  0.00     0.130 A 
HETATM   12  N   UNL     1     -39.065  38.350 -59.737  1.00  0.00    -0.242 NA
HETATM   13  C   UNL     1     -39.814  38.018 -60.816  1.00  0.00     0.142 A 
HETATM   14  C   UNL     1     -39.367  38.119 -62.121  1.00  0.00     0.051 A 
HETATM   15 CL   UNL     1     -40.370  37.683 -63.441  1.00  0.00    -0.083 Cl
HETATM   16  C   UNL     1     -38.078  38.587 -62.332  1.00  0.00     0.029 A 
HETATM   17  C   UNL     1     -37.295  38.943 -61.232  1.00  0.00     0.052 A 
ENDBRANCH   8  11
ENDBRANCH   4   7
BRANCH   1  18
HETATM   18  N   UNL     1     -33.000  40.893 -54.185  1.00  0.00    -0.328 N 
HETATM   19  C   UNL     1     -33.237  40.602 -52.854  1.00  0.00     0.218 C 
HETATM   20  C   UNL     1     -31.998  40.707 -51.999  1.00  0.00     0.117 C 
HETATM   21  O   UNL     1     -34.305  40.261 -52.356  1.00  0.00    -0.274 OA
HETATM   22  H   UNL     1     -32.047  41.116 -54.440  1.00  0.00     0.169 HD
ENDBRANCH   1  18
TORSDOF 3
ENDMDL
