MODEL 1
REMARK VINA RESULT:      -9.3      0.000      0.000
REMARK  7 active torsions:
REMARK  status: ('A' for Active; 'I' for Inactive)
REMARK    1  A    between atoms: C_4  and  N_5 
REMARK    2  A    between atoms: C_6  and  S_7 
REMARK    3  A    between atoms: S_7  and  C_8 
REMARK    4  A    between atoms: C_8  and  C_9 
REMARK       I    between atoms: C_9  and  N_10 
REMARK    5  A    between atoms: C_12  and  C_13 
REMARK    6  A    between atoms: C_13  and  N_14 
REMARK       I    between atoms: N_14  and  C_15 
REMARK       I    between atoms: C_15  and  N_16 
REMARK    7  A    between atoms: N_16  and  C_17 
ROOT
HETATM    1  C   UNL     1     -41.375  58.731 -53.606  1.00  0.00     0.229 C 
HETATM    2  N   UNL     1     -41.857  57.584 -52.955  1.00  0.00    -0.351 N 
HETATM    3  C   UNL     1     -43.273  57.234 -52.900  1.00  0.00     0.132 C 
HETATM    4  C   UNL     1     -43.557  55.761 -52.584  1.00  0.00     0.021 C 
HETATM    5  C   UNL     1     -42.715  55.278 -51.396  1.00  0.00     0.009 C 
HETATM    6  C   UNL     1     -41.242  55.614 -51.571  1.00  0.00     0.020 C 
HETATM    7  C   UNL     1     -41.046  57.102 -51.836  1.00  0.00     0.126 C 
HETATM    8  O   UNL     1     -40.239  59.158 -53.365  1.00  0.00    -0.273 OA
ENDROOT
BRANCH   1   9
HETATM    9  C   UNL     1     -42.147  59.344 -54.769  1.00  0.00     0.185 C 
BRANCH   9  10
HETATM   10  S   UNL     1     -42.506  58.335 -56.221  1.00  0.00    -0.082 SA
BRANCH  10  11
HETATM   11  C   UNL     1     -42.348  59.418 -57.562  1.00  0.00     0.173 A 
HETATM   12  N   UNL     1     -43.103  59.333 -58.729  1.00  0.00    -0.299 N 
HETATM   13  C   UNL     1     -42.572  60.296 -59.568  1.00  0.00     0.118 A 
HETATM   14  C   UNL     1     -41.547  60.893 -58.877  1.00  0.00     0.137 A 
HETATM   15  N   UNL     1     -41.411  60.335 -57.640  1.00  0.00    -0.235 NA
BRANCH  12  16
HETATM   16  C   UNL     1     -44.246  58.529 -59.028  1.00  0.00     0.047 A 
HETATM   17  C   UNL     1     -44.065  57.360 -59.792  1.00  0.00     0.037 A 
HETATM   18  C   UNL     1     -45.131  56.495 -60.069  1.00  0.00    -0.060 A 
HETATM   19  C   UNL     1     -44.923  55.271 -60.913  1.00  0.00     0.048 C 
HETATM   20  C   UNL     1     -46.398  56.811 -59.583  1.00  0.00     0.007 A 
HETATM   21  C   UNL     1     -46.592  57.967 -58.824  1.00  0.00     0.009 A 
HETATM   22  C   UNL     1     -45.532  58.851 -58.547  1.00  0.00    -0.035 A 
HETATM   23  C   UNL     1     -45.867  60.107 -57.789  1.00  0.00     0.050 C 
ENDBRANCH  12  16
ENDBRANCH  10  11
ENDBRANCH   9  10
ENDBRANCH   1   9
BRANCH   4  24
HETATM   24  C   UNL     1     -43.368  54.914 -53.857  1.00  0.00     0.130 C 
BRANCH  24  25
HETATM   25  N   UNL     1     -42.240  54.001 -53.796  1.00  0.00    -0.342 N 
HETATM   26  C   UNL     1     -41.110  54.223 -54.524  1.00  0.00     0.320 C 
HETATM   27  N   UNL     1     -40.061  53.376 -54.327  1.00  0.00    -0.309 N 
HETATM   28  O   UNL     1     -40.979  55.170 -55.296  1.00  0.00    -0.247 OA
HETATM   29  H   UNL     1     -39.222  53.742 -54.763  1.00  0.00     0.170 HD
HETATM   30  H   UNL     1     -42.044  53.629 -52.879  1.00  0.00     0.164 HD
BRANCH  27  31
HETATM   31  C   UNL     1     -39.941  52.137 -53.672  1.00  0.00     0.039 A 
HETATM   32  C   UNL     1     -39.808  51.983 -52.291  1.00  0.00     0.071 A 
HETATM   33  C   UNL     1     -39.676  50.707 -51.747  1.00  0.00     0.118 A 
HETATM   34  F   UNL     1     -39.536  50.572 -50.422  1.00  0.00    -0.206 F 
HETATM   35  C   UNL     1     -39.694  49.572 -52.549  1.00  0.00     0.042 A 
HETATM   36  C   UNL     1     -39.865  49.713 -53.921  1.00  0.00     0.005 A 
HETATM   37  C   UNL     1     -39.997  50.990 -54.477  1.00  0.00     0.030 A 
ENDBRANCH  27  31
ENDBRANCH  24  25
ENDBRANCH   4  24
TORSDOF 7
ENDMDL
MODEL 2
REMARK VINA RESULT:      -9.3      1.306      2.080
REMARK  7 active torsions:
REMARK  status: ('A' for Active; 'I' for Inactive)
REMARK    1  A    between atoms: C_4  and  N_5 
REMARK    2  A    between atoms: C_6  and  S_7 
REMARK    3  A    between atoms: S_7  and  C_8 
REMARK    4  A    between atoms: C_8  and  C_9 
REMARK       I    between atoms: C_9  and  N_10 
REMARK    5  A    between atoms: C_12  and  C_13 
REMARK    6  A    between atoms: C_13  and  N_14 
REMARK       I    between atoms: N_14  and  C_15 
REMARK       I    between atoms: C_15  and  N_16 
REMARK    7  A    between atoms: N_16  and  C_17 
ROOT
HETATM    1  C   UNL     1     -41.352  58.830 -52.374  1.00  0.00     0.229 C 
HETATM    2  N   UNL     1     -41.803  57.585 -51.908  1.00  0.00    -0.351 N 
HETATM    3  C   UNL     1     -43.211  57.203 -51.892  1.00  0.00     0.132 C 
HETATM    4  C   UNL     1     -43.464  55.693 -51.811  1.00  0.00     0.021 C 
HETATM    5  C   UNL     1     -42.597  55.043 -50.725  1.00  0.00     0.009 C 
HETATM    6  C   UNL     1     -41.132  55.433 -50.863  1.00  0.00     0.020 C 
HETATM    7  C   UNL     1     -40.966  56.947 -50.889  1.00  0.00     0.126 C 
HETATM    8  O   UNL     1     -40.219  59.235 -52.081  1.00  0.00    -0.273 OA
ENDROOT
BRANCH   1   9
HETATM    9  C   UNL     1     -42.152  59.604 -53.414  1.00  0.00     0.185 C 
BRANCH   9  10
HETATM   10  S   UNL     1     -42.126  59.059 -55.134  1.00  0.00    -0.082 SA
BRANCH  10  11
HETATM   11  C   UNL     1     -43.670  59.520 -55.766  1.00  0.00     0.173 A 
HETATM   12  N   UNL     1     -44.095  59.252 -57.066  1.00  0.00    -0.299 N 
HETATM   13  C   UNL     1     -45.313  59.896 -57.182  1.00  0.00     0.118 A 
HETATM   14  C   UNL     1     -45.549  60.505 -55.975  1.00  0.00     0.137 A 
HETATM   15  N   UNL     1     -44.521  60.274 -55.110  1.00  0.00    -0.235 NA
BRANCH  12  16
HETATM   16  C   UNL     1     -43.508  58.424 -58.072  1.00  0.00     0.047 A 
HETATM   17  C   UNL     1     -44.005  57.118 -58.243  1.00  0.00     0.037 A 
HETATM   18  C   UNL     1     -43.518  56.277 -59.250  1.00  0.00    -0.060 A 
HETATM   19  C   UNL     1     -44.038  54.875 -59.395  1.00  0.00     0.048 C 
HETATM   20  C   UNL     1     -42.511  56.746 -60.092  1.00  0.00     0.007 A 
HETATM   21  C   UNL     1     -42.008  58.039 -59.933  1.00  0.00     0.009 A 
HETATM   22  C   UNL     1     -42.481  58.892 -58.918  1.00  0.00    -0.035 A 
HETATM   23  C   UNL     1     -41.814  60.234 -58.786  1.00  0.00     0.050 C 
ENDBRANCH  12  16
ENDBRANCH  10  11
ENDBRANCH   9  10
ENDBRANCH   1   9
BRANCH   4  24
HETATM   24  C   UNL     1     -43.281  55.062 -53.204  1.00  0.00     0.130 C 
BRANCH  24  25
HETATM   25  N   UNL     1     -42.175  54.124 -53.286  1.00  0.00    -0.342 N 
HETATM   26  C   UNL     1     -41.060  54.406 -54.018  1.00  0.00     0.320 C 
HETATM   27  N   UNL     1     -40.028  53.519 -53.954  1.00  0.00    -0.309 N 
HETATM   28  O   UNL     1     -40.927  55.435 -54.676  1.00  0.00    -0.247 OA
HETATM   29  H   UNL     1     -39.192  53.915 -54.369  1.00  0.00     0.170 HD
HETATM   30  H   UNL     1     -41.962  53.642 -52.426  1.00  0.00     0.164 HD
BRANCH  27  31
HETATM   31  C   UNL     1     -39.921  52.209 -53.453  1.00  0.00     0.039 A 
HETATM   32  C   UNL     1     -39.725  51.890 -52.109  1.00  0.00     0.071 A 
HETATM   33  C   UNL     1     -39.613  50.556 -51.723  1.00  0.00     0.118 A 
HETATM   34  F   UNL     1     -39.412  50.262 -50.432  1.00  0.00    -0.206 F 
HETATM   35  C   UNL     1     -39.714  49.523 -52.648  1.00  0.00     0.042 A 
HETATM   36  C   UNL     1     -39.948  49.829 -53.984  1.00  0.00     0.005 A 
HETATM   37  C   UNL     1     -40.060  51.166 -54.381  1.00  0.00     0.030 A 
ENDBRANCH  27  31
ENDBRANCH  24  25
ENDBRANCH   4  24
TORSDOF 7
ENDMDL
MODEL 3
REMARK VINA RESULT:      -9.2      3.409      7.322
REMARK  7 active torsions:
REMARK  status: ('A' for Active; 'I' for Inactive)
REMARK    1  A    between atoms: C_4  and  N_5 
REMARK    2  A    between atoms: C_6  and  S_7 
REMARK    3  A    between atoms: S_7  and  C_8 
REMARK    4  A    between atoms: C_8  and  C_9 
REMARK       I    between atoms: C_9  and  N_10 
REMARK    5  A    between atoms: C_12  and  C_13 
REMARK    6  A    between atoms: C_13  and  N_14 
REMARK       I    between atoms: N_14  and  C_15 
REMARK       I    between atoms: C_15  and  N_16 
REMARK    7  A    between atoms: N_16  and  C_17 
ROOT
HETATM    1  C   UNL     1     -40.907  54.721 -50.865  1.00  0.00     0.229 C 
HETATM    2  N   UNL     1     -40.810  53.799 -51.920  1.00  0.00    -0.351 N 
HETATM    3  C   UNL     1     -41.788  53.719 -53.000  1.00  0.00     0.132 C 
HETATM    4  C   UNL     1     -41.287  53.016 -54.268  1.00  0.00     0.021 C 
HETATM    5  C   UNL     1     -40.577  51.700 -53.927  1.00  0.00     0.009 C 
HETATM    6  C   UNL     1     -39.520  51.889 -52.848  1.00  0.00     0.020 C 
HETATM    7  C   UNL     1     -40.112  52.550 -51.609  1.00  0.00     0.126 C 
HETATM    8  O   UNL     1     -40.258  54.552 -49.825  1.00  0.00    -0.273 OA
ENDROOT
BRANCH   1   9
HETATM    9  C   UNL     1     -41.635  56.046 -51.058  1.00  0.00     0.185 C 
BRANCH   9  10
HETATM   10  S   UNL     1     -43.433  56.094 -50.920  1.00  0.00    -0.082 SA
BRANCH  10  11
HETATM   11  C   UNL     1     -43.968  56.857 -52.379  1.00  0.00     0.173 A 
HETATM   12  N   UNL     1     -44.195  58.225 -52.508  1.00  0.00    -0.299 N 
HETATM   13  C   UNL     1     -44.724  58.381 -53.776  1.00  0.00     0.118 A 
HETATM   14  C   UNL     1     -44.789  57.126 -54.327  1.00  0.00     0.137 A 
HETATM   15  N   UNL     1     -44.328  56.190 -53.450  1.00  0.00    -0.235 NA
BRANCH  12  16
HETATM   16  C   UNL     1     -43.882  59.297 -51.615  1.00  0.00     0.047 A 
HETATM   17  C   UNL     1     -44.888  59.767 -50.749  1.00  0.00     0.037 A 
HETATM   18  C   UNL     1     -44.632  60.770 -49.808  1.00  0.00    -0.060 A 
HETATM   19  C   UNL     1     -45.728  61.281 -48.916  1.00  0.00     0.048 C 
HETATM   20  C   UNL     1     -43.354  61.320 -49.739  1.00  0.00     0.007 A 
HETATM   21  C   UNL     1     -42.346  60.865 -50.592  1.00  0.00     0.009 A 
HETATM   22  C   UNL     1     -42.592  59.863 -51.551  1.00  0.00    -0.035 A 
HETATM   23  C   UNL     1     -41.458  59.503 -52.472  1.00  0.00     0.050 C 
ENDBRANCH  12  16
ENDBRANCH  10  11
ENDBRANCH   9  10
ENDBRANCH   1   9
BRANCH   4  24
HETATM   24  C   UNL     1     -40.419  53.989 -55.088  1.00  0.00     0.130 C 
BRANCH  24  25
HETATM   25  N   UNL     1     -41.176  54.831 -55.998  1.00  0.00    -0.342 N 
HETATM   26  C   UNL     1     -41.510  56.110 -55.666  1.00  0.00     0.320 C 
HETATM   27  N   UNL     1     -42.126  56.864 -56.618  1.00  0.00    -0.309 N 
HETATM   28  O   UNL     1     -41.233  56.621 -54.583  1.00  0.00    -0.247 OA
HETATM   29  H   UNL     1     -42.151  57.838 -56.340  1.00  0.00     0.170 HD
HETATM   30  H   UNL     1     -40.928  54.735 -56.971  1.00  0.00     0.164 HD
BRANCH  27  31
HETATM   31  C   UNL     1     -42.720  56.547 -57.854  1.00  0.00     0.039 A 
HETATM   32  C   UNL     1     -43.513  55.422 -58.084  1.00  0.00     0.071 A 
HETATM   33  C   UNL     1     -44.037  55.193 -59.355  1.00  0.00     0.118 A 
HETATM   34  F   UNL     1     -44.786  54.103 -59.566  1.00  0.00    -0.206 F 
HETATM   35  C   UNL     1     -43.806  56.074 -60.403  1.00  0.00     0.042 A 
HETATM   36  C   UNL     1     -43.049  57.218 -60.174  1.00  0.00     0.005 A 
HETATM   37  C   UNL     1     -42.517  57.456 -58.902  1.00  0.00     0.030 A 
ENDBRANCH  27  31
ENDBRANCH  24  25
ENDBRANCH   4  24
TORSDOF 7
ENDMDL
MODEL 4
REMARK VINA RESULT:      -9.1      2.474      6.723
REMARK  7 active torsions:
REMARK  status: ('A' for Active; 'I' for Inactive)
REMARK    1  A    between atoms: C_4  and  N_5 
REMARK    2  A    between atoms: C_6  and  S_7 
REMARK    3  A    between atoms: S_7  and  C_8 
REMARK    4  A    between atoms: C_8  and  C_9 
REMARK       I    between atoms: C_9  and  N_10 
REMARK    5  A    between atoms: C_12  and  C_13 
REMARK    6  A    between atoms: C_13  and  N_14 
REMARK       I    between atoms: N_14  and  C_15 
REMARK       I    between atoms: C_15  and  N_16 
REMARK    7  A    between atoms: N_16  and  C_17 
ROOT
HETATM    1  C   UNL     1     -42.534  60.365 -55.924  1.00  0.00     0.229 C 
HETATM    2  N   UNL     1     -42.852  59.920 -57.217  1.00  0.00    -0.351 N 
HETATM    3  C   UNL     1     -42.133  58.840 -57.887  1.00  0.00     0.132 C 
HETATM    4  C   UNL     1     -42.894  58.186 -59.046  1.00  0.00     0.021 C 
HETATM    5  C   UNL     1     -43.503  59.244 -59.975  1.00  0.00     0.009 C 
HETATM    6  C   UNL     1     -44.299  60.286 -59.203  1.00  0.00     0.020 C 
HETATM    7  C   UNL     1     -43.456  60.917 -58.102  1.00  0.00     0.126 C 
HETATM    8  O   UNL     1     -42.939  61.465 -55.524  1.00  0.00    -0.273 OA
ENDROOT
BRANCH   1   9
HETATM    9  C   UNL     1     -41.875  59.427 -54.920  1.00  0.00     0.185 C 
BRANCH   9  10
HETATM   10  S   UNL     1     -42.848  58.780 -53.545  1.00  0.00    -0.082 SA
BRANCH  10  11
HETATM   11  C   UNL     1     -41.846  59.003 -52.152  1.00  0.00     0.173 A 
HETATM   12  N   UNL     1     -41.634  58.031 -51.177  1.00  0.00    -0.299 N 
HETATM   13  C   UNL     1     -40.887  58.663 -50.200  1.00  0.00     0.118 A 
HETATM   14  C   UNL     1     -40.698  59.953 -50.628  1.00  0.00     0.137 A 
HETATM   15  N   UNL     1     -41.304  60.155 -51.832  1.00  0.00    -0.235 NA
BRANCH  12  16
HETATM   16  C   UNL     1     -41.989  56.647 -51.167  1.00  0.00     0.047 A 
HETATM   17  C   UNL     1     -40.960  55.688 -51.224  1.00  0.00     0.037 A 
HETATM   18  C   UNL     1     -41.234  54.317 -51.156  1.00  0.00    -0.060 A 
HETATM   19  C   UNL     1     -40.125  53.309 -51.252  1.00  0.00     0.048 C 
HETATM   20  C   UNL     1     -42.558  53.899 -51.040  1.00  0.00     0.007 A 
HETATM   21  C   UNL     1     -43.589  54.839 -50.983  1.00  0.00     0.009 A 
HETATM   22  C   UNL     1     -43.329  56.220 -51.061  1.00  0.00    -0.035 A 
HETATM   23  C   UNL     1     -44.519  57.142 -51.070  1.00  0.00     0.050 C 
ENDBRANCH  12  16
ENDBRANCH  10  11
ENDBRANCH   9  10
ENDBRANCH   1   9
BRANCH   4  24
HETATM   24  C   UNL     1     -43.927  57.189 -58.489  1.00  0.00     0.130 C 
BRANCH  24  25
HETATM   25  N   UNL     1     -43.471  56.459 -57.319  1.00  0.00    -0.342 N 
HETATM   26  C   UNL     1     -44.067  56.623 -56.105  1.00  0.00     0.320 C 
HETATM   27  N   UNL     1     -43.646  55.821 -55.087  1.00  0.00    -0.309 N 
HETATM   28  O   UNL     1     -44.989  57.410 -55.906  1.00  0.00    -0.247 OA
HETATM   29  H   UNL     1     -44.278  55.888 -54.297  1.00  0.00     0.170 HD
HETATM   30  H   UNL     1     -43.204  55.501 -57.494  1.00  0.00     0.164 HD
BRANCH  27  31
HETATM   31  C   UNL     1     -42.537  54.968 -54.935  1.00  0.00     0.039 A 
HETATM   32  C   UNL     1     -42.621  53.585 -54.773  1.00  0.00     0.071 A 
HETATM   33  C   UNL     1     -41.457  52.836 -54.611  1.00  0.00     0.118 A 
HETATM   34  F   UNL     1     -41.551  51.510 -54.444  1.00  0.00    -0.206 F 
HETATM   35  C   UNL     1     -40.203  53.433 -54.627  1.00  0.00     0.042 A 
HETATM   36  C   UNL     1     -40.107  54.806 -54.826  1.00  0.00     0.005 A 
HETATM   37  C   UNL     1     -41.270  55.567 -54.989  1.00  0.00     0.030 A 
ENDBRANCH  27  31
ENDBRANCH  24  25
ENDBRANCH   4  24
TORSDOF 7
ENDMDL
MODEL 5
REMARK VINA RESULT:      -9.1      4.370      6.658
REMARK  7 active torsions:
REMARK  status: ('A' for Active; 'I' for Inactive)
REMARK    1  A    between atoms: C_4  and  N_5 
REMARK    2  A    between atoms: C_6  and  S_7 
REMARK    3  A    between atoms: S_7  and  C_8 
REMARK    4  A    between atoms: C_8  and  C_9 
REMARK       I    between atoms: C_9  and  N_10 
REMARK    5  A    between atoms: C_12  and  C_13 
REMARK    6  A    between atoms: C_13  and  N_14 
REMARK       I    between atoms: N_14  and  C_15 
REMARK       I    between atoms: C_15  and  N_16 
REMARK    7  A    between atoms: N_16  and  C_17 
ROOT
HETATM    1  C   UNL     1     -41.077  58.120 -50.960  1.00  0.00     0.229 C 
HETATM    2  N   UNL     1     -41.744  56.893 -50.815  1.00  0.00    -0.351 N 
HETATM    3  C   UNL     1     -43.182  56.739 -51.009  1.00  0.00     0.132 C 
HETATM    4  C   UNL     1     -43.642  55.302 -51.278  1.00  0.00     0.021 C 
HETATM    5  C   UNL     1     -43.007  54.322 -50.284  1.00  0.00     0.009 C 
HETATM    6  C   UNL     1     -41.498  54.498 -50.201  1.00  0.00     0.020 C 
HETATM    7  C   UNL     1     -41.129  55.942 -49.887  1.00  0.00     0.126 C 
HETATM    8  O   UNL     1     -39.944  58.277 -50.486  1.00  0.00    -0.273 OA
ENDROOT
BRANCH   1   9
HETATM    9  C   UNL     1     -41.635  59.202 -51.878  1.00  0.00     0.185 C 
BRANCH   9  10
HETATM   10  S   UNL     1     -42.395  60.669 -51.154  1.00  0.00    -0.082 SA
BRANCH  10  11
HETATM   11  C   UNL     1     -44.047  60.609 -51.667  1.00  0.00     0.173 A 
HETATM   12  N   UNL     1     -45.130  60.954 -50.861  1.00  0.00    -0.299 N 
HETATM   13  C   UNL     1     -46.248  60.643 -51.613  1.00  0.00     0.118 A 
HETATM   14  C   UNL     1     -45.788  60.136 -52.803  1.00  0.00     0.137 A 
HETATM   15  N   UNL     1     -44.425  60.111 -52.821  1.00  0.00    -0.235 NA
BRANCH  12  16
HETATM   16  C   UNL     1     -45.157  61.584 -49.579  1.00  0.00     0.047 A 
HETATM   17  C   UNL     1     -45.413  60.790 -48.444  1.00  0.00     0.037 A 
HETATM   18  C   UNL     1     -45.393  61.332 -47.153  1.00  0.00    -0.060 A 
HETATM   19  C   UNL     1     -45.700  60.475 -45.959  1.00  0.00     0.048 C 
HETATM   20  C   UNL     1     -45.123  62.690 -46.997  1.00  0.00     0.007 A 
HETATM   21  C   UNL     1     -44.868  63.489 -48.113  1.00  0.00     0.009 A 
HETATM   22  C   UNL     1     -44.895  62.960 -49.417  1.00  0.00    -0.035 A 
HETATM   23  C   UNL     1     -44.686  63.926 -50.552  1.00  0.00     0.050 C 
ENDBRANCH  12  16
ENDBRANCH  10  11
ENDBRANCH   9  10
ENDBRANCH   1   9
BRANCH   4  24
HETATM   24  C   UNL     1     -43.377  54.941 -52.752  1.00  0.00     0.130 C 
BRANCH  24  25
HETATM   25  N   UNL     1     -42.246  54.052 -52.947  1.00  0.00    -0.342 N 
HETATM   26  C   UNL     1     -41.138  54.456 -53.631  1.00  0.00     0.320 C 
HETATM   27  N   UNL     1     -40.082  53.596 -53.676  1.00  0.00    -0.309 N 
HETATM   28  O   UNL     1     -41.032  55.564 -54.151  1.00  0.00    -0.247 OA
HETATM   29  H   UNL     1     -39.257  54.065 -54.032  1.00  0.00     0.170 HD
HETATM   30  H   UNL     1     -42.021  53.469 -52.155  1.00  0.00     0.164 HD
BRANCH  27  31
HETATM   31  C   UNL     1     -39.940  52.236 -53.346  1.00  0.00     0.039 A 
HETATM   32  C   UNL     1     -39.632  51.759 -52.071  1.00  0.00     0.071 A 
HETATM   33  C   UNL     1     -39.494  50.389 -51.859  1.00  0.00     0.118 A 
HETATM   34  F   UNL     1     -39.186  49.945 -50.634  1.00  0.00    -0.206 F 
HETATM   35  C   UNL     1     -39.678  49.475 -52.889  1.00  0.00     0.042 A 
HETATM   36  C   UNL     1     -40.023  49.937 -54.154  1.00  0.00     0.005 A 
HETATM   37  C   UNL     1     -40.162  51.311 -54.377  1.00  0.00     0.030 A 
ENDBRANCH  27  31
ENDBRANCH  24  25
ENDBRANCH   4  24
TORSDOF 7
ENDMDL
MODEL 6
REMARK VINA RESULT:      -8.9      3.129      6.462
REMARK  7 active torsions:
REMARK  status: ('A' for Active; 'I' for Inactive)
REMARK    1  A    between atoms: C_4  and  N_5 
REMARK    2  A    between atoms: C_6  and  S_7 
REMARK    3  A    between atoms: S_7  and  C_8 
REMARK    4  A    between atoms: C_8  and  C_9 
REMARK       I    between atoms: C_9  and  N_10 
REMARK    5  A    between atoms: C_12  and  C_13 
REMARK    6  A    between atoms: C_13  and  N_14 
REMARK       I    between atoms: N_14  and  C_15 
REMARK       I    between atoms: C_15  and  N_16 
REMARK    7  A    between atoms: N_16  and  C_17 
ROOT
HETATM    1  C   UNL     1     -42.439  54.387 -51.297  1.00  0.00     0.229 C 
HETATM    2  N   UNL     1     -41.612  53.619 -52.132  1.00  0.00    -0.351 N 
HETATM    3  C   UNL     1     -41.989  53.228 -53.486  1.00  0.00     0.132 C 
HETATM    4  C   UNL     1     -40.815  52.825 -54.387  1.00  0.00     0.021 C 
HETATM    5  C   UNL     1     -39.870  51.857 -53.664  1.00  0.00     0.009 C 
HETATM    6  C   UNL     1     -39.465  52.377 -52.293  1.00  0.00     0.020 C 
HETATM    7  C   UNL     1     -40.689  52.710 -51.448  1.00  0.00     0.126 C 
HETATM    8  O   UNL     1     -42.235  54.426 -50.077  1.00  0.00    -0.273 OA
ENDROOT
BRANCH   1   9
HETATM    9  C   UNL     1     -43.460  55.349 -51.892  1.00  0.00     0.185 C 
BRANCH   9  10
HETATM   10  S   UNL     1     -43.866  56.867 -51.004  1.00  0.00    -0.082 SA
BRANCH  10  11
HETATM   11  C   UNL     1     -42.498  57.899 -51.246  1.00  0.00     0.173 A 
HETATM   12  N   UNL     1     -42.472  58.966 -52.141  1.00  0.00    -0.299 N 
HETATM   13  C   UNL     1     -41.169  59.429 -52.106  1.00  0.00     0.118 A 
HETATM   14  C   UNL     1     -40.497  58.631 -51.213  1.00  0.00     0.137 A 
HETATM   15  N   UNL     1     -41.326  57.682 -50.695  1.00  0.00    -0.235 NA
BRANCH  12  16
HETATM   16  C   UNL     1     -43.533  59.567 -52.886  1.00  0.00     0.047 A 
HETATM   17  C   UNL     1     -43.782  59.107 -54.194  1.00  0.00     0.037 A 
HETATM   18  C   UNL     1     -44.843  59.608 -54.955  1.00  0.00    -0.060 A 
HETATM   19  C   UNL     1     -45.072  59.128 -56.360  1.00  0.00     0.048 C 
HETATM   20  C   UNL     1     -45.662  60.593 -54.405  1.00  0.00     0.007 A 
HETATM   21  C   UNL     1     -45.426  61.059 -53.110  1.00  0.00     0.009 A 
HETATM   22  C   UNL     1     -44.356  60.571 -52.336  1.00  0.00    -0.035 A 
HETATM   23  C   UNL     1     -44.146  61.199 -50.985  1.00  0.00     0.050 C 
ENDBRANCH  12  16
ENDBRANCH  10  11
ENDBRANCH   9  10
ENDBRANCH   1   9
BRANCH   4  24
HETATM   24  C   UNL     1     -40.113  54.089 -54.917  1.00  0.00     0.130 C 
BRANCH  24  25
HETATM   25  N   UNL     1     -40.943  54.903 -55.787  1.00  0.00    -0.342 N 
HETATM   26  C   UNL     1     -41.434  56.106 -55.374  1.00  0.00     0.320 C 
HETATM   27  N   UNL     1     -42.113  56.853 -56.289  1.00  0.00    -0.309 N 
HETATM   28  O   UNL     1     -41.245  56.562 -54.248  1.00  0.00    -0.247 OA
HETATM   29  H   UNL     1     -42.260  57.794 -55.941  1.00  0.00     0.170 HD
HETATM   30  H   UNL     1     -40.663  54.911 -56.757  1.00  0.00     0.164 HD
BRANCH  27  31
HETATM   31  C   UNL     1     -42.637  56.563 -57.562  1.00  0.00     0.039 A 
HETATM   32  C   UNL     1     -43.425  55.451 -57.859  1.00  0.00     0.071 A 
HETATM   33  C   UNL     1     -43.875  55.249 -59.161  1.00  0.00     0.118 A 
HETATM   34  F   UNL     1     -44.620  54.170 -59.436  1.00  0.00    -0.206 F 
HETATM   35  C   UNL     1     -43.575  56.146 -60.179  1.00  0.00     0.042 A 
HETATM   36  C   UNL     1     -42.822  57.278 -59.885  1.00  0.00     0.005 A 
HETATM   37  C   UNL     1     -42.365  57.489 -58.580  1.00  0.00     0.030 A 
ENDBRANCH  27  31
ENDBRANCH  24  25
ENDBRANCH   4  24
TORSDOF 7
ENDMDL
MODEL 7
REMARK VINA RESULT:      -8.8      1.389      1.854
REMARK  7 active torsions:
REMARK  status: ('A' for Active; 'I' for Inactive)
REMARK    1  A    between atoms: C_4  and  N_5 
REMARK    2  A    between atoms: C_6  and  S_7 
REMARK    3  A    between atoms: S_7  and  C_8 
REMARK    4  A    between atoms: C_8  and  C_9 
REMARK       I    between atoms: C_9  and  N_10 
REMARK    5  A    between atoms: C_12  and  C_13 
REMARK    6  A    between atoms: C_13  and  N_14 
REMARK       I    between atoms: N_14  and  C_15 
REMARK       I    between atoms: C_15  and  N_16 
REMARK    7  A    between atoms: N_16  and  C_17 
ROOT
HETATM    1  C   UNL     1     -43.272  59.343 -52.973  1.00  0.00     0.229 C 
HETATM    2  N   UNL     1     -42.941  58.095 -52.423  1.00  0.00    -0.351 N 
HETATM    3  C   UNL     1     -43.939  57.095 -52.057  1.00  0.00     0.132 C 
HETATM    4  C   UNL     1     -43.398  55.665 -51.932  1.00  0.00     0.021 C 
HETATM    5  C   UNL     1     -42.105  55.633 -51.108  1.00  0.00     0.009 C 
HETATM    6  C   UNL     1     -41.090  56.651 -51.606  1.00  0.00     0.020 C 
HETATM    7  C   UNL     1     -41.694  58.049 -51.656  1.00  0.00     0.126 C 
HETATM    8  O   UNL     1     -42.448  60.267 -52.971  1.00  0.00    -0.273 OA
ENDROOT
BRANCH   1   9
HETATM    9  C   UNL     1     -44.560  59.522 -53.769  1.00  0.00     0.185 C 
BRANCH   9  10
HETATM   10  S   UNL     1     -44.813  58.552 -55.269  1.00  0.00    -0.082 SA
BRANCH  10  11
HETATM   11  C   UNL     1     -44.640  59.687 -56.564  1.00  0.00     0.173 A 
HETATM   12  N   UNL     1     -44.477  59.331 -57.901  1.00  0.00    -0.299 N 
HETATM   13  C   UNL     1     -44.254  60.523 -58.564  1.00  0.00     0.118 A 
HETATM   14  C   UNL     1     -44.290  61.511 -57.611  1.00  0.00     0.137 A 
HETATM   15  N   UNL     1     -44.519  60.981 -56.376  1.00  0.00    -0.235 NA
BRANCH  12  16
HETATM   16  C   UNL     1     -44.601  58.055 -58.533  1.00  0.00     0.047 A 
HETATM   17  C   UNL     1     -45.799  57.752 -59.209  1.00  0.00     0.037 A 
HETATM   18  C   UNL     1     -45.963  56.547 -59.901  1.00  0.00    -0.060 A 
HETATM   19  C   UNL     1     -47.260  56.229 -60.588  1.00  0.00     0.048 C 
HETATM   20  C   UNL     1     -44.917  55.625 -59.907  1.00  0.00     0.007 A 
HETATM   21  C   UNL     1     -43.724  55.912 -59.241  1.00  0.00     0.009 A 
HETATM   22  C   UNL     1     -43.549  57.116 -58.532  1.00  0.00    -0.035 A 
HETATM   23  C   UNL     1     -42.255  57.288 -57.784  1.00  0.00     0.050 C 
ENDBRANCH  12  16
ENDBRANCH  10  11
ENDBRANCH   9  10
ENDBRANCH   1   9
BRANCH   4  24
HETATM   24  C   UNL     1     -43.251  55.045 -53.334  1.00  0.00     0.130 C 
BRANCH  24  25
HETATM   25  N   UNL     1     -42.172  54.079 -53.441  1.00  0.00    -0.342 N 
HETATM   26  C   UNL     1     -41.151  54.253 -54.328  1.00  0.00     0.320 C 
HETATM   27  N   UNL     1     -40.127  53.356 -54.288  1.00  0.00    -0.309 N 
HETATM   28  O   UNL     1     -41.089  55.200 -55.109  1.00  0.00    -0.247 OA
HETATM   29  H   UNL     1     -39.344  53.685 -54.842  1.00  0.00     0.170 HD
HETATM   30  H   UNL     1     -41.861  53.690 -52.563  1.00  0.00     0.164 HD
BRANCH  27  31
HETATM   31  C   UNL     1     -39.972  52.107 -53.659  1.00  0.00     0.039 A 
HETATM   32  C   UNL     1     -39.820  51.928 -52.283  1.00  0.00     0.071 A 
HETATM   33  C   UNL     1     -39.653  50.645 -51.766  1.00  0.00     0.118 A 
HETATM   34  F   UNL     1     -39.496  50.487 -50.446  1.00  0.00    -0.206 F 
HETATM   35  C   UNL     1     -39.655  49.526 -52.591  1.00  0.00     0.042 A 
HETATM   36  C   UNL     1     -39.844  49.691 -53.958  1.00  0.00     0.005 A 
HETATM   37  C   UNL     1     -40.011  50.975 -54.487  1.00  0.00     0.030 A 
ENDBRANCH  27  31
ENDBRANCH  24  25
ENDBRANCH   4  24
TORSDOF 7
ENDMDL
MODEL 8
REMARK VINA RESULT:      -8.8      3.183      6.744
REMARK  7 active torsions:
REMARK  status: ('A' for Active; 'I' for Inactive)
REMARK    1  A    between atoms: C_4  and  N_5 
REMARK    2  A    between atoms: C_6  and  S_7 
REMARK    3  A    between atoms: S_7  and  C_8 
REMARK    4  A    between atoms: C_8  and  C_9 
REMARK       I    between atoms: C_9  and  N_10 
REMARK    5  A    between atoms: C_12  and  C_13 
REMARK    6  A    between atoms: C_13  and  N_14 
REMARK       I    between atoms: N_14  and  C_15 
REMARK       I    between atoms: C_15  and  N_16 
REMARK    7  A    between atoms: N_16  and  C_17 
ROOT
HETATM    1  C   UNL     1     -44.930  60.722 -55.581  1.00  0.00     0.229 C 
HETATM    2  N   UNL     1     -44.134  59.689 -56.101  1.00  0.00    -0.351 N 
HETATM    3  C   UNL     1     -43.047  59.067 -55.352  1.00  0.00     0.132 C 
HETATM    4  C   UNL     1     -42.621  57.687 -55.868  1.00  0.00     0.021 C 
HETATM    5  C   UNL     1     -42.447  57.695 -57.392  1.00  0.00     0.009 C 
HETATM    6  C   UNL     1     -43.657  58.288 -58.097  1.00  0.00     0.020 C 
HETATM    7  C   UNL     1     -43.984  59.675 -57.558  1.00  0.00     0.126 C 
HETATM    8  O   UNL     1     -45.612  61.428 -56.336  1.00  0.00    -0.273 OA
ENDROOT
BRANCH   1   9
HETATM    9  C   UNL     1     -45.139  60.857 -54.078  1.00  0.00     0.185 C 
BRANCH   9  10
HETATM   10  S   UNL     1     -44.054  61.943 -53.129  1.00  0.00    -0.082 SA
BRANCH  10  11
HETATM   11  C   UNL     1     -44.522  61.703 -51.480  1.00  0.00     0.173 A 
HETATM   12  N   UNL     1     -44.019  60.692 -50.663  1.00  0.00    -0.299 N 
HETATM   13  C   UNL     1     -44.744  60.788 -49.489  1.00  0.00     0.118 A 
HETATM   14  C   UNL     1     -45.626  61.825 -49.661  1.00  0.00     0.137 A 
HETATM   15  N   UNL     1     -45.487  62.377 -50.899  1.00  0.00    -0.235 NA
BRANCH  12  16
HETATM   16  C   UNL     1     -42.933  59.790 -50.882  1.00  0.00     0.047 A 
HETATM   17  C   UNL     1     -41.633  60.201 -50.526  1.00  0.00     0.037 A 
HETATM   18  C   UNL     1     -40.534  59.344 -50.656  1.00  0.00    -0.060 A 
HETATM   19  C   UNL     1     -39.152  59.814 -50.303  1.00  0.00     0.048 C 
HETATM   20  C   UNL     1     -40.736  58.061 -51.160  1.00  0.00     0.007 A 
HETATM   21  C   UNL     1     -42.018  57.639 -51.517  1.00  0.00     0.009 A 
HETATM   22  C   UNL     1     -43.131  58.493 -51.401  1.00  0.00    -0.035 A 
HETATM   23  C   UNL     1     -44.453  57.965 -51.889  1.00  0.00     0.050 C 
ENDBRANCH  12  16
ENDBRANCH  10  11
ENDBRANCH   9  10
ENDBRANCH   1   9
BRANCH   4  24
HETATM   24  C   UNL     1     -43.613  56.620 -55.368  1.00  0.00     0.130 C 
BRANCH  24  25
HETATM   25  N   UNL     1     -43.069  55.743 -54.346  1.00  0.00    -0.342 N 
HETATM   26  C   UNL     1     -42.874  54.415 -54.584  1.00  0.00     0.320 C 
HETATM   27  N   UNL     1     -42.261  53.687 -53.609  1.00  0.00    -0.309 N 
HETATM   28  O   UNL     1     -43.170  53.868 -55.644  1.00  0.00    -0.247 OA
HETATM   29  H   UNL     1     -41.993  52.775 -53.961  1.00  0.00     0.170 HD
HETATM   30  H   UNL     1     -42.336  56.148 -53.784  1.00  0.00     0.164 HD
BRANCH  27  31
HETATM   31  C   UNL     1     -41.962  53.954 -52.260  1.00  0.00     0.039 A 
HETATM   32  C   UNL     1     -40.670  54.046 -51.740  1.00  0.00     0.071 A 
HETATM   33  C   UNL     1     -40.487  54.296 -50.382  1.00  0.00     0.118 A 
HETATM   34  F   UNL     1     -39.242  54.369 -49.893  1.00  0.00    -0.206 F 
HETATM   35  C   UNL     1     -41.566  54.477 -49.527  1.00  0.00     0.042 A 
HETATM   36  C   UNL     1     -42.857  54.425 -50.042  1.00  0.00     0.005 A 
HETATM   37  C   UNL     1     -43.051  54.174 -51.404  1.00  0.00     0.030 A 
ENDBRANCH  27  31
ENDBRANCH  24  25
ENDBRANCH   4  24
TORSDOF 7
ENDMDL
MODEL 9
REMARK VINA RESULT:      -8.6      3.673      8.741
REMARK  7 active torsions:
REMARK  status: ('A' for Active; 'I' for Inactive)
REMARK    1  A    between atoms: C_4  and  N_5 
REMARK    2  A    between atoms: C_6  and  S_7 
REMARK    3  A    between atoms: S_7  and  C_8 
REMARK    4  A    between atoms: C_8  and  C_9 
REMARK       I    between atoms: C_9  and  N_10 
REMARK    5  A    between atoms: C_12  and  C_13 
REMARK    6  A    between atoms: C_13  and  N_14 
REMARK       I    between atoms: N_14  and  C_15 
REMARK       I    between atoms: C_15  and  N_16 
REMARK    7  A    between atoms: N_16  and  C_17 
ROOT
HETATM    1  C   UNL     1     -44.141  56.831 -54.802  1.00  0.00     0.229 C 
HETATM    2  N   UNL     1     -43.833  57.431 -56.034  1.00  0.00    -0.351 N 
HETATM    3  C   UNL     1     -44.455  58.668 -56.495  1.00  0.00     0.132 C 
HETATM    4  C   UNL     1     -43.678  59.405 -57.592  1.00  0.00     0.021 C 
HETATM    5  C   UNL     1     -43.235  58.442 -58.700  1.00  0.00     0.009 C 
HETATM    6  C   UNL     1     -42.527  57.218 -58.137  1.00  0.00     0.020 C 
HETATM    7  C   UNL     1     -43.386  56.520 -57.089  1.00  0.00     0.126 C 
HETATM    8  O   UNL     1     -43.846  55.647 -54.591  1.00  0.00    -0.273 OA
ENDROOT
BRANCH   1   9
HETATM    9  C   UNL     1     -44.644  57.671 -53.635  1.00  0.00     0.185 C 
BRANCH   9  10
HETATM   10  S   UNL     1     -44.322  57.122 -51.947  1.00  0.00    -0.082 SA
BRANCH  10  11
HETATM   11  C   UNL     1     -42.785  57.809 -51.544  1.00  0.00     0.173 A 
HETATM   12  N   UNL     1     -41.593  57.089 -51.504  1.00  0.00    -0.299 N 
HETATM   13  C   UNL     1     -40.653  57.983 -51.023  1.00  0.00     0.118 A 
HETATM   14  C   UNL     1     -41.317  59.164 -50.801  1.00  0.00     0.137 A 
HETATM   15  N   UNL     1     -42.637  59.041 -51.117  1.00  0.00    -0.235 NA
BRANCH  12  16
HETATM   16  C   UNL     1     -41.307  55.759 -51.941  1.00  0.00     0.047 A 
HETATM   17  C   UNL     1     -40.928  55.558 -53.282  1.00  0.00     0.037 A 
HETATM   18  C   UNL     1     -40.575  54.291 -53.760  1.00  0.00    -0.060 A 
HETATM   19  C   UNL     1     -40.204  54.092 -55.202  1.00  0.00     0.048 C 
HETATM   20  C   UNL     1     -40.613  53.206 -52.886  1.00  0.00     0.007 A 
HETATM   21  C   UNL     1     -40.988  53.391 -51.554  1.00  0.00     0.009 A 
HETATM   22  C   UNL     1     -41.356  54.657 -51.062  1.00  0.00    -0.035 A 
HETATM   23  C   UNL     1     -41.820  54.729 -49.632  1.00  0.00     0.050 C 
ENDBRANCH  12  16
ENDBRANCH  10  11
ENDBRANCH   9  10
ENDBRANCH   1   9
BRANCH   4  24
HETATM   24  C   UNL     1     -42.514  60.193 -56.960  1.00  0.00     0.130 C 
BRANCH  24  25
HETATM   25  N   UNL     1     -42.834  60.786 -55.673  1.00  0.00    -0.342 N 
HETATM   26  C   UNL     1     -42.179  60.410 -54.538  1.00  0.00     0.320 C 
HETATM   27  N   UNL     1     -42.466  61.092 -53.395  1.00  0.00    -0.309 N 
HETATM   28  O   UNL     1     -41.315  59.536 -54.515  1.00  0.00    -0.247 OA
HETATM   29  H   UNL     1     -41.794  60.869 -52.669  1.00  0.00     0.170 HD
HETATM   30  H   UNL     1     -43.029  61.776 -55.698  1.00  0.00     0.164 HD
BRANCH  27  31
HETATM   31  C   UNL     1     -43.487  61.996 -53.049  1.00  0.00     0.039 A 
HETATM   32  C   UNL     1     -44.775  61.624 -52.661  1.00  0.00     0.071 A 
HETATM   33  C   UNL     1     -45.718  62.604 -52.360  1.00  0.00     0.118 A 
HETATM   34  F   UNL     1     -46.954  62.234 -52.001  1.00  0.00    -0.206 F 
HETATM   35  C   UNL     1     -45.400  63.956 -52.416  1.00  0.00     0.042 A 
HETATM   36  C   UNL     1     -44.109  64.336 -52.764  1.00  0.00     0.005 A 
HETATM   37  C   UNL     1     -43.156  63.359 -53.070  1.00  0.00     0.030 A 
ENDBRANCH  27  31
ENDBRANCH  24  25
ENDBRANCH   4  24
TORSDOF 7
ENDMDL
MODEL 10
REMARK VINA RESULT:      -8.6      1.572      2.891
REMARK  7 active torsions:
REMARK  status: ('A' for Active; 'I' for Inactive)
REMARK    1  A    between atoms: C_4  and  N_5 
REMARK    2  A    between atoms: C_6  and  S_7 
REMARK    3  A    between atoms: S_7  and  C_8 
REMARK    4  A    between atoms: C_8  and  C_9 
REMARK       I    between atoms: C_9  and  N_10 
REMARK    5  A    between atoms: C_12  and  C_13 
REMARK    6  A    between atoms: C_13  and  N_14 
REMARK       I    between atoms: N_14  and  C_15 
REMARK       I    between atoms: C_15  and  N_16 
REMARK    7  A    between atoms: N_16  and  C_17 
ROOT
HETATM    1  C   UNL     1     -42.374  58.311 -54.424  1.00  0.00     0.229 C 
HETATM    2  N   UNL     1     -42.722  57.049 -53.918  1.00  0.00    -0.351 N 
HETATM    3  C   UNL     1     -43.815  56.247 -54.460  1.00  0.00     0.132 C 
HETATM    4  C   UNL     1     -43.743  54.753 -54.121  1.00  0.00     0.021 C 
HETATM    5  C   UNL     1     -43.446  54.537 -52.632  1.00  0.00     0.009 C 
HETATM    6  C   UNL     1     -42.246  55.349 -52.169  1.00  0.00     0.020 C 
HETATM    7  C   UNL     1     -42.419  56.826 -52.503  1.00  0.00     0.126 C 
HETATM    8  O   UNL     1     -41.674  59.083 -53.755  1.00  0.00    -0.273 OA
ENDROOT
BRANCH   1   9
HETATM    9  C   UNL     1     -42.664  58.672 -55.876  1.00  0.00     0.185 C 
BRANCH   9  10
HETATM   10  S   UNL     1     -44.019  59.803 -56.252  1.00  0.00    -0.082 SA
BRANCH  10  11
HETATM   11  C   UNL     1     -45.187  58.832 -57.083  1.00  0.00     0.173 A 
HETATM   12  N   UNL     1     -45.065  58.428 -58.410  1.00  0.00    -0.299 N 
HETATM   13  C   UNL     1     -46.258  57.791 -58.700  1.00  0.00     0.118 A 
HETATM   14  C   UNL     1     -47.017  57.848 -57.557  1.00  0.00     0.137 A 
HETATM   15  N   UNL     1     -46.348  58.504 -56.567  1.00  0.00    -0.235 NA
BRANCH  12  16
HETATM   16  C   UNL     1     -43.953  58.524 -59.302  1.00  0.00     0.047 A 
HETATM   17  C   UNL     1     -43.834  59.672 -60.109  1.00  0.00     0.037 A 
HETATM   18  C   UNL     1     -42.738  59.858 -60.959  1.00  0.00    -0.060 A 
HETATM   19  C   UNL     1     -42.647  61.074 -61.836  1.00  0.00     0.048 C 
HETATM   20  C   UNL     1     -41.750  58.876 -61.010  1.00  0.00     0.007 A 
HETATM   21  C   UNL     1     -41.855  57.733 -60.216  1.00  0.00     0.009 A 
HETATM   22  C   UNL     1     -42.957  57.527 -59.364  1.00  0.00    -0.035 A 
HETATM   23  C   UNL     1     -43.009  56.224 -58.613  1.00  0.00     0.050 C 
ENDBRANCH  12  16
ENDBRANCH  10  11
ENDBRANCH   9  10
ENDBRANCH   1   9
BRANCH   4  24
HETATM   24  C   UNL     1     -42.735  54.060 -55.056  1.00  0.00     0.130 C 
BRANCH  24  25
HETATM   25  N   UNL     1     -41.709  53.302 -54.360  1.00  0.00    -0.342 N 
HETATM   26  C   UNL     1     -40.385  53.576 -54.535  1.00  0.00     0.320 C 
HETATM   27  N   UNL     1     -39.497  52.889 -53.764  1.00  0.00    -0.309 N 
HETATM   28  O   UNL     1     -39.970  54.440 -55.303  1.00  0.00    -0.247 OA
HETATM   29  H   UNL     1     -38.574  53.302 -53.831  1.00  0.00     0.170 HD
HETATM   30  H   UNL     1     -41.933  53.061 -53.406  1.00  0.00     0.164 HD
BRANCH  27  31
HETATM   31  C   UNL     1     -39.620  51.754 -52.941  1.00  0.00     0.039 A 
HETATM   32  C   UNL     1     -39.840  51.796 -51.564  1.00  0.00     0.071 A 
HETATM   33  C   UNL     1     -39.926  50.609 -50.840  1.00  0.00     0.118 A 
HETATM   34  F   UNL     1     -40.124  50.662 -49.517  1.00  0.00    -0.206 F 
HETATM   35  C   UNL     1     -39.818  49.371 -51.463  1.00  0.00     0.042 A 
HETATM   36  C   UNL     1     -39.637  49.318 -52.841  1.00  0.00     0.005 A 
HETATM   37  C   UNL     1     -39.548  50.506 -53.576  1.00  0.00     0.030 A 
ENDBRANCH  27  31
ENDBRANCH  24  25
ENDBRANCH   4  24
TORSDOF 7
ENDMDL
