MODEL 1
REMARK VINA RESULT:      -8.7      0.000      0.000
REMARK  8 active torsions:
REMARK  status: ('A' for Active; 'I' for Inactive)
REMARK    1  A    between atoms: O_2  and  C_3 
REMARK    2  A    between atoms: C_3  and  C_4 
REMARK    3  A    between atoms: C_9  and  N_10 
REMARK       I    between atoms: N_10  and  C_11 
REMARK    4  A    between atoms: C_11  and  C_12 
REMARK    5  A    between atoms: C_12  and  N_13 
REMARK    6  A    between atoms: N_17  and  C_19 
REMARK    7  A    between atoms: C_19  and  C_20 
REMARK    8  A    between atoms: C_23  and  N_24 
ROOT
HETATM    1  C   UNL     1     -42.958  57.466 -51.846  1.00  0.00     0.337 C 
ENDROOT
BRANCH   1   2
HETATM    2  C   UNL     1     -43.821  56.510 -51.036  1.00  0.00     0.248 C 
HETATM    3  N   UNL     1     -43.466  55.213 -50.847  1.00  0.00    -0.323 N 
HETATM    4  H   UNL     1     -44.232  54.624 -50.503  1.00  0.00     0.169 HD
HETATM    5  O   UNL     1     -44.922  56.937 -50.671  1.00  0.00    -0.271 OA
BRANCH   3   6
HETATM    6  C   UNL     1     -42.332  54.523 -51.267  1.00  0.00     0.080 C 
HETATM    7  C   UNL     1     -41.286  54.277 -50.386  1.00  0.00     0.136 C 
HETATM    8  N   UNL     1     -40.378  53.481 -51.041  1.00  0.00    -0.349 N 
HETATM    9  H   UNL     1     -39.512  53.148 -50.630  1.00  0.00     0.166 HD
HETATM   10  C   UNL     1     -40.779  53.252 -52.334  1.00  0.00     0.045 A 
HETATM   11  C   UNL     1     -41.948  53.987 -52.542  1.00  0.00     0.020 A 
HETATM   12  C   UNL     1     -40.153  52.503 -53.336  1.00  0.00     0.030 A 
HETATM   13  C   UNL     1     -42.425  54.077 -53.871  1.00  0.00     0.016 A 
HETATM   14  C   UNL     1     -41.808  53.341 -54.891  1.00  0.00     0.001 A 
HETATM   15  C   UNL     1     -40.701  52.545 -54.618  1.00  0.00     0.002 A 
BRANCH   7  16
HETATM   16  C   UNL     1     -41.137  54.712 -49.017  1.00  0.00     0.312 C 
HETATM   17  O   UNL     1     -41.155  55.886 -48.671  1.00  0.00    -0.258 OA
BRANCH  16  18
HETATM   18  O   UNL     1     -40.993  53.636 -48.200  1.00  0.00    -0.321 OA
HETATM   19  C   UNL     1     -39.892  53.732 -47.293  1.00  0.00     0.213 C 
ENDBRANCH  16  18
ENDBRANCH   7  16
ENDBRANCH   3   6
ENDBRANCH   1   2
BRANCH   1  20
HETATM   20  N   UNL     1     -43.847  58.378 -52.735  1.00  0.00    -0.060 N 
HETATM   21  H   UNL     1     -44.433  58.863 -52.021  1.00  0.00     0.280 HD
HETATM   22  C   UNL     1     -44.827  57.618 -53.614  1.00  0.00     0.263 C 
HETATM   23  C   UNL     1     -44.120  56.960 -54.826  1.00  0.00     0.263 C 
HETATM   24  N   UNL     1     -43.223  57.941 -55.592  1.00  0.00    -0.064 N 
HETATM   25  H   UNL     1     -43.838  58.578 -56.121  1.00  0.00     0.280 HD
HETATM   26  C   UNL     1     -42.314  58.786 -54.694  1.00  0.00     0.263 C 
HETATM   27  C   UNL     1     -43.082  59.423 -53.511  1.00  0.00     0.263 C 
BRANCH  24  28
HETATM   28  C   UNL     1     -42.381  57.235 -56.661  1.00  0.00     0.273 C 
BRANCH  28  29
HETATM   29  C   UNL     1     -43.180  56.765 -57.846  1.00  0.00    -0.032 A 
HETATM   30  C   UNL     1     -43.842  57.690 -58.670  1.00  0.00     0.011 A 
HETATM   31  C   UNL     1     -44.580  57.257 -59.776  1.00  0.00     0.037 A 
HETATM   32  C   UNL     1     -44.668  55.888 -60.060  1.00  0.00     0.102 A 
HETATM   33  C   UNL     1     -44.017  54.955 -59.245  1.00  0.00     0.037 A 
HETATM   34  C   UNL     1     -43.273  55.395 -58.146  1.00  0.00     0.011 A 
BRANCH  32  35
HETATM   35  N   UNL     1     -45.450  55.428 -61.216  1.00  0.00    -0.116 N 
HETATM   36  O   UNL     1     -44.870  54.725 -62.053  1.00  0.00    -0.532 OA
HETATM   37  O   UNL     1     -46.630  55.795 -61.284  1.00  0.00    -0.532 OA
ENDBRANCH  32  35
ENDBRANCH  28  29
ENDBRANCH  24  28
ENDBRANCH   1  20
TORSDOF 8
ENDMDL
MODEL 2
REMARK VINA RESULT:      -8.2      3.422      8.185
REMARK  8 active torsions:
REMARK  status: ('A' for Active; 'I' for Inactive)
REMARK    1  A    between atoms: O_2  and  C_3 
REMARK    2  A    between atoms: C_3  and  C_4 
REMARK    3  A    between atoms: C_9  and  N_10 
REMARK       I    between atoms: N_10  and  C_11 
REMARK    4  A    between atoms: C_11  and  C_12 
REMARK    5  A    between atoms: C_12  and  N_13 
REMARK    6  A    between atoms: N_17  and  C_19 
REMARK    7  A    between atoms: C_19  and  C_20 
REMARK    8  A    between atoms: C_23  and  N_24 
ROOT
HETATM    1  C   UNL     1     -43.559  59.178 -54.580  1.00  0.00     0.337 C 
ENDROOT
BRANCH   1   2
HETATM    2  C   UNL     1     -44.633  59.907 -55.375  1.00  0.00     0.248 C 
HETATM    3  N   UNL     1     -44.628  59.926 -56.733  1.00  0.00    -0.323 N 
HETATM    4  H   UNL     1     -45.246  60.639 -57.135  1.00  0.00     0.169 HD
HETATM    5  O   UNL     1     -45.430  60.591 -54.724  1.00  0.00    -0.271 OA
BRANCH   3   6
HETATM    6  C   UNL     1     -43.760  59.317 -57.635  1.00  0.00     0.080 C 
HETATM    7  C   UNL     1     -42.569  59.933 -57.998  1.00  0.00     0.136 C 
HETATM    8  N   UNL     1     -41.877  59.050 -58.791  1.00  0.00    -0.349 N 
HETATM    9  H   UNL     1     -40.968  59.242 -59.199  1.00  0.00     0.166 HD
HETATM   10  C   UNL     1     -42.609  57.906 -58.995  1.00  0.00     0.045 A 
HETATM   11  C   UNL     1     -43.846  58.089 -58.374  1.00  0.00     0.020 A 
HETATM   12  C   UNL     1     -42.281  56.764 -59.735  1.00  0.00     0.030 A 
HETATM   13  C   UNL     1     -44.848  57.125 -58.637  1.00  0.00     0.016 A 
HETATM   14  C   UNL     1     -44.543  55.978 -59.382  1.00  0.00     0.001 A 
HETATM   15  C   UNL     1     -43.267  55.792 -59.902  1.00  0.00     0.002 A 
BRANCH   7  16
HETATM   16  C   UNL     1     -42.073  61.236 -57.620  1.00  0.00     0.312 C 
HETATM   17  O   UNL     1     -42.784  62.136 -57.196  1.00  0.00    -0.258 OA
BRANCH  16  18
HETATM   18  O   UNL     1     -40.727  61.288 -57.792  1.00  0.00    -0.321 OA
HETATM   19  C   UNL     1     -40.293  62.299 -58.707  1.00  0.00     0.213 C 
ENDBRANCH  16  18
ENDBRANCH   7  16
ENDBRANCH   3   6
ENDBRANCH   1   2
BRANCH   1  20
HETATM   20  N   UNL     1     -44.153  57.918 -53.897  1.00  0.00    -0.060 N 
HETATM   21  H   UNL     1     -45.107  58.248 -53.634  1.00  0.00     0.280 HD
HETATM   22  C   UNL     1     -43.478  57.550 -52.585  1.00  0.00     0.263 C 
HETATM   23  C   UNL     1     -42.094  56.891 -52.816  1.00  0.00     0.263 C 
HETATM   24  N   UNL     1     -42.146  55.747 -53.837  1.00  0.00    -0.064 N 
HETATM   25  H   UNL     1     -42.605  54.943 -53.380  1.00  0.00     0.280 HD
HETATM   26  C   UNL     1     -42.923  56.083 -55.113  1.00  0.00     0.263 C 
HETATM   27  C   UNL     1     -44.299  56.726 -54.812  1.00  0.00     0.263 C 
BRANCH  24  28
HETATM   28  C   UNL     1     -40.747  55.239 -54.203  1.00  0.00     0.273 C 
BRANCH  28  29
HETATM   29  C   UNL     1     -40.439  53.870 -53.660  1.00  0.00    -0.032 A 
HETATM   30  C   UNL     1     -40.359  53.657 -52.273  1.00  0.00     0.011 A 
HETATM   31  C   UNL     1     -40.079  52.384 -51.765  1.00  0.00     0.037 A 
HETATM   32  C   UNL     1     -39.868  51.315 -52.645  1.00  0.00     0.102 A 
HETATM   33  C   UNL     1     -39.942  51.514 -54.028  1.00  0.00     0.037 A 
HETATM   34  C   UNL     1     -40.231  52.787 -54.531  1.00  0.00     0.011 A 
BRANCH  32  35
HETATM   35  N   UNL     1     -39.566  49.978 -52.115  1.00  0.00    -0.116 N 
HETATM   36  O   UNL     1     -39.429  49.869 -50.890  1.00  0.00    -0.532 OA
HETATM   37  O   UNL     1     -39.448  49.057 -52.934  1.00  0.00    -0.532 OA
ENDBRANCH  32  35
ENDBRANCH  28  29
ENDBRANCH  24  28
ENDBRANCH   1  20
TORSDOF 8
ENDMDL
MODEL 3
REMARK VINA RESULT:      -7.9      2.777      4.198
REMARK  8 active torsions:
REMARK  status: ('A' for Active; 'I' for Inactive)
REMARK    1  A    between atoms: O_2  and  C_3 
REMARK    2  A    between atoms: C_3  and  C_4 
REMARK    3  A    between atoms: C_9  and  N_10 
REMARK       I    between atoms: N_10  and  C_11 
REMARK    4  A    between atoms: C_11  and  C_12 
REMARK    5  A    between atoms: C_12  and  N_13 
REMARK    6  A    between atoms: N_17  and  C_19 
REMARK    7  A    between atoms: C_19  and  C_20 
REMARK    8  A    between atoms: C_23  and  N_24 
ROOT
HETATM    1  C   UNL     1     -43.227  58.871 -54.142  1.00  0.00     0.337 C 
ENDROOT
BRANCH   1   2
HETATM    2  C   UNL     1     -41.719  59.017 -54.285  1.00  0.00     0.248 C 
HETATM    3  N   UNL     1     -40.860  58.441 -53.404  1.00  0.00    -0.323 N 
HETATM    4  H   UNL     1     -39.904  58.809 -53.464  1.00  0.00     0.169 HD
HETATM    5  O   UNL     1     -41.321  59.793 -55.160  1.00  0.00    -0.271 OA
BRANCH   3   6
HETATM    6  C   UNL     1     -41.115  57.630 -52.302  1.00  0.00     0.080 C 
HETATM    7  C   UNL     1     -40.983  58.129 -51.011  1.00  0.00     0.136 C 
HETATM    8  N   UNL     1     -41.417  57.151 -50.149  1.00  0.00    -0.349 N 
HETATM    9  H   UNL     1     -41.430  57.247 -49.139  1.00  0.00     0.166 HD
HETATM   10  C   UNL     1     -41.771  56.019 -50.840  1.00  0.00     0.045 A 
HETATM   11  C   UNL     1     -41.485  56.249 -52.188  1.00  0.00     0.020 A 
HETATM   12  C   UNL     1     -42.258  54.799 -50.354  1.00  0.00     0.030 A 
HETATM   13  C   UNL     1     -41.567  55.139 -53.062  1.00  0.00     0.016 A 
HETATM   14  C   UNL     1     -42.044  53.908 -52.594  1.00  0.00     0.001 A 
HETATM   15  C   UNL     1     -42.408  53.751 -51.262  1.00  0.00     0.002 A 
BRANCH   7  16
HETATM   16  C   UNL     1     -40.523  59.431 -50.588  1.00  0.00     0.312 C 
HETATM   17  O   UNL     1     -39.402  59.863 -50.819  1.00  0.00    -0.258 OA
BRANCH  16  18
HETATM   18  O   UNL     1     -41.514  60.081 -49.924  1.00  0.00    -0.321 OA
HETATM   19  C   UNL     1     -42.449  60.749 -50.777  1.00  0.00     0.213 C 
ENDBRANCH  16  18
ENDBRANCH   7  16
ENDBRANCH   3   6
ENDBRANCH   1   2
BRANCH   1  20
HETATM   20  N   UNL     1     -43.704  57.534 -54.771  1.00  0.00    -0.060 N 
HETATM   21  H   UNL     1     -43.433  56.845 -54.035  1.00  0.00     0.280 HD
HETATM   22  C   UNL     1     -42.929  57.124 -56.013  1.00  0.00     0.263 C 
HETATM   23  C   UNL     1     -43.341  57.964 -57.249  1.00  0.00     0.263 C 
HETATM   24  N   UNL     1     -44.861  58.019 -57.448  1.00  0.00    -0.064 N 
HETATM   25  H   UNL     1     -45.163  57.098 -57.802  1.00  0.00     0.280 HD
HETATM   26  C   UNL     1     -45.648  58.323 -56.169  1.00  0.00     0.263 C 
HETATM   27  C   UNL     1     -45.197  57.443 -54.978  1.00  0.00     0.263 C 
BRANCH  24  28
HETATM   28  C   UNL     1     -45.262  59.009 -58.548  1.00  0.00     0.273 C 
BRANCH  28  29
HETATM   29  C   UNL     1     -46.198  58.428 -59.572  1.00  0.00    -0.032 A 
HETATM   30  C   UNL     1     -46.353  57.036 -59.685  1.00  0.00     0.011 A 
HETATM   31  C   UNL     1     -47.227  56.493 -60.633  1.00  0.00     0.037 A 
HETATM   32  C   UNL     1     -47.948  57.343 -61.482  1.00  0.00     0.102 A 
HETATM   33  C   UNL     1     -47.801  58.731 -61.382  1.00  0.00     0.037 A 
HETATM   34  C   UNL     1     -46.932  59.268 -60.427  1.00  0.00     0.011 A 
BRANCH  32  35
HETATM   35  N   UNL     1     -48.861  56.775 -62.484  1.00  0.00    -0.116 N 
HETATM   36  O   UNL     1     -48.364  56.084 -63.381  1.00  0.00    -0.532 OA
HETATM   37  O   UNL     1     -50.064  57.046 -62.372  1.00  0.00    -0.532 OA
ENDBRANCH  32  35
ENDBRANCH  28  29
ENDBRANCH  24  28
ENDBRANCH   1  20
TORSDOF 8
ENDMDL
MODEL 4
REMARK VINA RESULT:      -7.8      3.076      9.084
REMARK  8 active torsions:
REMARK  status: ('A' for Active; 'I' for Inactive)
REMARK    1  A    between atoms: O_2  and  C_3 
REMARK    2  A    between atoms: C_3  and  C_4 
REMARK    3  A    between atoms: C_9  and  N_10 
REMARK       I    between atoms: N_10  and  C_11 
REMARK    4  A    between atoms: C_11  and  C_12 
REMARK    5  A    between atoms: C_12  and  N_13 
REMARK    6  A    between atoms: N_17  and  C_19 
REMARK    7  A    between atoms: C_19  and  C_20 
REMARK    8  A    between atoms: C_23  and  N_24 
ROOT
HETATM    1  C   UNL     1     -43.649  58.518 -55.933  1.00  0.00     0.337 C 
ENDROOT
BRANCH   1   2
HETATM    2  C   UNL     1     -44.829  59.443 -56.197  1.00  0.00     0.248 C 
HETATM    3  N   UNL     1     -45.095  59.925 -57.439  1.00  0.00    -0.323 N 
HETATM    4  H   UNL     1     -45.750  60.715 -57.440  1.00  0.00     0.169 HD
HETATM    5  O   UNL     1     -45.451  59.839 -55.205  1.00  0.00    -0.271 OA
BRANCH   3   6
HETATM    6  C   UNL     1     -44.451  59.687 -58.650  1.00  0.00     0.080 C 
HETATM    7  C   UNL     1     -44.844  58.632 -59.464  1.00  0.00     0.136 C 
HETATM    8  N   UNL     1     -44.122  58.725 -60.630  1.00  0.00    -0.349 N 
HETATM    9  H   UNL     1     -44.208  58.078 -61.406  1.00  0.00     0.166 HD
HETATM   10  C   UNL     1     -43.237  59.773 -60.569  1.00  0.00     0.045 A 
HETATM   11  C   UNL     1     -43.340  60.329 -59.292  1.00  0.00     0.020 A 
HETATM   12  C   UNL     1     -42.319  60.215 -61.529  1.00  0.00     0.030 A 
HETATM   13  C   UNL     1     -42.366  61.288 -58.927  1.00  0.00     0.016 A 
HETATM   14  C   UNL     1     -41.433  61.739 -59.871  1.00  0.00     0.001 A 
HETATM   15  C   UNL     1     -41.430  61.224 -61.162  1.00  0.00     0.002 A 
BRANCH   7  16
HETATM   16  C   UNL     1     -45.842  57.619 -59.213  1.00  0.00     0.312 C 
HETATM   17  O   UNL     1     -46.993  57.867 -58.881  1.00  0.00    -0.258 OA
BRANCH  16  18
HETATM   18  O   UNL     1     -45.312  56.385 -59.416  1.00  0.00    -0.321 OA
HETATM   19  C   UNL     1     -46.036  55.583 -60.354  1.00  0.00     0.213 C 
ENDBRANCH  16  18
ENDBRANCH   7  16
ENDBRANCH   3   6
ENDBRANCH   1   2
BRANCH   1  20
HETATM   20  N   UNL     1     -44.101  57.034 -55.992  1.00  0.00    -0.060 N 
HETATM   21  H   UNL     1     -44.972  57.100 -56.563  1.00  0.00     0.280 HD
HETATM   22  C   UNL     1     -44.540  56.468 -54.651  1.00  0.00     0.263 C 
HETATM   23  C   UNL     1     -43.329  56.164 -53.733  1.00  0.00     0.263 C 
HETATM   24  N   UNL     1     -42.244  55.339 -54.437  1.00  0.00    -0.064 N 
HETATM   25  H   UNL     1     -42.595  54.372 -54.524  1.00  0.00     0.280 HD
HETATM   26  C   UNL     1     -41.883  55.847 -55.836  1.00  0.00     0.263 C 
HETATM   27  C   UNL     1     -43.135  56.119 -56.705  1.00  0.00     0.263 C 
BRANCH  24  28
HETATM   28  C   UNL     1     -40.974  55.215 -53.589  1.00  0.00     0.273 C 
BRANCH  28  29
HETATM   29  C   UNL     1     -40.601  53.795 -53.261  1.00  0.00    -0.032 A 
HETATM   30  C   UNL     1     -40.646  52.801 -54.252  1.00  0.00     0.011 A 
HETATM   31  C   UNL     1     -40.295  51.481 -53.952  1.00  0.00     0.037 A 
HETATM   32  C   UNL     1     -39.902  51.145 -52.649  1.00  0.00     0.102 A 
HETATM   33  C   UNL     1     -39.856  52.124 -51.651  1.00  0.00     0.037 A 
HETATM   34  C   UNL     1     -40.200  53.444 -51.960  1.00  0.00     0.011 A 
BRANCH  32  35
HETATM   35  N   UNL     1     -39.540  49.757 -52.329  1.00  0.00    -0.116 N 
HETATM   36  O   UNL     1     -39.529  49.433 -51.135  1.00  0.00    -0.532 OA
HETATM   37  O   UNL     1     -39.251  49.014 -53.275  1.00  0.00    -0.532 OA
ENDBRANCH  32  35
ENDBRANCH  28  29
ENDBRANCH  24  28
ENDBRANCH   1  20
TORSDOF 8
ENDMDL
MODEL 5
REMARK VINA RESULT:      -7.8      2.653      3.242
REMARK  8 active torsions:
REMARK  status: ('A' for Active; 'I' for Inactive)
REMARK    1  A    between atoms: O_2  and  C_3 
REMARK    2  A    between atoms: C_3  and  C_4 
REMARK    3  A    between atoms: C_9  and  N_10 
REMARK       I    between atoms: N_10  and  C_11 
REMARK    4  A    between atoms: C_11  and  C_12 
REMARK    5  A    between atoms: C_12  and  N_13 
REMARK    6  A    between atoms: N_17  and  C_19 
REMARK    7  A    between atoms: C_19  and  C_20 
REMARK    8  A    between atoms: C_23  and  N_24 
ROOT
HETATM    1  C   UNL     1     -44.897  58.764 -54.141  1.00  0.00     0.337 C 
ENDROOT
BRANCH   1   2
HETATM    2  C   UNL     1     -44.685  58.576 -52.645  1.00  0.00     0.248 C 
HETATM    3  N   UNL     1     -43.675  57.810 -52.158  1.00  0.00    -0.323 N 
HETATM    4  H   UNL     1     -43.785  57.568 -51.167  1.00  0.00     0.169 HD
HETATM    5  O   UNL     1     -45.555  59.044 -51.903  1.00  0.00    -0.271 OA
BRANCH   3   6
HETATM    6  C   UNL     1     -42.670  57.118 -52.828  1.00  0.00     0.080 C 
HETATM    7  C   UNL     1     -41.347  57.535 -52.746  1.00  0.00     0.136 C 
HETATM    8  N   UNL     1     -40.582  56.598 -53.398  1.00  0.00    -0.349 N 
HETATM    9  H   UNL     1     -39.573  56.652 -53.492  1.00  0.00     0.166 HD
HETATM   10  C   UNL     1     -41.376  55.620 -53.944  1.00  0.00     0.045 A 
HETATM   11  C   UNL     1     -42.703  55.979 -53.701  1.00  0.00     0.020 A 
HETATM   12  C   UNL     1     -41.007  54.491 -54.686  1.00  0.00     0.030 A 
HETATM   13  C   UNL     1     -43.705  55.230 -54.363  1.00  0.00     0.016 A 
HETATM   14  C   UNL     1     -43.357  54.100 -55.115  1.00  0.00     0.001 A 
HETATM   15  C   UNL     1     -42.026  53.725 -55.252  1.00  0.00     0.002 A 
BRANCH   7  16
HETATM   16  C   UNL     1     -40.806  58.699 -52.084  1.00  0.00     0.312 C 
HETATM   17  O   UNL     1     -39.961  59.431 -52.581  1.00  0.00    -0.258 OA
BRANCH  16  18
HETATM   18  O   UNL     1     -41.383  58.850 -50.864  1.00  0.00    -0.321 OA
HETATM   19  C   UNL     1     -41.616  60.212 -50.491  1.00  0.00     0.213 C 
ENDBRANCH  16  18
ENDBRANCH   7  16
ENDBRANCH   3   6
ENDBRANCH   1   2
BRANCH   1  20
HETATM   20  N   UNL     1     -44.567  60.223 -54.555  1.00  0.00    -0.060 N 
HETATM   21  H   UNL     1     -45.170  60.771 -53.903  1.00  0.00     0.280 HD
HETATM   22  C   UNL     1     -45.042  60.592 -55.951  1.00  0.00     0.263 C 
HETATM   23  C   UNL     1     -44.138  59.973 -57.047  1.00  0.00     0.263 C 
HETATM   24  N   UNL     1     -42.646  60.236 -56.803  1.00  0.00    -0.064 N 
HETATM   25  H   UNL     1     -42.465  61.228 -57.021  1.00  0.00     0.280 HD
HETATM   26  C   UNL     1     -42.193  59.970 -55.365  1.00  0.00     0.263 C 
HETATM   27  C   UNL     1     -43.130  60.624 -54.321  1.00  0.00     0.263 C 
BRANCH  24  28
HETATM   28  C   UNL     1     -41.758  59.456 -57.778  1.00  0.00     0.273 C 
BRANCH  28  29
HETATM   29  C   UNL     1     -42.440  58.267 -58.399  1.00  0.00    -0.032 A 
HETATM   30  C   UNL     1     -42.659  57.100 -57.648  1.00  0.00     0.011 A 
HETATM   31  C   UNL     1     -43.298  55.996 -58.221  1.00  0.00     0.037 A 
HETATM   32  C   UNL     1     -43.716  56.050 -59.557  1.00  0.00     0.102 A 
HETATM   33  C   UNL     1     -43.501  57.205 -60.318  1.00  0.00     0.037 A 
HETATM   34  C   UNL     1     -42.869  58.309 -59.737  1.00  0.00     0.011 A 
BRANCH  32  35
HETATM   35  N   UNL     1     -44.380  54.889 -60.165  1.00  0.00    -0.116 N 
HETATM   36  O   UNL     1     -44.715  54.980 -61.352  1.00  0.00    -0.532 OA
HETATM   37  O   UNL     1     -44.578  53.906 -59.439  1.00  0.00    -0.532 OA
ENDBRANCH  32  35
ENDBRANCH  28  29
ENDBRANCH  24  28
ENDBRANCH   1  20
TORSDOF 8
ENDMDL
MODEL 6
REMARK VINA RESULT:      -7.7      3.030      7.811
REMARK  8 active torsions:
REMARK  status: ('A' for Active; 'I' for Inactive)
REMARK    1  A    between atoms: O_2  and  C_3 
REMARK    2  A    between atoms: C_3  and  C_4 
REMARK    3  A    between atoms: C_9  and  N_10 
REMARK       I    between atoms: N_10  and  C_11 
REMARK    4  A    between atoms: C_11  and  C_12 
REMARK    5  A    between atoms: C_12  and  N_13 
REMARK    6  A    between atoms: N_17  and  C_19 
REMARK    7  A    between atoms: C_19  and  C_20 
REMARK    8  A    between atoms: C_23  and  N_24 
ROOT
HETATM    1  C   UNL     1     -41.162  59.182 -53.349  1.00  0.00     0.337 C 
ENDROOT
BRANCH   1   2
HETATM    2  C   UNL     1     -42.106  60.133 -54.070  1.00  0.00     0.248 C 
HETATM    3  N   UNL     1     -42.713  59.790 -55.236  1.00  0.00    -0.323 N 
HETATM    4  H   UNL     1     -43.119  60.587 -55.737  1.00  0.00     0.169 HD
HETATM    5  O   UNL     1     -42.189  61.278 -53.614  1.00  0.00    -0.271 OA
BRANCH   3   6
HETATM    6  C   UNL     1     -42.661  58.601 -55.958  1.00  0.00     0.080 C 
HETATM    7  C   UNL     1     -42.174  58.584 -57.259  1.00  0.00     0.136 C 
HETATM    8  N   UNL     1     -42.128  57.271 -57.661  1.00  0.00    -0.349 N 
HETATM    9  H   UNL     1     -41.810  56.966 -58.575  1.00  0.00     0.166 HD
HETATM   10  C   UNL     1     -42.622  56.447 -56.681  1.00  0.00     0.045 A 
HETATM   11  C   UNL     1     -43.071  57.262 -55.640  1.00  0.00     0.020 A 
HETATM   12  C   UNL     1     -42.757  55.053 -56.679  1.00  0.00     0.030 A 
HETATM   13  C   UNL     1     -43.819  56.642 -54.612  1.00  0.00     0.016 A 
HETATM   14  C   UNL     1     -43.973  55.250 -54.595  1.00  0.00     0.001 A 
HETATM   15  C   UNL     1     -43.425  54.466 -55.605  1.00  0.00     0.002 A 
BRANCH   7  16
HETATM   16  C   UNL     1     -41.743  59.693 -58.078  1.00  0.00     0.312 C 
HETATM   17  O   UNL     1     -41.141  60.665 -57.642  1.00  0.00    -0.258 OA
BRANCH  16  18
HETATM   18  O   UNL     1     -42.090  59.477 -59.373  1.00  0.00    -0.321 OA
HETATM   19  C   UNL     1     -41.870  60.599 -60.233  1.00  0.00     0.213 C 
ENDBRANCH  16  18
ENDBRANCH   7  16
ENDBRANCH   3   6
ENDBRANCH   1   2
BRANCH   1  20
HETATM   20  N   UNL     1     -41.232  59.410 -51.815  1.00  0.00    -0.060 N 
HETATM   21  H   UNL     1     -40.781  60.346 -51.719  1.00  0.00     0.280 HD
HETATM   22  C   UNL     1     -40.361  58.459 -51.009  1.00  0.00     0.263 C 
HETATM   23  C   UNL     1     -40.985  57.042 -50.925  1.00  0.00     0.263 C 
HETATM   24  N   UNL     1     -42.456  57.068 -50.489  1.00  0.00    -0.064 N 
HETATM   25  H   UNL     1     -42.478  57.287 -49.481  1.00  0.00     0.280 HD
HETATM   26  C   UNL     1     -43.307  58.106 -51.226  1.00  0.00     0.263 C 
HETATM   27  C   UNL     1     -42.634  59.499 -51.264  1.00  0.00     0.263 C 
BRANCH  24  28
HETATM   28  C   UNL     1     -43.113  55.688 -50.601  1.00  0.00     0.273 C 
BRANCH  28  29
HETATM   29  C   UNL     1     -42.158  54.594 -50.995  1.00  0.00    -0.032 A 
HETATM   30  C   UNL     1     -41.973  54.266 -52.348  1.00  0.00     0.011 A 
HETATM   31  C   UNL     1     -41.081  53.253 -52.719  1.00  0.00     0.037 A 
HETATM   32  C   UNL     1     -40.374  52.554 -51.732  1.00  0.00     0.102 A 
HETATM   33  C   UNL     1     -40.552  52.868 -50.380  1.00  0.00     0.037 A 
HETATM   34  C   UNL     1     -41.437  53.888 -50.016  1.00  0.00     0.011 A 
BRANCH  32  35
HETATM   35  N   UNL     1     -39.443  51.484 -52.117  1.00  0.00    -0.116 N 
HETATM   36  O   UNL     1     -39.136  50.657 -51.250  1.00  0.00    -0.532 OA
HETATM   37  O   UNL     1     -39.013  51.498 -53.277  1.00  0.00    -0.532 OA
ENDBRANCH  32  35
ENDBRANCH  28  29
ENDBRANCH  24  28
ENDBRANCH   1  20
TORSDOF 8
ENDMDL
MODEL 7
REMARK VINA RESULT:      -7.7      3.944      7.756
REMARK  8 active torsions:
REMARK  status: ('A' for Active; 'I' for Inactive)
REMARK    1  A    between atoms: O_2  and  C_3 
REMARK    2  A    between atoms: C_3  and  C_4 
REMARK    3  A    between atoms: C_9  and  N_10 
REMARK       I    between atoms: N_10  and  C_11 
REMARK    4  A    between atoms: C_11  and  C_12 
REMARK    5  A    between atoms: C_12  and  N_13 
REMARK    6  A    between atoms: N_17  and  C_19 
REMARK    7  A    between atoms: C_19  and  C_20 
REMARK    8  A    between atoms: C_23  and  N_24 
ROOT
HETATM    1  C   UNL     1     -44.126  58.971 -52.839  1.00  0.00     0.337 C 
ENDROOT
BRANCH   1   2
HETATM    2  C   UNL     1     -45.228  59.907 -53.314  1.00  0.00     0.248 C 
HETATM    3  N   UNL     1     -45.109  60.627 -54.460  1.00  0.00    -0.323 N 
HETATM    4  H   UNL     1     -45.794  61.387 -54.539  1.00  0.00     0.169 HD
HETATM    5  O   UNL     1     -46.175  60.080 -52.539  1.00  0.00    -0.271 OA
BRANCH   3   6
HETATM    6  C   UNL     1     -44.084  60.653 -55.400  1.00  0.00     0.080 C 
HETATM    7  C   UNL     1     -43.245  61.756 -55.503  1.00  0.00     0.136 C 
HETATM    8  N   UNL     1     -42.268  61.443 -56.417  1.00  0.00    -0.349 N 
HETATM    9  H   UNL     1     -41.519  62.072 -56.688  1.00  0.00     0.166 HD
HETATM   10  C   UNL     1     -42.484  60.196 -56.947  1.00  0.00     0.045 A 
HETATM   11  C   UNL     1     -43.681  59.718 -56.412  1.00  0.00     0.020 A 
HETATM   12  C   UNL     1     -41.736  59.498 -57.904  1.00  0.00     0.030 A 
HETATM   13  C   UNL     1     -44.216  58.538 -56.981  1.00  0.00     0.016 A 
HETATM   14  C   UNL     1     -43.488  57.829 -57.945  1.00  0.00     0.001 A 
HETATM   15  C   UNL     1     -42.253  58.293 -58.380  1.00  0.00     0.002 A 
BRANCH   7  16
HETATM   16  C   UNL     1     -43.307  63.009 -54.786  1.00  0.00     0.312 C 
HETATM   17  O   UNL     1     -43.506  64.089 -55.324  1.00  0.00    -0.258 OA
BRANCH  16  18
HETATM   18  O   UNL     1     -43.130  62.793 -53.457  1.00  0.00    -0.321 OA
HETATM   19  C   UNL     1     -43.455  63.916 -52.633  1.00  0.00     0.213 C 
ENDBRANCH  16  18
ENDBRANCH   7  16
ENDBRANCH   3   6
ENDBRANCH   1   2
BRANCH   1  20
HETATM   20  N   UNL     1     -44.680  57.533 -52.651  1.00  0.00    -0.060 N 
HETATM   21  H   UNL     1     -45.709  57.706 -52.609  1.00  0.00     0.280 HD
HETATM   22  C   UNL     1     -44.322  56.902 -51.315  1.00  0.00     0.263 C 
HETATM   23  C   UNL     1     -42.842  56.442 -51.276  1.00  0.00     0.263 C 
HETATM   24  N   UNL     1     -42.455  55.593 -52.494  1.00  0.00    -0.064 N 
HETATM   25  H   UNL     1     -42.891  54.665 -52.378  1.00  0.00     0.280 HD
HETATM   26  C   UNL     1     -42.916  56.175 -53.833  1.00  0.00     0.263 C 
HETATM   27  C   UNL     1     -44.403  56.604 -53.808  1.00  0.00     0.263 C 
BRANCH  24  28
HETATM   28  C   UNL     1     -40.949  55.312 -52.544  1.00  0.00     0.273 C 
BRANCH  28  29
HETATM   29  C   UNL     1     -40.611  53.876 -52.835  1.00  0.00    -0.032 A 
HETATM   30  C   UNL     1     -40.775  53.355 -54.129  1.00  0.00     0.011 A 
HETATM   31  C   UNL     1     -40.455  52.020 -54.404  1.00  0.00     0.037 A 
HETATM   32  C   UNL     1     -39.977  51.195 -53.379  1.00  0.00     0.102 A 
HETATM   33  C   UNL     1     -39.812  51.700 -52.084  1.00  0.00     0.037 A 
HETATM   34  C   UNL     1     -40.124  53.036 -51.817  1.00  0.00     0.011 A 
BRANCH  32  35
HETATM   35  N   UNL     1     -39.648  49.790 -53.663  1.00  0.00    -0.116 N 
HETATM   36  O   UNL     1     -39.413  49.054 -52.697  1.00  0.00    -0.532 OA
HETATM   37  O   UNL     1     -39.608  49.447 -54.851  1.00  0.00    -0.532 OA
ENDBRANCH  32  35
ENDBRANCH  28  29
ENDBRANCH  24  28
ENDBRANCH   1  20
TORSDOF 8
ENDMDL
MODEL 8
REMARK VINA RESULT:      -7.6      2.236      8.067
REMARK  8 active torsions:
REMARK  status: ('A' for Active; 'I' for Inactive)
REMARK    1  A    between atoms: O_2  and  C_3 
REMARK    2  A    between atoms: C_3  and  C_4 
REMARK    3  A    between atoms: C_9  and  N_10 
REMARK       I    between atoms: N_10  and  C_11 
REMARK    4  A    between atoms: C_11  and  C_12 
REMARK    5  A    between atoms: C_12  and  N_13 
REMARK    6  A    between atoms: N_17  and  C_19 
REMARK    7  A    between atoms: C_19  and  C_20 
REMARK    8  A    between atoms: C_23  and  N_24 
ROOT
HETATM    1  C   UNL     1     -43.308  59.660 -56.475  1.00  0.00     0.337 C 
ENDROOT
BRANCH   1   2
HETATM    2  C   UNL     1     -42.096  59.329 -57.333  1.00  0.00     0.248 C 
HETATM    3  N   UNL     1     -41.731  58.046 -57.589  1.00  0.00    -0.323 N 
HETATM    4  H   UNL     1     -40.780  57.958 -57.963  1.00  0.00     0.169 HD
HETATM    5  O   UNL     1     -41.386  60.282 -57.674  1.00  0.00    -0.271 OA
BRANCH   3   6
HETATM    6  C   UNL     1     -42.330  56.850 -57.207  1.00  0.00     0.080 C 
HETATM    7  C   UNL     1     -43.317  56.269 -57.994  1.00  0.00     0.136 C 
HETATM    8  N   UNL     1     -43.624  55.053 -57.434  1.00  0.00    -0.349 N 
HETATM    9  H   UNL     1     -44.318  54.413 -57.806  1.00  0.00     0.166 HD
HETATM   10  C   UNL     1     -42.906  54.856 -56.280  1.00  0.00     0.045 A 
HETATM   11  C   UNL     1     -42.166  56.017 -56.049  1.00  0.00     0.020 A 
HETATM   12  C   UNL     1     -42.916  53.763 -55.406  1.00  0.00     0.030 A 
HETATM   13  C   UNL     1     -41.515  56.128 -54.797  1.00  0.00     0.016 A 
HETATM   14  C   UNL     1     -41.520  55.049 -53.904  1.00  0.00     0.001 A 
HETATM   15  C   UNL     1     -42.192  53.873 -54.219  1.00  0.00     0.002 A 
BRANCH   7  16
HETATM   16  C   UNL     1     -43.922  56.775 -59.204  1.00  0.00     0.312 C 
HETATM   17  O   UNL     1     -44.606  57.788 -59.249  1.00  0.00    -0.258 OA
BRANCH  16  18
HETATM   18  O   UNL     1     -43.603  55.973 -60.253  1.00  0.00    -0.321 OA
HETATM   19  C   UNL     1     -44.709  55.240 -60.788  1.00  0.00     0.213 C 
ENDBRANCH  16  18
ENDBRANCH   7  16
ENDBRANCH   3   6
ENDBRANCH   1   2
BRANCH   1  20
HETATM   20  N   UNL     1     -42.887  60.512 -55.247  1.00  0.00    -0.060 N 
HETATM   21  H   UNL     1     -42.425  61.328 -55.704  1.00  0.00     0.280 HD
HETATM   22  C   UNL     1     -41.810  59.867 -54.388  1.00  0.00     0.263 C 
HETATM   23  C   UNL     1     -42.382  58.719 -53.518  1.00  0.00     0.263 C 
HETATM   24  N   UNL     1     -43.639  59.134 -52.741  1.00  0.00    -0.064 N 
HETATM   25  H   UNL     1     -43.339  59.753 -51.972  1.00  0.00     0.280 HD
HETATM   26  C   UNL     1     -44.675  59.882 -53.585  1.00  0.00     0.263 C 
HETATM   27  C   UNL     1     -44.042  61.022 -54.420  1.00  0.00     0.263 C 
BRANCH  24  28
HETATM   28  C   UNL     1     -44.304  57.941 -52.045  1.00  0.00     0.273 C 
BRANCH  28  29
HETATM   29  C   UNL     1     -43.339  57.062 -51.299  1.00  0.00    -0.032 A 
HETATM   30  C   UNL     1     -42.110  57.575 -50.849  1.00  0.00     0.011 A 
HETATM   31  C   UNL     1     -41.213  56.761 -50.149  1.00  0.00     0.037 A 
HETATM   32  C   UNL     1     -41.537  55.420 -49.903  1.00  0.00     0.102 A 
HETATM   33  C   UNL     1     -42.755  54.895 -50.348  1.00  0.00     0.037 A 
HETATM   34  C   UNL     1     -43.652  55.716 -51.039  1.00  0.00     0.011 A 
BRANCH  32  35
HETATM   35  N   UNL     1     -40.593  54.561 -49.175  1.00  0.00    -0.116 N 
HETATM   36  O   UNL     1     -40.894  54.234 -48.020  1.00  0.00    -0.532 OA
HETATM   37  O   UNL     1     -39.552  54.240 -49.762  1.00  0.00    -0.532 OA
ENDBRANCH  32  35
ENDBRANCH  28  29
ENDBRANCH  24  28
ENDBRANCH   1  20
TORSDOF 8
ENDMDL
MODEL 9
REMARK VINA RESULT:      -7.6      2.419      7.893
REMARK  8 active torsions:
REMARK  status: ('A' for Active; 'I' for Inactive)
REMARK    1  A    between atoms: O_2  and  C_3 
REMARK    2  A    between atoms: C_3  and  C_4 
REMARK    3  A    between atoms: C_9  and  N_10 
REMARK       I    between atoms: N_10  and  C_11 
REMARK    4  A    between atoms: C_11  and  C_12 
REMARK    5  A    between atoms: C_12  and  N_13 
REMARK    6  A    between atoms: N_17  and  C_19 
REMARK    7  A    between atoms: C_19  and  C_20 
REMARK    8  A    between atoms: C_23  and  N_24 
ROOT
HETATM    1  C   UNL     1     -42.607  59.720 -56.180  1.00  0.00     0.337 C 
ENDROOT
BRANCH   1   2
HETATM    2  C   UNL     1     -41.873  59.393 -57.472  1.00  0.00     0.248 C 
HETATM    3  N   UNL     1     -41.837  58.131 -57.973  1.00  0.00    -0.323 N 
HETATM    4  H   UNL     1     -41.122  57.998 -58.697  1.00  0.00     0.169 HD
HETATM    5  O   UNL     1     -41.202  60.304 -57.969  1.00  0.00    -0.271 OA
BRANCH   3   6
HETATM    6  C   UNL     1     -42.431  56.963 -57.505  1.00  0.00     0.080 C 
HETATM    7  C   UNL     1     -43.357  56.278 -58.282  1.00  0.00     0.136 C 
HETATM    8  N   UNL     1     -43.668  55.116 -57.618  1.00  0.00    -0.349 N 
HETATM    9  H   UNL     1     -44.324  54.423 -57.961  1.00  0.00     0.166 HD
HETATM   10  C   UNL     1     -43.014  55.057 -56.413  1.00  0.00     0.045 A 
HETATM   11  C   UNL     1     -42.315  56.257 -56.260  1.00  0.00     0.020 A 
HETATM   12  C   UNL     1     -43.050  54.058 -55.432  1.00  0.00     0.030 A 
HETATM   13  C   UNL     1     -41.741  56.511 -54.992  1.00  0.00     0.016 A 
HETATM   14  C   UNL     1     -41.773  55.528 -53.995  1.00  0.00     0.001 A 
HETATM   15  C   UNL     1     -42.398  54.308 -54.225  1.00  0.00     0.002 A 
BRANCH   7  16
HETATM   16  C   UNL     1     -43.901  56.642 -59.569  1.00  0.00     0.312 C 
HETATM   17  O   UNL     1     -44.395  57.734 -59.814  1.00  0.00    -0.258 OA
BRANCH  16  18
HETATM   18  O   UNL     1     -43.765  55.608 -60.440  1.00  0.00    -0.321 OA
HETATM   19  C   UNL     1     -44.995  55.169 -61.024  1.00  0.00     0.213 C 
ENDBRANCH  16  18
ENDBRANCH   7  16
ENDBRANCH   3   6
ENDBRANCH   1   2
BRANCH   1  20
HETATM   20  N   UNL     1     -44.110  59.987 -56.463  1.00  0.00    -0.060 N 
HETATM   21  H   UNL     1     -44.114  60.099 -57.501  1.00  0.00     0.280 HD
HETATM   22  C   UNL     1     -44.618  61.311 -55.913  1.00  0.00     0.263 C 
HETATM   23  C   UNL     1     -44.817  61.254 -54.377  1.00  0.00     0.263 C 
HETATM   24  N   UNL     1     -45.634  60.035 -53.930  1.00  0.00    -0.064 N 
HETATM   25  H   UNL     1     -46.618  60.207 -54.190  1.00  0.00     0.280 HD
HETATM   26  C   UNL     1     -45.192  58.717 -54.573  1.00  0.00     0.263 C 
HETATM   27  C   UNL     1     -45.023  58.838 -56.107  1.00  0.00     0.263 C 
BRANCH  24  28
HETATM   28  C   UNL     1     -45.655  59.884 -52.405  1.00  0.00     0.273 C 
BRANCH  28  29
HETATM   29  C   UNL     1     -44.665  58.879 -51.883  1.00  0.00    -0.032 A 
HETATM   30  C   UNL     1     -45.096  57.612 -51.456  1.00  0.00     0.011 A 
HETATM   31  C   UNL     1     -44.177  56.673 -50.976  1.00  0.00     0.037 A 
HETATM   32  C   UNL     1     -42.817  57.001 -50.912  1.00  0.00     0.102 A 
HETATM   33  C   UNL     1     -42.374  58.261 -51.330  1.00  0.00     0.037 A 
HETATM   34  C   UNL     1     -43.296  59.192 -51.818  1.00  0.00     0.011 A 
BRANCH  32  35
HETATM   35  N   UNL     1     -41.850  56.020 -50.400  1.00  0.00    -0.116 N 
HETATM   36  O   UNL     1     -40.652  56.323 -50.447  1.00  0.00    -0.532 OA
HETATM   37  O   UNL     1     -42.301  54.948 -49.977  1.00  0.00    -0.532 OA
ENDBRANCH  32  35
ENDBRANCH  28  29
ENDBRANCH  24  28
ENDBRANCH   1  20
TORSDOF 8
ENDMDL
MODEL 10
REMARK VINA RESULT:      -7.5      4.616      9.339
REMARK  8 active torsions:
REMARK  status: ('A' for Active; 'I' for Inactive)
REMARK    1  A    between atoms: O_2  and  C_3 
REMARK    2  A    between atoms: C_3  and  C_4 
REMARK    3  A    between atoms: C_9  and  N_10 
REMARK       I    between atoms: N_10  and  C_11 
REMARK    4  A    between atoms: C_11  and  C_12 
REMARK    5  A    between atoms: C_12  and  N_13 
REMARK    6  A    between atoms: N_17  and  C_19 
REMARK    7  A    between atoms: C_19  and  C_20 
REMARK    8  A    between atoms: C_23  and  N_24 
ROOT
HETATM    1  C   UNL     1     -43.271  58.432 -53.544  1.00  0.00     0.337 C 
ENDROOT
BRANCH   1   2
HETATM    2  C   UNL     1     -44.450  57.752 -54.224  1.00  0.00     0.248 C 
HETATM    3  N   UNL     1     -44.324  56.544 -54.833  1.00  0.00    -0.323 N 
HETATM    4  H   UNL     1     -45.109  56.313 -55.452  1.00  0.00     0.169 HD
HETATM    5  O   UNL     1     -45.492  58.411 -54.310  1.00  0.00    -0.271 OA
BRANCH   3   6
HETATM    6  C   UNL     1     -43.219  55.704 -54.938  1.00  0.00     0.080 C 
HETATM    7  C   UNL     1     -42.573  55.535 -56.156  1.00  0.00     0.136 C 
HETATM    8  N   UNL     1     -41.461  54.760 -55.924  1.00  0.00    -0.349 N 
HETATM    9  H   UNL     1     -40.803  54.479 -56.644  1.00  0.00     0.166 HD
HETATM   10  C   UNL     1     -41.403  54.379 -54.607  1.00  0.00     0.045 A 
HETATM   11  C   UNL     1     -42.555  54.863 -53.983  1.00  0.00     0.020 A 
HETATM   12  C   UNL     1     -40.447  53.592 -53.954  1.00  0.00     0.030 A 
HETATM   13  C   UNL     1     -42.817  54.406 -52.670  1.00  0.00     0.016 A 
HETATM   14  C   UNL     1     -41.877  53.611 -52.001  1.00  0.00     0.001 A 
HETATM   15  C   UNL     1     -40.697  53.232 -52.629  1.00  0.00     0.002 A 
BRANCH   7  16
HETATM   16  C   UNL     1     -42.924  56.074 -57.449  1.00  0.00     0.312 C 
HETATM   17  O   UNL     1     -43.285  55.388 -58.396  1.00  0.00    -0.258 OA
BRANCH  16  18
HETATM   18  O   UNL     1     -42.807  57.427 -57.436  1.00  0.00    -0.321 OA
HETATM   19  C   UNL     1     -43.031  58.047 -58.705  1.00  0.00     0.213 C 
ENDBRANCH  16  18
ENDBRANCH   7  16
ENDBRANCH   3   6
ENDBRANCH   1   2
BRANCH   1  20
HETATM   20  N   UNL     1     -43.198  58.021 -52.048  1.00  0.00    -0.060 N 
HETATM   21  H   UNL     1     -42.994  57.000 -52.119  1.00  0.00     0.280 HD
HETATM   22  C   UNL     1     -44.526  58.119 -51.314  1.00  0.00     0.263 C 
HETATM   23  C   UNL     1     -44.897  59.589 -50.993  1.00  0.00     0.263 C 
HETATM   24  N   UNL     1     -43.751  60.356 -50.320  1.00  0.00    -0.064 N 
HETATM   25  H   UNL     1     -43.679  60.017 -49.348  1.00  0.00     0.280 HD
HETATM   26  C   UNL     1     -42.391  60.166 -50.997  1.00  0.00     0.263 C 
HETATM   27  C   UNL     1     -42.076  58.677 -51.279  1.00  0.00     0.263 C 
BRANCH  24  28
HETATM   28  C   UNL     1     -44.059  61.851 -50.189  1.00  0.00     0.273 C 
BRANCH  28  29
HETATM   29  C   UNL     1     -44.461  62.267 -48.801  1.00  0.00    -0.032 A 
HETATM   30  C   UNL     1     -44.526  63.627 -48.456  1.00  0.00     0.011 A 
HETATM   31  C   UNL     1     -44.905  64.017 -47.167  1.00  0.00     0.037 A 
HETATM   32  C   UNL     1     -45.215  63.043 -46.209  1.00  0.00     0.102 A 
HETATM   33  C   UNL     1     -45.151  61.684 -46.538  1.00  0.00     0.037 A 
HETATM   34  C   UNL     1     -44.781  61.301 -47.830  1.00  0.00     0.011 A 
BRANCH  32  35
HETATM   35  N   UNL     1     -45.606  63.449 -44.852  1.00  0.00    -0.116 N 
HETATM   36  O   UNL     1     -46.729  63.945 -44.707  1.00  0.00    -0.532 OA
HETATM   37  O   UNL     1     -44.773  63.285 -43.950  1.00  0.00    -0.532 OA
ENDBRANCH  32  35
ENDBRANCH  28  29
ENDBRANCH  24  28
ENDBRANCH   1  20
TORSDOF 8
ENDMDL
