MODEL 1
REMARK VINA RESULT:      -9.4      0.000      0.000
REMARK  9 active torsions:
REMARK  status: ('A' for Active; 'I' for Inactive)
REMARK    1  A    between atoms: C_4  and  S_5 
REMARK    2  A    between atoms: S_5  and  C_6 
REMARK    3  A    between atoms: C_6  and  C_7 
REMARK       I    between atoms: C_7  and  N_8 
REMARK    4  A    between atoms: N_8  and  C_9 
REMARK    5  A    between atoms: C_9  and  C_10 
REMARK    6  A    between atoms: C_20  and  C_21 
REMARK    7  A    between atoms: C_26  and  C_27 
REMARK       I    between atoms: C_27  and  N_28 
REMARK    8  A    between atoms: N_28  and  C_29 
REMARK    9  A    between atoms: C_31  and  C_32 
ROOT
HETATM    1  C   UNL     1     -42.869  55.226 -56.359  1.00  0.00     0.069 C 
HETATM    2  C   UNL     1     -43.309  56.315 -55.408  1.00  0.00     0.019 C 
HETATM    3  N   UNL     1     -43.878  57.426 -56.006  1.00  0.00    -0.353 N 
HETATM    4  C   UNL     1     -44.498  58.476 -55.353  1.00  0.00     0.087 C 
HETATM    5  C   UNL     1     -44.363  58.549 -54.007  1.00  0.00     0.057 C 
HETATM    6  C   UNL     1     -44.847  59.719 -53.166  1.00  0.00     0.019 C 
HETATM    7  N   UNL     1     -45.249  60.688 -52.467  1.00  0.00    -0.096 N 
HETATM    8  C   UNL     1     -43.530  57.511 -53.238  1.00  0.00     0.129 C 
HETATM    9  C   UNL     1     -43.170  56.274 -54.060  1.00  0.00     0.048 C 
HETATM   10  H   UNL     1     -43.864  57.459 -57.020  1.00  0.00     0.166 HD
ENDROOT
BRANCH   4  11
HETATM   11  S   UNL     1     -45.375  59.718 -56.244  1.00  0.00    -0.102 SA
BRANCH  11  12
HETATM   12  C   UNL     1     -44.001  60.617 -57.029  1.00  0.00     0.183 C 
BRANCH  12  13
HETATM   13  C   UNL     1     -43.312  59.842 -58.135  1.00  0.00     0.227 C 
HETATM   14  N   UNL     1     -44.018  59.647 -59.297  1.00  0.00    -0.356 N 
HETATM   15  H   UNL     1     -44.970  59.987 -59.368  1.00  0.00     0.162 HD
HETATM   16  O   UNL     1     -42.203  59.339 -57.948  1.00  0.00    -0.273 OA
BRANCH  14  17
HETATM   17  C   UNL     1     -43.503  58.768 -60.322  1.00  0.00     0.161 C 
BRANCH  17  18
HETATM   18  C   UNL     1     -44.089  57.383 -60.263  1.00  0.00    -0.041 A 
HETATM   19  C   UNL     1     -43.278  56.262 -60.030  1.00  0.00     0.009 A 
HETATM   20  C   UNL     1     -43.842  54.991 -59.910  1.00  0.00     0.001 A 
HETATM   21  C   UNL     1     -45.223  54.826 -60.008  1.00  0.00     0.000 A 
HETATM   22  C   UNL     1     -46.041  55.932 -60.228  1.00  0.00     0.001 A 
HETATM   23  C   UNL     1     -45.478  57.204 -60.352  1.00  0.00     0.009 A 
ENDBRANCH  17  18
ENDBRANCH  14  17
ENDBRANCH  12  13
ENDBRANCH  11  12
ENDBRANCH   4  11
BRANCH   8  24
HETATM   24  C   UNL     1     -42.303  58.159 -52.636  1.00  0.00     0.066 A 
HETATM   25  O   UNL     1     -42.248  58.192 -51.272  1.00  0.00    -0.326 OA
HETATM   26  C   UNL     1     -41.087  58.811 -50.938  1.00  0.00     0.142 A 
HETATM   27  C   UNL     1     -40.381  59.154 -52.067  1.00  0.00     0.027 A 
HETATM   28  C   UNL     1     -41.163  58.728 -53.167  1.00  0.00     0.035 A 
ENDBRANCH   8  24
BRANCH   9  29
HETATM   29  C   UNL     1     -42.753  54.994 -53.377  1.00  0.00     0.255 C 
HETATM   30  N   UNL     1     -41.404  54.716 -53.378  1.00  0.00    -0.323 N 
HETATM   31  H   UNL     1     -40.763  55.391 -53.774  1.00  0.00     0.169 HD
HETATM   32  O   UNL     1     -43.598  54.309 -52.808  1.00  0.00    -0.268 OA
BRANCH  30  33
HETATM   33  C   UNL     1     -40.770  53.553 -52.882  1.00  0.00     0.035 A 
HETATM   34  C   UNL     1     -40.584  52.383 -53.621  1.00  0.00     0.045 A 
HETATM   35  C   UNL     1     -39.911  51.277 -53.070  1.00  0.00     0.050 A 
HETATM   36  C   UNL     1     -39.449  51.349 -51.748  1.00  0.00     0.016 A 
HETATM   37  C   UNL     1     -39.631  52.511 -51.003  1.00  0.00     0.003 A 
HETATM   38  C   UNL     1     -40.278  53.609 -51.571  1.00  0.00     0.029 A 
BRANCH  35  39
HETATM   39  C   UNL     1     -39.713  50.022 -53.882  1.00  0.00     0.417 C 
HETATM   40  F   UNL     1     -38.676  50.102 -54.763  1.00  0.00    -0.166 F 
HETATM   41  F   UNL     1     -39.453  48.928 -53.111  1.00  0.00    -0.166 F 
HETATM   42  F   UNL     1     -40.811  49.701 -54.621  1.00  0.00    -0.166 F 
ENDBRANCH  35  39
ENDBRANCH  30  33
ENDBRANCH   9  29
TORSDOF 9
ENDMDL
MODEL 2
REMARK VINA RESULT:      -9.1      1.677      2.988
REMARK  9 active torsions:
REMARK  status: ('A' for Active; 'I' for Inactive)
REMARK    1  A    between atoms: C_4  and  S_5 
REMARK    2  A    between atoms: S_5  and  C_6 
REMARK    3  A    between atoms: C_6  and  C_7 
REMARK       I    between atoms: C_7  and  N_8 
REMARK    4  A    between atoms: N_8  and  C_9 
REMARK    5  A    between atoms: C_9  and  C_10 
REMARK    6  A    between atoms: C_20  and  C_21 
REMARK    7  A    between atoms: C_26  and  C_27 
REMARK       I    between atoms: C_27  and  N_28 
REMARK    8  A    between atoms: N_28  and  C_29 
REMARK    9  A    between atoms: C_31  and  C_32 
ROOT
HETATM    1  C   UNL     1     -42.854  55.062 -56.664  1.00  0.00     0.069 C 
HETATM    2  C   UNL     1     -43.401  56.160 -55.781  1.00  0.00     0.019 C 
HETATM    3  N   UNL     1     -43.996  57.214 -56.450  1.00  0.00    -0.353 N 
HETATM    4  C   UNL     1     -44.704  58.252 -55.872  1.00  0.00     0.087 C 
HETATM    5  C   UNL     1     -44.646  58.382 -54.526  1.00  0.00     0.057 C 
HETATM    6  C   UNL     1     -45.235  59.553 -53.757  1.00  0.00     0.019 C 
HETATM    7  N   UNL     1     -45.725  60.524 -53.119  1.00  0.00    -0.096 N 
HETATM    8  C   UNL     1     -43.800  57.421 -53.675  1.00  0.00     0.129 C 
HETATM    9  C   UNL     1     -43.332  56.176 -54.427  1.00  0.00     0.048 C 
HETATM   10  H   UNL     1     -43.930  57.210 -57.463  1.00  0.00     0.166 HD
ENDROOT
BRANCH   4  11
HETATM   11  S   UNL     1     -45.598  59.410 -56.855  1.00  0.00    -0.102 SA
BRANCH  11  12
HETATM   12  C   UNL     1     -45.639  58.545 -58.456  1.00  0.00     0.183 C 
BRANCH  12  13
HETATM   13  C   UNL     1     -44.357  58.670 -59.256  1.00  0.00     0.227 C 
HETATM   14  N   UNL     1     -44.065  59.904 -59.783  1.00  0.00    -0.356 N 
HETATM   15  H   UNL     1     -44.715  60.671 -59.656  1.00  0.00     0.162 HD
HETATM   16  O   UNL     1     -43.669  57.676 -59.490  1.00  0.00    -0.273 OA
BRANCH  14  17
HETATM   17  C   UNL     1     -42.962  60.059 -60.704  1.00  0.00     0.161 C 
BRANCH  17  18
HETATM   18  C   UNL     1     -41.930  61.047 -60.230  1.00  0.00    -0.041 A 
HETATM   19  C   UNL     1     -41.555  61.113 -58.880  1.00  0.00     0.009 A 
HETATM   20  C   UNL     1     -40.549  61.987 -58.465  1.00  0.00     0.001 A 
HETATM   21  C   UNL     1     -39.898  62.796 -59.395  1.00  0.00     0.000 A 
HETATM   22  C   UNL     1     -40.253  62.733 -60.741  1.00  0.00     0.001 A 
HETATM   23  C   UNL     1     -41.261  61.862 -61.157  1.00  0.00     0.009 A 
ENDBRANCH  17  18
ENDBRANCH  14  17
ENDBRANCH  12  13
ENDBRANCH  11  12
ENDBRANCH   4  11
BRANCH   8  24
HETATM   24  C   UNL     1     -42.643  58.158 -53.037  1.00  0.00     0.066 A 
HETATM   25  O   UNL     1     -42.698  58.306 -51.680  1.00  0.00    -0.326 OA
HETATM   26  C   UNL     1     -41.585  58.989 -51.311  1.00  0.00     0.142 A 
HETATM   27  C   UNL     1     -40.801  59.261 -52.407  1.00  0.00     0.027 A 
HETATM   28  C   UNL     1     -41.481  58.718 -53.525  1.00  0.00     0.035 A 
ENDBRANCH   8  24
BRANCH   9  29
HETATM   29  C   UNL     1     -42.884  54.948 -53.673  1.00  0.00     0.255 C 
HETATM   30  N   UNL     1     -41.526  54.718 -53.635  1.00  0.00    -0.323 N 
HETATM   31  H   UNL     1     -40.901  55.395 -54.053  1.00  0.00     0.169 HD
HETATM   32  O   UNL     1     -43.716  54.262 -53.085  1.00  0.00    -0.268 OA
BRANCH  30  33
HETATM   33  C   UNL     1     -40.862  53.604 -53.071  1.00  0.00     0.035 A 
HETATM   34  C   UNL     1     -40.653  52.394 -53.734  1.00  0.00     0.045 A 
HETATM   35  C   UNL     1     -39.950  51.342 -53.118  1.00  0.00     0.050 A 
HETATM   36  C   UNL     1     -39.483  51.509 -51.806  1.00  0.00     0.016 A 
HETATM   37  C   UNL     1     -39.689  52.712 -51.136  1.00  0.00     0.003 A 
HETATM   38  C   UNL     1     -40.365  53.756 -51.769  1.00  0.00     0.029 A 
BRANCH  35  39
HETATM   39  C   UNL     1     -39.727  50.042 -53.849  1.00  0.00     0.417 C 
HETATM   40  F   UNL     1     -38.679  50.082 -54.720  1.00  0.00    -0.166 F 
HETATM   41  F   UNL     1     -39.464  49.000 -53.009  1.00  0.00    -0.166 F 
HETATM   42  F   UNL     1     -40.811  49.663 -54.581  1.00  0.00    -0.166 F 
ENDBRANCH  35  39
ENDBRANCH  30  33
ENDBRANCH   9  29
TORSDOF 9
ENDMDL
MODEL 3
REMARK VINA RESULT:      -9.0      3.547      7.970
REMARK  9 active torsions:
REMARK  status: ('A' for Active; 'I' for Inactive)
REMARK    1  A    between atoms: C_4  and  S_5 
REMARK    2  A    between atoms: S_5  and  C_6 
REMARK    3  A    between atoms: C_6  and  C_7 
REMARK       I    between atoms: C_7  and  N_8 
REMARK    4  A    between atoms: N_8  and  C_9 
REMARK    5  A    between atoms: C_9  and  C_10 
REMARK    6  A    between atoms: C_20  and  C_21 
REMARK    7  A    between atoms: C_26  and  C_27 
REMARK       I    between atoms: C_27  and  N_28 
REMARK    8  A    between atoms: N_28  and  C_29 
REMARK    9  A    between atoms: C_31  and  C_32 
ROOT
HETATM    1  C   UNL     1     -43.200  54.447 -53.952  1.00  0.00     0.069 C 
HETATM    2  C   UNL     1     -42.850  55.781 -53.333  1.00  0.00     0.019 C 
HETATM    3  N   UNL     1     -42.155  55.714 -52.139  1.00  0.00    -0.353 N 
HETATM    4  C   UNL     1     -41.587  56.779 -51.464  1.00  0.00     0.087 C 
HETATM    5  C   UNL     1     -41.904  58.029 -51.879  1.00  0.00     0.057 C 
HETATM    6  C   UNL     1     -41.491  59.297 -51.150  1.00  0.00     0.019 C 
HETATM    7  N   UNL     1     -41.148  60.350 -50.547  1.00  0.00    -0.096 N 
HETATM    8  C   UNL     1     -42.880  58.251 -53.045  1.00  0.00     0.129 C 
HETATM    9  C   UNL     1     -43.176  56.990 -53.854  1.00  0.00     0.048 C 
HETATM   10  H   UNL     1     -42.026  54.792 -51.735  1.00  0.00     0.166 HD
ENDROOT
BRANCH   4  11
HETATM   11  S   UNL     1     -40.541  56.526 -50.069  1.00  0.00    -0.102 SA
BRANCH  11  12
HETATM   12  C   UNL     1     -41.507  55.304 -49.129  1.00  0.00     0.183 C 
BRANCH  12  13
HETATM   13  C   UNL     1     -40.884  53.922 -49.093  1.00  0.00     0.227 C 
HETATM   14  N   UNL     1     -40.512  53.373 -50.296  1.00  0.00    -0.356 N 
HETATM   15  H   UNL     1     -40.691  53.877 -51.155  1.00  0.00     0.162 HD
HETATM   16  O   UNL     1     -40.808  53.299 -48.034  1.00  0.00    -0.273 OA
BRANCH  14  17
HETATM   17  C   UNL     1     -40.081  51.994 -50.363  1.00  0.00     0.161 C 
BRANCH  17  18
HETATM   18  C   UNL     1     -39.952  51.483 -51.772  1.00  0.00    -0.041 A 
HETATM   19  C   UNL     1     -39.640  50.140 -52.031  1.00  0.00     0.009 A 
HETATM   20  C   UNL     1     -39.589  49.663 -53.342  1.00  0.00     0.001 A 
HETATM   21  C   UNL     1     -39.861  50.518 -54.408  1.00  0.00     0.000 A 
HETATM   22  C   UNL     1     -40.183  51.852 -54.165  1.00  0.00     0.001 A 
HETATM   23  C   UNL     1     -40.231  52.331 -52.855  1.00  0.00     0.009 A 
ENDBRANCH  17  18
ENDBRANCH  14  17
ENDBRANCH  12  13
ENDBRANCH  11  12
ENDBRANCH   4  11
BRANCH   8  24
HETATM   24  C   UNL     1     -44.150  58.911 -52.553  1.00  0.00     0.066 A 
HETATM   25  O   UNL     1     -44.512  60.066 -53.185  1.00  0.00    -0.326 OA
HETATM   26  C   UNL     1     -45.659  60.495 -52.598  1.00  0.00     0.142 A 
HETATM   27  C   UNL     1     -46.054  59.619 -51.615  1.00  0.00     0.027 A 
HETATM   28  C   UNL     1     -45.082  58.590 -51.587  1.00  0.00     0.035 A 
ENDBRANCH   8  24
BRANCH   9  29
HETATM   29  C   UNL     1     -43.740  57.090 -55.251  1.00  0.00     0.255 C 
HETATM   30  N   UNL     1     -42.891  56.735 -56.276  1.00  0.00    -0.323 N 
HETATM   31  H   UNL     1     -41.972  56.376 -56.052  1.00  0.00     0.169 HD
HETATM   32  O   UNL     1     -44.915  57.409 -55.408  1.00  0.00    -0.268 OA
BRANCH  30  33
HETATM   33  C   UNL     1     -43.145  56.817 -57.665  1.00  0.00     0.035 A 
HETATM   34  C   UNL     1     -44.008  55.966 -58.359  1.00  0.00     0.045 A 
HETATM   35  C   UNL     1     -44.237  56.133 -59.737  1.00  0.00     0.050 A 
HETATM   36  C   UNL     1     -43.563  57.154 -60.422  1.00  0.00     0.016 A 
HETATM   37  C   UNL     1     -42.701  58.007 -59.739  1.00  0.00     0.003 A 
HETATM   38  C   UNL     1     -42.501  57.845 -58.367  1.00  0.00     0.029 A 
BRANCH  35  39
HETATM   39  C   UNL     1     -45.176  55.209 -60.472  1.00  0.00     0.417 C 
HETATM   40  F   UNL     1     -46.475  55.621 -60.445  1.00  0.00    -0.166 F 
HETATM   41  F   UNL     1     -44.861  55.076 -61.792  1.00  0.00    -0.166 F 
HETATM   42  F   UNL     1     -45.170  53.947 -59.961  1.00  0.00    -0.166 F 
ENDBRANCH  35  39
ENDBRANCH  30  33
ENDBRANCH   9  29
TORSDOF 9
ENDMDL
MODEL 4
REMARK VINA RESULT:      -9.0      2.538      3.808
REMARK  9 active torsions:
REMARK  status: ('A' for Active; 'I' for Inactive)
REMARK    1  A    between atoms: C_4  and  S_5 
REMARK    2  A    between atoms: S_5  and  C_6 
REMARK    3  A    between atoms: C_6  and  C_7 
REMARK       I    between atoms: C_7  and  N_8 
REMARK    4  A    between atoms: N_8  and  C_9 
REMARK    5  A    between atoms: C_9  and  C_10 
REMARK    6  A    between atoms: C_20  and  C_21 
REMARK    7  A    between atoms: C_26  and  C_27 
REMARK       I    between atoms: C_27  and  N_28 
REMARK    8  A    between atoms: N_28  and  C_29 
REMARK    9  A    between atoms: C_31  and  C_32 
ROOT
HETATM    1  C   UNL     1     -42.521  55.603 -56.491  1.00  0.00     0.069 C 
HETATM    2  C   UNL     1     -42.869  56.693 -55.504  1.00  0.00     0.019 C 
HETATM    3  N   UNL     1     -43.286  57.887 -56.065  1.00  0.00    -0.353 N 
HETATM    4  C   UNL     1     -43.807  58.972 -55.382  1.00  0.00     0.087 C 
HETATM    5  C   UNL     1     -43.715  58.969 -54.031  1.00  0.00     0.057 C 
HETATM    6  C   UNL     1     -44.093  60.148 -53.150  1.00  0.00     0.019 C 
HETATM    7  N   UNL     1     -44.409  61.126 -52.419  1.00  0.00    -0.096 N 
HETATM    8  C   UNL     1     -43.034  57.809 -53.287  1.00  0.00     0.129 C 
HETATM    9  C   UNL     1     -42.786  56.577 -54.156  1.00  0.00     0.048 C 
HETATM   10  H   UNL     1     -43.231  57.963 -57.076  1.00  0.00     0.166 HD
ENDROOT
BRANCH   4  11
HETATM   11  S   UNL     1     -44.503  60.344 -56.240  1.00  0.00    -0.102 SA
BRANCH  11  12
HETATM   12  C   UNL     1     -43.053  61.432 -56.389  1.00  0.00     0.183 C 
BRANCH  12  13
HETATM   13  C   UNL     1     -42.182  61.135 -57.595  1.00  0.00     0.227 C 
HETATM   14  N   UNL     1     -42.313  61.964 -58.682  1.00  0.00    -0.356 N 
HETATM   15  H   UNL     1     -42.997  62.712 -58.663  1.00  0.00     0.162 HD
HETATM   16  O   UNL     1     -41.463  60.135 -57.614  1.00  0.00    -0.273 OA
BRANCH  14  17
HETATM   17  C   UNL     1     -41.656  61.639 -59.928  1.00  0.00     0.161 C 
BRANCH  17  18
HETATM   18  C   UNL     1     -40.509  62.560 -60.249  1.00  0.00    -0.041 A 
HETATM   19  C   UNL     1     -39.774  63.184 -59.230  1.00  0.00     0.009 A 
HETATM   20  C   UNL     1     -38.671  63.983 -59.538  1.00  0.00     0.001 A 
HETATM   21  C   UNL     1     -38.282  64.155 -60.865  1.00  0.00     0.000 A 
HETATM   22  C   UNL     1     -38.997  63.532 -61.886  1.00  0.00     0.001 A 
HETATM   23  C   UNL     1     -40.102  62.736 -61.580  1.00  0.00     0.009 A 
ENDBRANCH  17  18
ENDBRANCH  14  17
ENDBRANCH  12  13
ENDBRANCH  11  12
ENDBRANCH   4  11
BRANCH   8  24
HETATM   24  C   UNL     1     -41.764  58.285 -52.616  1.00  0.00     0.066 A 
HETATM   25  O   UNL     1     -40.742  58.644 -53.447  1.00  0.00    -0.326 OA
HETATM   26  C   UNL     1     -39.707  59.030 -52.657  1.00  0.00     0.142 A 
HETATM   27  C   UNL     1     -40.057  58.949 -51.330  1.00  0.00     0.027 A 
HETATM   28  C   UNL     1     -41.390  58.472 -51.300  1.00  0.00     0.035 A 
ENDBRANCH   8  24
BRANCH   9  29
HETATM   29  C   UNL     1     -42.543  55.229 -53.521  1.00  0.00     0.255 C 
HETATM   30  N   UNL     1     -41.227  54.897 -53.284  1.00  0.00    -0.323 N 
HETATM   31  H   UNL     1     -40.505  55.576 -53.485  1.00  0.00     0.169 HD
HETATM   32  O   UNL     1     -43.499  54.533 -53.192  1.00  0.00    -0.268 OA
BRANCH  30  33
HETATM   33  C   UNL     1     -40.731  53.672 -52.781  1.00  0.00     0.035 A 
HETATM   34  C   UNL     1     -40.553  52.520 -53.550  1.00  0.00     0.045 A 
HETATM   35  C   UNL     1     -40.019  51.347 -52.985  1.00  0.00     0.050 A 
HETATM   36  C   UNL     1     -39.692  51.333 -51.621  1.00  0.00     0.016 A 
HETATM   37  C   UNL     1     -39.868  52.477 -50.846  1.00  0.00     0.003 A 
HETATM   38  C   UNL     1     -40.374  53.641 -51.426  1.00  0.00     0.029 A 
BRANCH  35  39
HETATM   39  C   UNL     1     -39.828  50.112 -53.829  1.00  0.00     0.417 C 
HETATM   40  F   UNL     1     -38.813  50.223 -54.731  1.00  0.00    -0.166 F 
HETATM   41  F   UNL     1     -39.538  49.004 -53.088  1.00  0.00    -0.166 F 
HETATM   42  F   UNL     1     -40.939  49.796 -54.549  1.00  0.00    -0.166 F 
ENDBRANCH  35  39
ENDBRANCH  30  33
ENDBRANCH   9  29
TORSDOF 9
ENDMDL
MODEL 5
REMARK VINA RESULT:      -8.9      2.408      6.164
REMARK  9 active torsions:
REMARK  status: ('A' for Active; 'I' for Inactive)
REMARK    1  A    between atoms: C_4  and  S_5 
REMARK    2  A    between atoms: S_5  and  C_6 
REMARK    3  A    between atoms: C_6  and  C_7 
REMARK       I    between atoms: C_7  and  N_8 
REMARK    4  A    between atoms: N_8  and  C_9 
REMARK    5  A    between atoms: C_9  and  C_10 
REMARK    6  A    between atoms: C_20  and  C_21 
REMARK    7  A    between atoms: C_26  and  C_27 
REMARK       I    between atoms: C_27  and  N_28 
REMARK    8  A    between atoms: N_28  and  C_29 
REMARK    9  A    between atoms: C_31  and  C_32 
ROOT
HETATM    1  C   UNL     1     -44.714  57.791 -54.274  1.00  0.00     0.069 C 
HETATM    2  C   UNL     1     -44.076  57.972 -55.633  1.00  0.00     0.019 C 
HETATM    3  N   UNL     1     -44.270  59.212 -56.215  1.00  0.00    -0.353 N 
HETATM    4  C   UNL     1     -43.664  59.675 -57.369  1.00  0.00     0.087 C 
HETATM    5  C   UNL     1     -42.979  58.783 -58.123  1.00  0.00     0.057 C 
HETATM    6  C   UNL     1     -42.392  59.096 -59.490  1.00  0.00     0.019 C 
HETATM    7  N   UNL     1     -41.904  59.356 -60.623  1.00  0.00    -0.096 N 
HETATM    8  C   UNL     1     -42.901  57.301 -57.720  1.00  0.00     0.129 C 
HETATM    9  C   UNL     1     -43.366  57.024 -56.291  1.00  0.00     0.048 C 
HETATM   10  H   UNL     1     -44.896  59.851 -55.736  1.00  0.00     0.166 HD
ENDROOT
BRANCH   4  11
HETATM   11  S   UNL     1     -43.831  61.353 -57.880  1.00  0.00    -0.102 SA
BRANCH  11  12
HETATM   12  C   UNL     1     -42.892  62.208 -56.576  1.00  0.00     0.183 C 
BRANCH  12  13
HETATM   13  C   UNL     1     -43.446  61.996 -55.180  1.00  0.00     0.227 C 
HETATM   14  N   UNL     1     -42.562  61.583 -54.213  1.00  0.00    -0.356 N 
HETATM   15  H   UNL     1     -41.597  61.402 -54.459  1.00  0.00     0.162 HD
HETATM   16  O   UNL     1     -44.653  62.104 -54.965  1.00  0.00    -0.273 OA
BRANCH  14  17
HETATM   17  C   UNL     1     -43.045  61.186 -52.909  1.00  0.00     0.161 C 
BRANCH  17  18
HETATM   18  C   UNL     1     -42.161  60.173 -52.234  1.00  0.00    -0.041 A 
HETATM   19  C   UNL     1     -41.480  59.196 -52.976  1.00  0.00     0.009 A 
HETATM   20  C   UNL     1     -40.610  58.305 -52.346  1.00  0.00     0.001 A 
HETATM   21  C   UNL     1     -40.400  58.387 -50.971  1.00  0.00     0.000 A 
HETATM   22  C   UNL     1     -41.060  59.360 -50.223  1.00  0.00     0.001 A 
HETATM   23  C   UNL     1     -41.934  60.250 -50.851  1.00  0.00     0.009 A 
ENDBRANCH  17  18
ENDBRANCH  14  17
ENDBRANCH  12  13
ENDBRANCH  11  12
ENDBRANCH   4  11
BRANCH   8  24
HETATM   24  C   UNL     1     -43.636  56.441 -58.724  1.00  0.00     0.066 A 
HETATM   25  O   UNL     1     -44.944  56.763 -58.950  1.00  0.00    -0.326 OA
HETATM   26  C   UNL     1     -45.416  55.879 -59.866  1.00  0.00     0.142 A 
HETATM   27  C   UNL     1     -44.424  55.009 -60.253  1.00  0.00     0.027 A 
HETATM   28  C   UNL     1     -43.269  55.375 -59.520  1.00  0.00     0.035 A 
ENDBRANCH   8  24
BRANCH   9  29
HETATM   29  C   UNL     1     -42.962  55.750 -55.588  1.00  0.00     0.255 C 
HETATM   30  N   UNL     1     -41.828  55.817 -54.810  1.00  0.00    -0.323 N 
HETATM   31  H   UNL     1     -41.360  56.708 -54.699  1.00  0.00     0.169 HD
HETATM   32  O   UNL     1     -43.676  54.755 -55.682  1.00  0.00    -0.268 OA
BRANCH  30  33
HETATM   33  C   UNL     1     -41.198  54.755 -54.121  1.00  0.00     0.035 A 
HETATM   34  C   UNL     1     -41.104  54.665 -52.731  1.00  0.00     0.045 A 
HETATM   35  C   UNL     1     -40.492  53.557 -52.116  1.00  0.00     0.050 A 
HETATM   36  C   UNL     1     -39.945  52.547 -52.919  1.00  0.00     0.016 A 
HETATM   37  C   UNL     1     -40.032  52.629 -54.307  1.00  0.00     0.003 A 
HETATM   38  C   UNL     1     -40.664  53.721 -54.902  1.00  0.00     0.029 A 
BRANCH  35  39
HETATM   39  C   UNL     1     -40.403  53.471 -50.613  1.00  0.00     0.417 C 
HETATM   40  F   UNL     1     -40.360  52.193 -50.144  1.00  0.00    -0.166 F 
HETATM   41  F   UNL     1     -39.290  54.081 -50.113  1.00  0.00    -0.166 F 
HETATM   42  F   UNL     1     -41.461  54.065 -49.994  1.00  0.00    -0.166 F 
ENDBRANCH  35  39
ENDBRANCH  30  33
ENDBRANCH   9  29
TORSDOF 9
ENDMDL
MODEL 6
REMARK VINA RESULT:      -8.6      1.614      2.243
REMARK  9 active torsions:
REMARK  status: ('A' for Active; 'I' for Inactive)
REMARK    1  A    between atoms: C_4  and  S_5 
REMARK    2  A    between atoms: S_5  and  C_6 
REMARK    3  A    between atoms: C_6  and  C_7 
REMARK       I    between atoms: C_7  and  N_8 
REMARK    4  A    between atoms: N_8  and  C_9 
REMARK    5  A    between atoms: C_9  and  C_10 
REMARK    6  A    between atoms: C_20  and  C_21 
REMARK    7  A    between atoms: C_26  and  C_27 
REMARK       I    between atoms: C_27  and  N_28 
REMARK    8  A    between atoms: N_28  and  C_29 
REMARK    9  A    between atoms: C_31  and  C_32 
ROOT
HETATM    1  C   UNL     1     -42.481  55.723 -56.342  1.00  0.00     0.069 C 
HETATM    2  C   UNL     1     -43.025  56.429 -55.121  1.00  0.00     0.019 C 
HETATM    3  N   UNL     1     -43.534  57.695 -55.350  1.00  0.00    -0.353 N 
HETATM    4  C   UNL     1     -44.226  58.474 -54.439  1.00  0.00     0.087 C 
HETATM    5  C   UNL     1     -44.235  58.071 -53.146  1.00  0.00     0.057 C 
HETATM    6  C   UNL     1     -44.812  58.892 -52.004  1.00  0.00     0.019 C 
HETATM    7  N   UNL     1     -45.291  59.572 -51.056  1.00  0.00    -0.096 N 
HETATM    8  C   UNL     1     -43.482  56.806 -52.706  1.00  0.00     0.129 C 
HETATM    9  C   UNL     1     -43.030  55.920 -53.865  1.00  0.00     0.048 C 
HETATM   10  H   UNL     1     -43.413  58.077 -56.283  1.00  0.00     0.166 HD
ENDROOT
BRANCH   4  11
HETATM   11  S   UNL     1     -45.011  59.974 -54.926  1.00  0.00    -0.102 SA
BRANCH  11  12
HETATM   12  C   UNL     1     -43.569  61.061 -55.154  1.00  0.00     0.183 C 
BRANCH  12  13
HETATM   13  C   UNL     1     -42.612  60.597 -56.235  1.00  0.00     0.227 C 
HETATM   14  N   UNL     1     -43.049  60.678 -57.534  1.00  0.00    -0.356 N 
HETATM   15  H   UNL     1     -43.988  61.004 -57.729  1.00  0.00     0.162 HD
HETATM   16  O   UNL     1     -41.532  60.087 -55.935  1.00  0.00    -0.273 OA
BRANCH  14  17
HETATM   17  C   UNL     1     -42.271  60.089 -58.601  1.00  0.00     0.161 C 
BRANCH  17  18
HETATM   18  C   UNL     1     -42.750  58.717 -58.994  1.00  0.00    -0.041 A 
HETATM   19  C   UNL     1     -44.098  58.352 -58.855  1.00  0.00     0.009 A 
HETATM   20  C   UNL     1     -44.542  57.101 -59.285  1.00  0.00     0.001 A 
HETATM   21  C   UNL     1     -43.649  56.206 -59.871  1.00  0.00     0.000 A 
HETATM   22  C   UNL     1     -42.310  56.559 -60.026  1.00  0.00     0.001 A 
HETATM   23  C   UNL     1     -41.864  57.808 -59.592  1.00  0.00     0.009 A 
ENDBRANCH  17  18
ENDBRANCH  14  17
ENDBRANCH  12  13
ENDBRANCH  11  12
ENDBRANCH   4  11
BRANCH   8  24
HETATM   24  C   UNL     1     -42.329  57.167 -51.794  1.00  0.00     0.066 A 
HETATM   25  O   UNL     1     -41.975  56.226 -50.871  1.00  0.00    -0.326 OA
HETATM   26  C   UNL     1     -40.939  56.740 -50.159  1.00  0.00     0.142 A 
HETATM   27  C   UNL     1     -40.604  57.988 -50.629  1.00  0.00     0.027 A 
HETATM   28  C   UNL     1     -41.499  58.264 -51.691  1.00  0.00     0.035 A 
ENDBRANCH   8  24
BRANCH   9  29
HETATM   29  C   UNL     1     -42.680  54.470 -53.630  1.00  0.00     0.255 C 
HETATM   30  N   UNL     1     -41.337  54.174 -53.542  1.00  0.00    -0.323 N 
HETATM   31  H   UNL     1     -40.665  54.929 -53.578  1.00  0.00     0.169 HD
HETATM   32  O   UNL     1     -43.579  53.650 -53.466  1.00  0.00    -0.268 OA
BRANCH  30  33
HETATM   33  C   UNL     1     -40.750  52.895 -53.410  1.00  0.00     0.035 A 
HETATM   34  C   UNL     1     -40.559  52.240 -52.192  1.00  0.00     0.045 A 
HETATM   35  C   UNL     1     -39.998  50.950 -52.143  1.00  0.00     0.050 A 
HETATM   36  C   UNL     1     -39.601  50.333 -53.338  1.00  0.00     0.016 A 
HETATM   37  C   UNL     1     -39.786  50.980 -54.557  1.00  0.00     0.003 A 
HETATM   38  C   UNL     1     -40.366  52.248 -54.592  1.00  0.00     0.029 A 
BRANCH  35  39
HETATM   39  C   UNL     1     -39.803  50.252 -50.820  1.00  0.00     0.417 C 
HETATM   40  F   UNL     1     -38.522  49.840 -50.608  1.00  0.00    -0.166 F 
HETATM   41  F   UNL     1     -40.114  51.043 -49.754  1.00  0.00    -0.166 F 
HETATM   42  F   UNL     1     -40.581  49.142 -50.697  1.00  0.00    -0.166 F 
ENDBRANCH  35  39
ENDBRANCH  30  33
ENDBRANCH   9  29
TORSDOF 9
ENDMDL
MODEL 7
REMARK VINA RESULT:      -8.3      5.151      8.909
REMARK  9 active torsions:
REMARK  status: ('A' for Active; 'I' for Inactive)
REMARK    1  A    between atoms: C_4  and  S_5 
REMARK    2  A    between atoms: S_5  and  C_6 
REMARK    3  A    between atoms: C_6  and  C_7 
REMARK       I    between atoms: C_7  and  N_8 
REMARK    4  A    between atoms: N_8  and  C_9 
REMARK    5  A    between atoms: C_9  and  C_10 
REMARK    6  A    between atoms: C_20  and  C_21 
REMARK    7  A    between atoms: C_26  and  C_27 
REMARK       I    between atoms: C_27  and  N_28 
REMARK    8  A    between atoms: N_28  and  C_29 
REMARK    9  A    between atoms: C_31  and  C_32 
ROOT
HETATM    1  C   UNL     1     -42.464  57.909 -51.173  1.00  0.00     0.069 C 
HETATM    2  C   UNL     1     -43.278  58.069 -52.436  1.00  0.00     0.019 C 
HETATM    3  N   UNL     1     -42.726  57.500 -53.570  1.00  0.00    -0.353 N 
HETATM    4  C   UNL     1     -43.342  57.372 -54.802  1.00  0.00     0.087 C 
HETATM    5  C   UNL     1     -44.504  58.040 -54.997  1.00  0.00     0.057 C 
HETATM    6  C   UNL     1     -45.219  58.130 -56.336  1.00  0.00     0.019 C 
HETATM    7  N   UNL     1     -45.813  58.204 -57.446  1.00  0.00    -0.096 N 
HETATM    8  C   UNL     1     -45.101  58.928 -53.894  1.00  0.00     0.129 C 
HETATM    9  C   UNL     1     -44.463  58.723 -52.521  1.00  0.00     0.048 C 
HETATM   10  H   UNL     1     -41.791  57.115 -53.481  1.00  0.00     0.166 HD
ENDROOT
BRANCH   4  11
HETATM   11  S   UNL     1     -42.610  56.430 -56.099  1.00  0.00    -0.102 SA
BRANCH  11  12
HETATM   12  C   UNL     1     -42.938  54.735 -55.524  1.00  0.00     0.183 C 
BRANCH  12  13
HETATM   13  C   UNL     1     -42.370  54.430 -54.151  1.00  0.00     0.227 C 
HETATM   14  N   UNL     1     -41.030  54.136 -54.080  1.00  0.00    -0.356 N 
HETATM   15  H   UNL     1     -40.479  54.097 -54.929  1.00  0.00     0.162 HD
HETATM   16  O   UNL     1     -43.111  54.364 -53.170  1.00  0.00    -0.273 OA
BRANCH  14  17
HETATM   17  C   UNL     1     -40.456  53.659 -52.842  1.00  0.00     0.161 C 
BRANCH  17  18
HETATM   18  C   UNL     1     -40.094  52.198 -52.882  1.00  0.00    -0.041 A 
HETATM   19  C   UNL     1     -39.735  51.508 -51.715  1.00  0.00     0.009 A 
HETATM   20  C   UNL     1     -39.466  50.139 -51.755  1.00  0.00     0.001 A 
HETATM   21  C   UNL     1     -39.567  49.441 -52.957  1.00  0.00     0.000 A 
HETATM   22  C   UNL     1     -39.935  50.112 -54.122  1.00  0.00     0.001 A 
HETATM   23  C   UNL     1     -40.199  51.482 -54.084  1.00  0.00     0.009 A 
ENDBRANCH  17  18
ENDBRANCH  14  17
ENDBRANCH  12  13
ENDBRANCH  11  12
ENDBRANCH   4  11
BRANCH   8  24
HETATM   24  C   UNL     1     -45.075  60.381 -54.312  1.00  0.00     0.066 A 
HETATM   25  O   UNL     1     -46.118  61.151 -53.882  1.00  0.00    -0.326 OA
HETATM   26  C   UNL     1     -45.911  62.403 -54.363  1.00  0.00     0.142 A 
HETATM   27  C   UNL     1     -44.736  62.458 -55.075  1.00  0.00     0.027 A 
HETATM   28  C   UNL     1     -44.190  61.152 -55.039  1.00  0.00     0.035 A 
ENDBRANCH   8  24
BRANCH   9  29
HETATM   29  C   UNL     1     -45.182  59.161 -51.268  1.00  0.00     0.255 C 
HETATM   30  N   UNL     1     -45.016  60.479 -50.901  1.00  0.00    -0.323 N 
HETATM   31  H   UNL     1     -44.484  61.094 -51.502  1.00  0.00     0.169 HD
HETATM   32  O   UNL     1     -45.915  58.369 -50.683  1.00  0.00    -0.268 OA
BRANCH  30  33
HETATM   33  C   UNL     1     -45.511  61.111 -49.737  1.00  0.00     0.035 A 
HETATM   34  C   UNL     1     -45.117  60.785 -48.438  1.00  0.00     0.045 A 
HETATM   35  C   UNL     1     -45.627  61.485 -47.329  1.00  0.00     0.050 A 
HETATM   36  C   UNL     1     -46.568  62.504 -47.538  1.00  0.00     0.016 A 
HETATM   37  C   UNL     1     -46.968  62.834 -48.830  1.00  0.00     0.003 A 
HETATM   38  C   UNL     1     -46.435  62.149 -49.922  1.00  0.00     0.029 A 
BRANCH  35  39
HETATM   39  C   UNL     1     -45.189  61.125 -45.931  1.00  0.00     0.417 C 
HETATM   40  F   UNL     1     -45.283  62.160 -45.049  1.00  0.00    -0.166 F 
HETATM   41  F   UNL     1     -45.926  60.114 -45.389  1.00  0.00    -0.166 F 
HETATM   42  F   UNL     1     -43.894  60.707 -45.883  1.00  0.00    -0.166 F 
ENDBRANCH  35  39
ENDBRANCH  30  33
ENDBRANCH   9  29
TORSDOF 9
ENDMDL
MODEL 8
REMARK VINA RESULT:      -8.2      3.481      4.244
REMARK  9 active torsions:
REMARK  status: ('A' for Active; 'I' for Inactive)
REMARK    1  A    between atoms: C_4  and  S_5 
REMARK    2  A    between atoms: S_5  and  C_6 
REMARK    3  A    between atoms: C_6  and  C_7 
REMARK       I    between atoms: C_7  and  N_8 
REMARK    4  A    between atoms: N_8  and  C_9 
REMARK    5  A    between atoms: C_9  and  C_10 
REMARK    6  A    between atoms: C_20  and  C_21 
REMARK    7  A    between atoms: C_26  and  C_27 
REMARK       I    between atoms: C_27  and  N_28 
REMARK    8  A    between atoms: N_28  and  C_29 
REMARK    9  A    between atoms: C_31  and  C_32 
ROOT
HETATM    1  C   UNL     1     -42.555  55.645 -56.643  1.00  0.00     0.069 C 
HETATM    2  C   UNL     1     -43.023  56.669 -55.635  1.00  0.00     0.019 C 
HETATM    3  N   UNL     1     -43.502  57.850 -56.173  1.00  0.00    -0.353 N 
HETATM    4  C   UNL     1     -44.128  58.868 -55.477  1.00  0.00     0.087 C 
HETATM    5  C   UNL     1     -44.093  58.821 -54.124  1.00  0.00     0.057 C 
HETATM    6  C   UNL     1     -44.594  59.937 -53.220  1.00  0.00     0.019 C 
HETATM    7  N   UNL     1     -45.010  60.861 -52.470  1.00  0.00    -0.096 N 
HETATM    8  C   UNL     1     -43.361  57.686 -53.391  1.00  0.00     0.129 C 
HETATM    9  C   UNL     1     -42.988  56.508 -54.289  1.00  0.00     0.048 C 
HETATM   10  H   UNL     1     -43.410  57.968 -57.177  1.00  0.00     0.166 HD
ENDROOT
BRANCH   4  11
HETATM   11  S   UNL     1     -44.887  60.219 -56.316  1.00  0.00    -0.102 SA
BRANCH  11  12
HETATM   12  C   UNL     1     -46.130  59.348 -57.321  1.00  0.00     0.183 C 
BRANCH  12  13
HETATM   13  C   UNL     1     -47.281  60.226 -57.773  1.00  0.00     0.227 C 
HETATM   14  N   UNL     1     -48.545  59.840 -57.398  1.00  0.00    -0.356 N 
HETATM   15  H   UNL     1     -48.675  58.983 -56.874  1.00  0.00     0.162 HD
HETATM   16  O   UNL     1     -47.080  61.185 -58.518  1.00  0.00    -0.273 OA
BRANCH  14  17
HETATM   17  C   UNL     1     -49.702  60.519 -57.939  1.00  0.00     0.161 C 
BRANCH  17  18
HETATM   18  C   UNL     1     -50.839  60.621 -56.959  1.00  0.00    -0.041 A 
HETATM   19  C   UNL     1     -50.750  61.447 -55.829  1.00  0.00     0.009 A 
HETATM   20  C   UNL     1     -51.836  61.586 -54.963  1.00  0.00     0.001 A 
HETATM   21  C   UNL     1     -53.028  60.912 -55.223  1.00  0.00     0.000 A 
HETATM   22  C   UNL     1     -53.134  60.097 -56.349  1.00  0.00     0.001 A 
HETATM   23  C   UNL     1     -52.048  59.954 -57.213  1.00  0.00     0.009 A 
ENDBRANCH  17  18
ENDBRANCH  14  17
ENDBRANCH  12  13
ENDBRANCH  11  12
ENDBRANCH   4  11
BRANCH   8  24
HETATM   24  C   UNL     1     -42.159  58.226 -52.647  1.00  0.00     0.066 A 
HETATM   25  O   UNL     1     -41.154  58.737 -53.418  1.00  0.00    -0.326 OA
HETATM   26  C   UNL     1     -40.180  59.157 -52.571  1.00  0.00     0.142 A 
HETATM   27  C   UNL     1     -40.554  58.948 -51.265  1.00  0.00     0.027 A 
HETATM   28  C   UNL     1     -41.837  58.350 -51.311  1.00  0.00     0.035 A 
ENDBRANCH   8  24
BRANCH   9  29
HETATM   29  C   UNL     1     -42.673  55.158 -53.692  1.00  0.00     0.255 C 
HETATM   30  N   UNL     1     -41.346  54.907 -53.420  1.00  0.00    -0.323 N 
HETATM   31  H   UNL     1     -40.666  55.640 -53.573  1.00  0.00     0.169 HD
HETATM   32  O   UNL     1     -43.590  54.388 -53.419  1.00  0.00    -0.268 OA
BRANCH  30  33
HETATM   33  C   UNL     1     -40.783  53.702 -52.941  1.00  0.00     0.035 A 
HETATM   34  C   UNL     1     -40.670  52.532 -53.695  1.00  0.00     0.045 A 
HETATM   35  C   UNL     1     -40.065  51.380 -53.159  1.00  0.00     0.050 A 
HETATM   36  C   UNL     1     -39.598  51.406 -51.837  1.00  0.00     0.016 A 
HETATM   37  C   UNL     1     -39.708  52.568 -51.077  1.00  0.00     0.003 A 
HETATM   38  C   UNL     1     -40.288  53.710 -51.630  1.00  0.00     0.029 A 
BRANCH  35  39
HETATM   39  C   UNL     1     -39.945  50.126 -53.987  1.00  0.00     0.417 C 
HETATM   40  F   UNL     1     -39.029  50.223 -54.991  1.00  0.00    -0.166 F 
HETATM   41  F   UNL     1     -39.568  49.040 -53.252  1.00  0.00    -0.166 F 
HETATM   42  F   UNL     1     -41.120  49.780 -54.582  1.00  0.00    -0.166 F 
ENDBRANCH  35  39
ENDBRANCH  30  33
ENDBRANCH   9  29
TORSDOF 9
ENDMDL
MODEL 9
REMARK VINA RESULT:      -8.2      2.320      3.647
REMARK  9 active torsions:
REMARK  status: ('A' for Active; 'I' for Inactive)
REMARK    1  A    between atoms: C_4  and  S_5 
REMARK    2  A    between atoms: S_5  and  C_6 
REMARK    3  A    between atoms: C_6  and  C_7 
REMARK       I    between atoms: C_7  and  N_8 
REMARK    4  A    between atoms: N_8  and  C_9 
REMARK    5  A    between atoms: C_9  and  C_10 
REMARK    6  A    between atoms: C_20  and  C_21 
REMARK    7  A    between atoms: C_26  and  C_27 
REMARK       I    between atoms: C_27  and  N_28 
REMARK    8  A    between atoms: N_28  and  C_29 
REMARK    9  A    between atoms: C_31  and  C_32 
ROOT
HETATM    1  C   UNL     1     -42.392  55.961 -56.551  1.00  0.00     0.069 C 
HETATM    2  C   UNL     1     -42.975  56.576 -55.299  1.00  0.00     0.019 C 
HETATM    3  N   UNL     1     -43.479  57.855 -55.451  1.00  0.00    -0.353 N 
HETATM    4  C   UNL     1     -44.199  58.565 -54.507  1.00  0.00     0.087 C 
HETATM    5  C   UNL     1     -44.248  58.069 -53.248  1.00  0.00     0.057 C 
HETATM    6  C   UNL     1     -44.862  58.804 -52.067  1.00  0.00     0.019 C 
HETATM    7  N   UNL     1     -45.372  59.413 -51.087  1.00  0.00    -0.096 N 
HETATM    8  C   UNL     1     -43.507  56.774 -52.878  1.00  0.00     0.129 C 
HETATM    9  C   UNL     1     -43.018  55.975 -54.085  1.00  0.00     0.048 C 
HETATM   10  H   UNL     1     -43.329  58.304 -56.349  1.00  0.00     0.166 HD
ENDROOT
BRANCH   4  11
HETATM   11  S   UNL     1     -44.971  60.098 -54.907  1.00  0.00    -0.102 SA
BRANCH  11  12
HETATM   12  C   UNL     1     -43.518  61.169 -55.132  1.00  0.00     0.183 C 
BRANCH  12  13
HETATM   13  C   UNL     1     -42.556  60.686 -56.200  1.00  0.00     0.227 C 
HETATM   14  N   UNL     1     -42.930  60.870 -57.509  1.00  0.00    -0.356 N 
HETATM   15  H   UNL     1     -43.831  61.282 -57.720  1.00  0.00     0.162 HD
HETATM   16  O   UNL     1     -41.533  60.074 -55.889  1.00  0.00    -0.273 OA
BRANCH  14  17
HETATM   17  C   UNL     1     -42.156  60.276 -58.576  1.00  0.00     0.161 C 
BRANCH  17  18
HETATM   18  C   UNL     1     -41.304  61.273 -59.314  1.00  0.00    -0.041 A 
HETATM   19  C   UNL     1     -41.417  61.437 -60.702  1.00  0.00     0.009 A 
HETATM   20  C   UNL     1     -40.669  62.411 -61.365  1.00  0.00     0.001 A 
HETATM   21  C   UNL     1     -39.810  63.242 -60.648  1.00  0.00     0.000 A 
HETATM   22  C   UNL     1     -39.696  63.097 -59.267  1.00  0.00     0.001 A 
HETATM   23  C   UNL     1     -40.440  62.121 -58.603  1.00  0.00     0.009 A 
ENDBRANCH  17  18
ENDBRANCH  14  17
ENDBRANCH  12  13
ENDBRANCH  11  12
ENDBRANCH   4  11
BRANCH   8  24
HETATM   24  C   UNL     1     -42.384  57.067 -51.907  1.00  0.00     0.066 A 
HETATM   25  O   UNL     1     -42.200  56.155 -50.908  1.00  0.00    -0.326 OA
HETATM   26  C   UNL     1     -41.162  56.598 -50.153  1.00  0.00     0.142 A 
HETATM   27  C   UNL     1     -40.659  57.770 -50.668  1.00  0.00     0.027 A 
HETATM   28  C   UNL     1     -41.444  58.072 -51.807  1.00  0.00     0.035 A 
ENDBRANCH   8  24
BRANCH   9  29
HETATM   29  C   UNL     1     -42.673  54.512 -53.946  1.00  0.00     0.255 C 
HETATM   30  N   UNL     1     -41.385  54.225 -53.549  1.00  0.00    -0.323 N 
HETATM   31  H   UNL     1     -40.762  54.987 -53.316  1.00  0.00     0.169 HD
HETATM   32  O   UNL     1     -43.545  53.666 -54.123  1.00  0.00    -0.268 OA
BRANCH  30  33
HETATM   33  C   UNL     1     -40.793  52.947 -53.426  1.00  0.00     0.035 A 
HETATM   34  C   UNL     1     -40.578  52.294 -52.211  1.00  0.00     0.045 A 
HETATM   35  C   UNL     1     -40.014  51.005 -52.171  1.00  0.00     0.050 A 
HETATM   36  C   UNL     1     -39.637  50.387 -53.372  1.00  0.00     0.016 A 
HETATM   37  C   UNL     1     -39.846  51.032 -54.588  1.00  0.00     0.003 A 
HETATM   38  C   UNL     1     -40.429  52.299 -54.614  1.00  0.00     0.029 A 
BRANCH  35  39
HETATM   39  C   UNL     1     -39.794  50.310 -50.851  1.00  0.00     0.417 C 
HETATM   40  F   UNL     1     -38.512  49.883 -50.670  1.00  0.00    -0.166 F 
HETATM   41  F   UNL     1     -40.067  51.108 -49.779  1.00  0.00    -0.166 F 
HETATM   42  F   UNL     1     -40.581  49.209 -50.704  1.00  0.00    -0.166 F 
ENDBRANCH  35  39
ENDBRANCH  30  33
ENDBRANCH   9  29
TORSDOF 9
ENDMDL
MODEL 10
REMARK VINA RESULT:      -8.1      3.103      6.393
REMARK  9 active torsions:
REMARK  status: ('A' for Active; 'I' for Inactive)
REMARK    1  A    between atoms: C_4  and  S_5 
REMARK    2  A    between atoms: S_5  and  C_6 
REMARK    3  A    between atoms: C_6  and  C_7 
REMARK       I    between atoms: C_7  and  N_8 
REMARK    4  A    between atoms: N_8  and  C_9 
REMARK    5  A    between atoms: C_9  and  C_10 
REMARK    6  A    between atoms: C_20  and  C_21 
REMARK    7  A    between atoms: C_26  and  C_27 
REMARK       I    between atoms: C_27  and  N_28 
REMARK    8  A    between atoms: N_28  and  C_29 
REMARK    9  A    between atoms: C_31  and  C_32 
ROOT
HETATM    1  C   UNL     1     -42.403  56.423 -56.258  1.00  0.00     0.069 C 
HETATM    2  C   UNL     1     -43.032  56.817 -54.941  1.00  0.00     0.019 C 
HETATM    3  N   UNL     1     -43.604  58.077 -54.914  1.00  0.00    -0.353 N 
HETATM    4  C   UNL     1     -44.373  58.603 -53.891  1.00  0.00     0.087 C 
HETATM    5  C   UNL     1     -44.408  57.926 -52.719  1.00  0.00     0.057 C 
HETATM    6  C   UNL     1     -45.074  58.448 -51.455  1.00  0.00     0.019 C 
HETATM    7  N   UNL     1     -45.627  58.879 -50.407  1.00  0.00    -0.096 N 
HETATM    8  C   UNL     1     -43.602  56.632 -52.527  1.00  0.00     0.129 C 
HETATM    9  C   UNL     1     -43.056  56.045 -53.828  1.00  0.00     0.048 C 
HETATM   10  H   UNL     1     -43.469  58.660 -55.734  1.00  0.00     0.166 HD
ENDROOT
BRANCH   4  11
HETATM   11  S   UNL     1     -45.222  60.135 -54.079  1.00  0.00    -0.102 SA
BRANCH  11  12
HETATM   12  C   UNL     1     -43.947  61.309 -53.524  1.00  0.00     0.183 C 
BRANCH  12  13
HETATM   13  C   UNL     1     -44.476  62.415 -52.632  1.00  0.00     0.227 C 
HETATM   14  N   UNL     1     -44.816  62.073 -51.346  1.00  0.00    -0.356 N 
HETATM   15  H   UNL     1     -44.741  61.108 -51.046  1.00  0.00     0.162 HD
HETATM   16  O   UNL     1     -44.671  63.543 -53.086  1.00  0.00    -0.273 OA
BRANCH  14  17
HETATM   17  C   UNL     1     -45.494  63.026 -50.496  1.00  0.00     0.161 C 
BRANCH  17  18
HETATM   18  C   UNL     1     -45.665  62.540 -49.082  1.00  0.00    -0.041 A 
HETATM   19  C   UNL     1     -46.869  62.734 -48.388  1.00  0.00     0.009 A 
HETATM   20  C   UNL     1     -47.038  62.220 -47.102  1.00  0.00     0.001 A 
HETATM   21  C   UNL     1     -46.012  61.494 -46.499  1.00  0.00     0.000 A 
HETATM   22  C   UNL     1     -44.815  61.284 -47.180  1.00  0.00     0.001 A 
HETATM   23  C   UNL     1     -44.643  61.801 -48.465  1.00  0.00     0.009 A 
ENDBRANCH  17  18
ENDBRANCH  14  17
ENDBRANCH  12  13
ENDBRANCH  11  12
ENDBRANCH   4  11
BRANCH   8  24
HETATM   24  C   UNL     1     -42.507  56.837 -51.503  1.00  0.00     0.066 A 
HETATM   25  O   UNL     1     -42.311  55.816 -50.618  1.00  0.00    -0.326 OA
HETATM   26  C   UNL     1     -41.303  56.196 -49.792  1.00  0.00     0.142 A 
HETATM   27  C   UNL     1     -40.829  57.436 -50.149  1.00  0.00     0.027 A 
HETATM   28  C   UNL     1     -41.603  57.851 -51.260  1.00  0.00     0.035 A 
ENDBRANCH   8  24
BRANCH   9  29
HETATM   29  C   UNL     1     -42.634  54.597 -53.897  1.00  0.00     0.255 C 
HETATM   30  N   UNL     1     -41.462  54.273 -53.248  1.00  0.00    -0.323 N 
HETATM   31  H   UNL     1     -40.980  54.987 -52.719  1.00  0.00     0.169 HD
HETATM   32  O   UNL     1     -43.362  53.780 -54.454  1.00  0.00    -0.268 OA
BRANCH  30  33
HETATM   33  C   UNL     1     -40.812  53.017 -53.232  1.00  0.00     0.035 A 
HETATM   34  C   UNL     1     -40.605  52.254 -52.081  1.00  0.00     0.045 A 
HETATM   35  C   UNL     1     -39.980  50.995 -52.150  1.00  0.00     0.050 A 
HETATM   36  C   UNL     1     -39.536  50.520 -53.393  1.00  0.00     0.016 A 
HETATM   37  C   UNL     1     -39.737  51.275 -54.545  1.00  0.00     0.003 A 
HETATM   38  C   UNL     1     -40.380  52.511 -54.465  1.00  0.00     0.029 A 
BRANCH  35  39
HETATM   39  C   UNL     1     -39.768  50.180 -50.899  1.00  0.00     0.417 C 
HETATM   40  F   UNL     1     -38.472  49.802 -50.711  1.00  0.00    -0.166 F 
HETATM   41  F   UNL     1     -40.122  50.849 -49.765  1.00  0.00    -0.166 F 
HETATM   42  F   UNL     1     -40.499  49.031 -50.896  1.00  0.00    -0.166 F 
ENDBRANCH  35  39
ENDBRANCH  30  33
ENDBRANCH   9  29
TORSDOF 9
ENDMDL
