MODEL 1
REMARK VINA RESULT:      -8.2      0.000      0.000
REMARK  5 active torsions:
REMARK  status: ('A' for Active; 'I' for Inactive)
REMARK    1  A    between atoms: C_3  and  O_4 
REMARK    2  A    between atoms: O_4  and  C_5 
REMARK    3  A    between atoms: C_5  and  C_6 
REMARK       I    between atoms: C_6  and  N_7 
REMARK    4  A    between atoms: N_7  and  N_8 
REMARK    5  A    between atoms: C_9  and  C_10 
ROOT
HETATM    1  C   UNL     1     -42.852  56.130 -56.192  1.00  0.00     0.261 C 
HETATM    2  N   UNL     1     -42.018  55.020 -56.129  1.00  0.00    -0.246 N 
HETATM    3  O   UNL     1     -43.570  56.555 -55.289  1.00  0.00    -0.269 OA
HETATM    4  H   UNL     1     -41.344  54.912 -56.885  1.00  0.00     0.192 HD
ENDROOT
BRANCH   2   5
HETATM    5  N   UNL     1     -41.771  54.218 -55.040  1.00  0.00    -0.184 NA
HETATM    6  C   UNL     1     -40.680  54.377 -54.363  1.00  0.00     0.152 C 
BRANCH   6   7
HETATM    7  C   UNL     1     -40.408  53.511 -53.231  1.00  0.00     0.011 A 
HETATM    8  C   UNL     1     -40.118  52.108 -53.275  1.00  0.00     0.004 A 
HETATM    9  C   UNL     1     -39.916  51.681 -51.961  1.00  0.00     0.043 A 
HETATM   10  C   UNL     1     -40.019  51.156 -54.312  1.00  0.00     0.014 A 
HETATM   11  C   UNL     1     -39.614  50.353 -51.635  1.00  0.00     0.030 A 
HETATM   12  N   UNL     1     -40.075  52.780 -51.150  1.00  0.00    -0.364 N 
HETATM   13  C   UNL     1     -39.522  49.432 -52.682  1.00  0.00     0.002 A 
HETATM   14  C   UNL     1     -39.722  49.824 -54.003  1.00  0.00     0.001 A 
HETATM   15  H   UNL     1     -39.985  52.766 -50.143  1.00  0.00     0.165 HD
HETATM   16  C   UNL     1     -40.377  53.883 -51.900  1.00  0.00     0.102 A 
ENDBRANCH   6   7
ENDBRANCH   2   5
BRANCH   1  17
HETATM   17  C   UNL     1     -42.873  56.773 -57.576  1.00  0.00     0.280 C 
BRANCH  17  18
HETATM   18  O   UNL     1     -44.133  57.385 -57.846  1.00  0.00    -0.342 OA
BRANCH  18  19
HETATM   19  C   UNL     1     -44.810  56.822 -58.901  1.00  0.00     0.075 A 
HETATM   20  C   UNL     1     -46.137  57.228 -59.103  1.00  0.00    -0.029 A 
HETATM   21  C   UNL     1     -46.795  58.245 -58.214  1.00  0.00     0.051 C 
HETATM   22  C   UNL     1     -46.854  56.700 -60.189  1.00  0.00     0.009 A 
HETATM   23  C   UNL     1     -46.262  55.778 -61.052  1.00  0.00     0.001 A 
HETATM   24  C   UNL     1     -44.942  55.387 -60.850  1.00  0.00     0.003 A 
HETATM   25  C   UNL     1     -44.213  55.914 -59.783  1.00  0.00     0.037 A 
ENDBRANCH  18  19
ENDBRANCH  17  18
ENDBRANCH   1  17
TORSDOF 5
ENDMDL
MODEL 2
REMARK VINA RESULT:      -7.9      1.067      1.800
REMARK  5 active torsions:
REMARK  status: ('A' for Active; 'I' for Inactive)
REMARK    1  A    between atoms: C_3  and  O_4 
REMARK    2  A    between atoms: O_4  and  C_5 
REMARK    3  A    between atoms: C_5  and  C_6 
REMARK       I    between atoms: C_6  and  N_7 
REMARK    4  A    between atoms: N_7  and  N_8 
REMARK    5  A    between atoms: C_9  and  C_10 
ROOT
HETATM    1  C   UNL     1     -42.802  56.170 -55.758  1.00  0.00     0.261 C 
HETATM    2  N   UNL     1     -42.838  56.102 -54.370  1.00  0.00    -0.246 N 
HETATM    3  O   UNL     1     -42.291  55.348 -56.514  1.00  0.00    -0.269 OA
HETATM    4  H   UNL     1     -43.463  56.753 -53.898  1.00  0.00     0.192 HD
ENDROOT
BRANCH   2   5
HETATM    5  N   UNL     1     -42.381  55.084 -53.568  1.00  0.00    -0.184 NA
HETATM    6  C   UNL     1     -41.107  54.906 -53.424  1.00  0.00     0.152 C 
BRANCH   6   7
HETATM    7  C   UNL     1     -40.626  53.813 -52.600  1.00  0.00     0.011 A 
HETATM    8  C   UNL     1     -40.334  52.478 -53.032  1.00  0.00     0.004 A 
HETATM    9  C   UNL     1     -39.894  51.764 -51.915  1.00  0.00     0.043 A 
HETATM   10  C   UNL     1     -40.411  51.805 -54.270  1.00  0.00     0.014 A 
HETATM   11  C   UNL     1     -39.523  50.415 -51.977  1.00  0.00     0.030 A 
HETATM   12  N   UNL     1     -39.917  52.630 -50.847  1.00  0.00    -0.364 N 
HETATM   13  C   UNL     1     -39.610  49.773 -53.216  1.00  0.00     0.002 A 
HETATM   14  C   UNL     1     -40.049  50.455 -54.347  1.00  0.00     0.001 A 
HETATM   15  H   UNL     1     -39.648  52.383 -49.904  1.00  0.00     0.165 HD
HETATM   16  C   UNL     1     -40.361  53.861 -51.244  1.00  0.00     0.102 A 
ENDBRANCH   6   7
ENDBRANCH   2   5
BRANCH   1  17
HETATM   17  C   UNL     1     -43.407  57.462 -56.300  1.00  0.00     0.280 C 
BRANCH  17  18
HETATM   18  O   UNL     1     -43.305  57.527 -57.722  1.00  0.00    -0.342 OA
BRANCH  18  19
HETATM   19  C   UNL     1     -44.493  57.304 -58.375  1.00  0.00     0.075 A 
HETATM   20  C   UNL     1     -44.500  56.325 -59.379  1.00  0.00    -0.029 A 
HETATM   21  C   UNL     1     -43.266  55.540 -59.724  1.00  0.00     0.051 C 
HETATM   22  C   UNL     1     -45.702  56.043 -60.049  1.00  0.00     0.009 A 
HETATM   23  C   UNL     1     -46.872  56.732 -59.731  1.00  0.00     0.001 A 
HETATM   24  C   UNL     1     -46.859  57.696 -58.727  1.00  0.00     0.003 A 
HETATM   25  C   UNL     1     -45.676  57.976 -58.043  1.00  0.00     0.037 A 
ENDBRANCH  18  19
ENDBRANCH  17  18
ENDBRANCH   1  17
TORSDOF 5
ENDMDL
MODEL 3
REMARK VINA RESULT:      -7.8      2.331      8.444
REMARK  5 active torsions:
REMARK  status: ('A' for Active; 'I' for Inactive)
REMARK    1  A    between atoms: C_3  and  O_4 
REMARK    2  A    between atoms: O_4  and  C_5 
REMARK    3  A    between atoms: C_5  and  C_6 
REMARK       I    between atoms: C_6  and  N_7 
REMARK    4  A    between atoms: N_7  and  N_8 
REMARK    5  A    between atoms: C_9  and  C_10 
ROOT
HETATM    1  C   UNL     1     -42.501  54.413 -52.101  1.00  0.00     0.261 C 
HETATM    2  N   UNL     1     -42.166  55.452 -52.963  1.00  0.00    -0.246 N 
HETATM    3  O   UNL     1     -43.614  53.912 -51.963  1.00  0.00    -0.269 OA
HETATM    4  H   UNL     1     -41.171  55.623 -53.105  1.00  0.00     0.192 HD
ENDROOT
BRANCH   2   5
HETATM    5  N   UNL     1     -42.978  56.078 -53.877  1.00  0.00    -0.184 NA
HETATM    6  C   UNL     1     -42.553  56.272 -55.084  1.00  0.00     0.152 C 
BRANCH   6   7
HETATM    7  C   UNL     1     -43.402  56.958 -56.040  1.00  0.00     0.011 A 
HETATM    8  C   UNL     1     -43.515  56.678 -57.441  1.00  0.00     0.004 A 
HETATM    9  C   UNL     1     -44.448  57.572 -57.972  1.00  0.00     0.043 A 
HETATM   10  C   UNL     1     -42.902  55.753 -58.312  1.00  0.00     0.014 A 
HETATM   11  C   UNL     1     -44.801  57.581 -59.327  1.00  0.00     0.030 A 
HETATM   12  N   UNL     1     -44.886  58.362 -56.935  1.00  0.00    -0.364 N 
HETATM   13  C   UNL     1     -44.178  56.653 -60.167  1.00  0.00     0.002 A 
HETATM   14  C   UNL     1     -43.240  55.752 -59.670  1.00  0.00     0.001 A 
HETATM   15  H   UNL     1     -45.569  59.102 -57.029  1.00  0.00     0.165 HD
HETATM   16  C   UNL     1     -44.260  58.008 -55.772  1.00  0.00     0.102 A 
ENDBRANCH   6   7
ENDBRANCH   2   5
BRANCH   1  17
HETATM   17  C   UNL     1     -41.330  53.973 -51.226  1.00  0.00     0.280 C 
BRANCH  17  18
HETATM   18  O   UNL     1     -40.164  53.717 -52.007  1.00  0.00    -0.342 OA
BRANCH  18  19
HETATM   19  C   UNL     1     -40.014  52.401 -52.368  1.00  0.00     0.075 A 
HETATM   20  C   UNL     1     -40.078  52.097 -53.736  1.00  0.00    -0.029 A 
HETATM   21  C   UNL     1     -40.291  53.165 -54.771  1.00  0.00     0.051 C 
HETATM   22  C   UNL     1     -39.898  50.767 -54.149  1.00  0.00     0.009 A 
HETATM   23  C   UNL     1     -39.667  49.757 -53.215  1.00  0.00     0.001 A 
HETATM   24  C   UNL     1     -39.596  50.067 -51.860  1.00  0.00     0.003 A 
HETATM   25  C   UNL     1     -39.759  51.386 -51.437  1.00  0.00     0.037 A 
ENDBRANCH  18  19
ENDBRANCH  17  18
ENDBRANCH   1  17
TORSDOF 5
ENDMDL
MODEL 4
REMARK VINA RESULT:      -7.8      1.969      9.231
REMARK  5 active torsions:
REMARK  status: ('A' for Active; 'I' for Inactive)
REMARK    1  A    between atoms: C_3  and  O_4 
REMARK    2  A    between atoms: O_4  and  C_5 
REMARK    3  A    between atoms: C_5  and  C_6 
REMARK       I    between atoms: C_6  and  N_7 
REMARK    4  A    between atoms: N_7  and  N_8 
REMARK    5  A    between atoms: C_9  and  C_10 
ROOT
HETATM    1  C   UNL     1     -41.868  54.518 -55.486  1.00  0.00     0.261 C 
HETATM    2  N   UNL     1     -41.836  55.708 -56.204  1.00  0.00    -0.246 N 
HETATM    3  O   UNL     1     -42.872  53.896 -55.149  1.00  0.00    -0.269 OA
HETATM    4  H   UNL     1     -40.931  55.995 -56.572  1.00  0.00     0.192 HD
ENDROOT
BRANCH   2   5
HETATM    5  N   UNL     1     -42.901  56.390 -56.742  1.00  0.00    -0.184 NA
HETATM    6  C   UNL     1     -42.757  57.018 -57.865  1.00  0.00     0.152 C 
BRANCH   6   7
HETATM    7  C   UNL     1     -43.875  57.760 -58.418  1.00  0.00     0.011 A 
HETATM    8  C   UNL     1     -44.926  57.240 -59.241  1.00  0.00     0.004 A 
HETATM    9  C   UNL     1     -45.788  58.298 -59.538  1.00  0.00     0.043 A 
HETATM   10  C   UNL     1     -45.221  55.966 -59.773  1.00  0.00     0.014 A 
HETATM   11  C   UNL     1     -46.931  58.144 -60.332  1.00  0.00     0.030 A 
HETATM   12  N   UNL     1     -45.282  59.417 -58.918  1.00  0.00    -0.364 N 
HETATM   13  C   UNL     1     -47.198  56.871 -60.845  1.00  0.00     0.002 A 
HETATM   14  C   UNL     1     -46.357  55.796 -60.573  1.00  0.00     0.001 A 
HETATM   15  H   UNL     1     -45.704  60.335 -58.961  1.00  0.00     0.165 HD
HETATM   16  C   UNL     1     -44.130  59.108 -58.249  1.00  0.00     0.102 A 
ENDBRANCH   6   7
ENDBRANCH   2   5
BRANCH   1  17
HETATM   17  C   UNL     1     -40.479  54.059 -55.047  1.00  0.00     0.280 C 
BRANCH  17  18
HETATM   18  O   UNL     1     -40.458  53.718 -53.662  1.00  0.00    -0.342 OA
BRANCH  18  19
HETATM   19  C   UNL     1     -40.171  52.397 -53.420  1.00  0.00     0.075 A 
HETATM   20  C   UNL     1     -39.815  52.046 -52.109  1.00  0.00    -0.029 A 
HETATM   21  C   UNL     1     -39.760  53.067 -51.007  1.00  0.00     0.051 C 
HETATM   22  C   UNL     1     -39.545  50.700 -51.811  1.00  0.00     0.009 A 
HETATM   23  C   UNL     1     -39.618  49.724 -52.805  1.00  0.00     0.001 A 
HETATM   24  C   UNL     1     -39.981  50.078 -54.101  1.00  0.00     0.003 A 
HETATM   25  C   UNL     1     -40.265  51.409 -54.407  1.00  0.00     0.037 A 
ENDBRANCH  18  19
ENDBRANCH  17  18
ENDBRANCH   1  17
TORSDOF 5
ENDMDL
MODEL 5
REMARK VINA RESULT:      -7.7      2.263      2.821
REMARK  5 active torsions:
REMARK  status: ('A' for Active; 'I' for Inactive)
REMARK    1  A    between atoms: C_3  and  O_4 
REMARK    2  A    between atoms: O_4  and  C_5 
REMARK    3  A    between atoms: C_5  and  C_6 
REMARK       I    between atoms: C_6  and  N_7 
REMARK    4  A    between atoms: N_7  and  N_8 
REMARK    5  A    between atoms: C_9  and  C_10 
ROOT
HETATM    1  C   UNL     1     -42.894  56.025 -55.996  1.00  0.00     0.261 C 
HETATM    2  N   UNL     1     -41.937  55.016 -55.979  1.00  0.00    -0.246 N 
HETATM    3  O   UNL     1     -43.703  56.277 -55.107  1.00  0.00    -0.269 OA
HETATM    4  H   UNL     1     -41.217  55.059 -56.699  1.00  0.00     0.192 HD
ENDROOT
BRANCH   2   5
HETATM    5  N   UNL     1     -41.652  54.149 -54.952  1.00  0.00    -0.184 NA
HETATM    6  C   UNL     1     -40.715  54.442 -54.109  1.00  0.00     0.152 C 
BRANCH   6   7
HETATM    7  C   UNL     1     -40.397  53.511 -53.042  1.00  0.00     0.011 A 
HETATM    8  C   UNL     1     -40.116  52.113 -53.180  1.00  0.00     0.004 A 
HETATM    9  C   UNL     1     -39.857  51.610 -51.903  1.00  0.00     0.043 A 
HETATM   10  C   UNL     1     -40.066  51.222 -54.273  1.00  0.00     0.014 A 
HETATM   11  C   UNL     1     -39.547  50.265 -51.667  1.00  0.00     0.030 A 
HETATM   12  N   UNL     1     -39.975  52.661 -51.023  1.00  0.00    -0.364 N 
HETATM   13  C   UNL     1     -39.505  49.405 -52.768  1.00  0.00     0.002 A 
HETATM   14  C   UNL     1     -39.762  49.874 -54.054  1.00  0.00     0.001 A 
HETATM   15  H   UNL     1     -39.841  52.589 -50.024  1.00  0.00     0.165 HD
HETATM   16  C   UNL     1     -40.305  53.806 -51.695  1.00  0.00     0.102 A 
ENDBRANCH   6   7
ENDBRANCH   2   5
BRANCH   1  17
HETATM   17  C   UNL     1     -42.921  56.789 -57.318  1.00  0.00     0.280 C 
BRANCH  17  18
HETATM   18  O   UNL     1     -42.065  57.929 -57.277  1.00  0.00    -0.342 OA
BRANCH  18  19
HETATM   19  C   UNL     1     -42.027  58.638 -58.453  1.00  0.00     0.075 A 
HETATM   20  C   UNL     1     -42.002  60.037 -58.360  1.00  0.00    -0.029 A 
HETATM   21  C   UNL     1     -42.004  60.739 -57.031  1.00  0.00     0.051 C 
HETATM   22  C   UNL     1     -41.930  60.798 -59.538  1.00  0.00     0.009 A 
HETATM   23  C   UNL     1     -41.895  60.177 -60.786  1.00  0.00     0.001 A 
HETATM   24  C   UNL     1     -41.911  58.787 -60.870  1.00  0.00     0.003 A 
HETATM   25  C   UNL     1     -41.968  58.019 -59.708  1.00  0.00     0.037 A 
ENDBRANCH  18  19
ENDBRANCH  17  18
ENDBRANCH   1  17
TORSDOF 5
ENDMDL
MODEL 6
REMARK VINA RESULT:      -7.6      1.607      2.250
REMARK  5 active torsions:
REMARK  status: ('A' for Active; 'I' for Inactive)
REMARK    1  A    between atoms: C_3  and  O_4 
REMARK    2  A    between atoms: O_4  and  C_5 
REMARK    3  A    between atoms: C_5  and  C_6 
REMARK       I    between atoms: C_6  and  N_7 
REMARK    4  A    between atoms: N_7  and  N_8 
REMARK    5  A    between atoms: C_9  and  C_10 
ROOT
HETATM    1  C   UNL     1     -44.791  57.879 -55.151  1.00  0.00     0.261 C 
HETATM    2  N   UNL     1     -44.465  56.539 -54.975  1.00  0.00    -0.246 N 
HETATM    3  O   UNL     1     -44.452  58.813 -54.427  1.00  0.00    -0.269 OA
HETATM    4  H   UNL     1     -44.653  55.917 -55.759  1.00  0.00     0.192 HD
ENDROOT
BRANCH   2   5
HETATM    5  N   UNL     1     -43.650  55.995 -54.012  1.00  0.00    -0.184 NA
HETATM    6  C   UNL     1     -42.798  55.076 -54.339  1.00  0.00     0.152 C 
BRANCH   6   7
HETATM    7  C   UNL     1     -41.958  54.483 -53.315  1.00  0.00     0.011 A 
HETATM    8  C   UNL     1     -41.200  53.271 -53.425  1.00  0.00     0.004 A 
HETATM    9  C   UNL     1     -40.536  53.082 -52.210  1.00  0.00     0.043 A 
HETATM   10  C   UNL     1     -41.023  52.310 -54.442  1.00  0.00     0.014 A 
HETATM   11  C   UNL     1     -39.702  51.984 -51.967  1.00  0.00     0.030 A 
HETATM   12  N   UNL     1     -40.876  54.136 -51.395  1.00  0.00    -0.364 N 
HETATM   13  C   UNL     1     -39.545  51.047 -52.993  1.00  0.00     0.002 A 
HETATM   14  C   UNL     1     -40.196  51.204 -54.213  1.00  0.00     0.001 A 
HETATM   15  H   UNL     1     -40.540  54.261 -50.450  1.00  0.00     0.165 HD
HETATM   16  C   UNL     1     -41.734  54.981 -52.045  1.00  0.00     0.102 A 
ENDBRANCH   6   7
ENDBRANCH   2   5
BRANCH   1  17
HETATM   17  C   UNL     1     -45.727  58.107 -56.335  1.00  0.00     0.280 C 
BRANCH  17  18
HETATM   18  O   UNL     1     -44.998  58.320 -57.542  1.00  0.00    -0.342 OA
BRANCH  18  19
HETATM   19  C   UNL     1     -45.326  57.447 -58.550  1.00  0.00     0.075 A 
HETATM   20  C   UNL     1     -44.329  56.558 -58.980  1.00  0.00    -0.029 A 
HETATM   21  C   UNL     1     -42.961  56.547 -58.359  1.00  0.00     0.051 C 
HETATM   22  C   UNL     1     -44.633  55.627 -59.987  1.00  0.00     0.009 A 
HETATM   23  C   UNL     1     -45.904  55.590 -60.562  1.00  0.00     0.001 A 
HETATM   24  C   UNL     1     -46.890  56.469 -60.124  1.00  0.00     0.003 A 
HETATM   25  C   UNL     1     -46.606  57.390 -59.114  1.00  0.00     0.037 A 
ENDBRANCH  18  19
ENDBRANCH  17  18
ENDBRANCH   1  17
TORSDOF 5
ENDMDL
MODEL 7
REMARK VINA RESULT:      -7.4      5.359      9.389
REMARK  5 active torsions:
REMARK  status: ('A' for Active; 'I' for Inactive)
REMARK    1  A    between atoms: C_3  and  O_4 
REMARK    2  A    between atoms: O_4  and  C_5 
REMARK    3  A    between atoms: C_5  and  C_6 
REMARK       I    between atoms: C_6  and  N_7 
REMARK    4  A    between atoms: N_7  and  N_8 
REMARK    5  A    between atoms: C_9  and  C_10 
ROOT
HETATM    1  C   UNL     1     -40.632  55.055 -49.624  1.00  0.00     0.261 C 
HETATM    2  N   UNL     1     -40.696  56.104 -50.534  1.00  0.00    -0.246 N 
HETATM    3  O   UNL     1     -40.946  55.099 -48.437  1.00  0.00    -0.269 OA
HETATM    4  H   UNL     1     -40.589  55.862 -51.518  1.00  0.00     0.192 HD
ENDROOT
BRANCH   2   5
HETATM    5  N   UNL     1     -41.183  57.371 -50.319  1.00  0.00    -0.184 NA
HETATM    6  C   UNL     1     -41.987  57.903 -51.183  1.00  0.00     0.152 C 
BRANCH   6   7
HETATM    7  C   UNL     1     -42.478  59.251 -50.968  1.00  0.00     0.011 A 
HETATM    8  C   UNL     1     -43.838  59.693 -51.061  1.00  0.00     0.004 A 
HETATM    9  C   UNL     1     -43.856  61.058 -50.770  1.00  0.00     0.043 A 
HETATM   10  C   UNL     1     -45.060  59.059 -51.375  1.00  0.00     0.014 A 
HETATM   11  C   UNL     1     -45.032  61.818 -50.773  1.00  0.00     0.030 A 
HETATM   12  N   UNL     1     -42.558  61.433 -50.510  1.00  0.00    -0.364 N 
HETATM   13  C   UNL     1     -46.226  61.165 -51.088  1.00  0.00     0.002 A 
HETATM   14  C   UNL     1     -46.243  59.805 -51.387  1.00  0.00     0.001 A 
HETATM   15  H   UNL     1     -42.270  62.371 -50.269  1.00  0.00     0.165 HD
HETATM   16  C   UNL     1     -41.721  60.358 -50.632  1.00  0.00     0.102 A 
ENDBRANCH   6   7
ENDBRANCH   2   5
BRANCH   1  17
HETATM   17  C   UNL     1     -40.026  53.789 -50.226  1.00  0.00     0.280 C 
BRANCH  17  18
HETATM   18  O   UNL     1     -40.246  53.727 -51.634  1.00  0.00    -0.342 OA
BRANCH  18  19
HETATM   19  C   UNL     1     -40.074  52.473 -52.168  1.00  0.00     0.075 A 
HETATM   20  C   UNL     1     -40.186  52.346 -53.561  1.00  0.00    -0.029 A 
HETATM   21  C   UNL     1     -40.472  53.531 -54.440  1.00  0.00     0.051 C 
HETATM   22  C   UNL     1     -39.985  51.087 -54.150  1.00  0.00     0.009 A 
HETATM   23  C   UNL     1     -39.687  49.974 -53.365  1.00  0.00     0.001 A 
HETATM   24  C   UNL     1     -39.568  50.109 -51.984  1.00  0.00     0.003 A 
HETATM   25  C   UNL     1     -39.752  51.356 -51.387  1.00  0.00     0.037 A 
ENDBRANCH  18  19
ENDBRANCH  17  18
ENDBRANCH   1  17
TORSDOF 5
ENDMDL
MODEL 8
REMARK VINA RESULT:      -7.3      4.521      8.782
REMARK  5 active torsions:
REMARK  status: ('A' for Active; 'I' for Inactive)
REMARK    1  A    between atoms: C_3  and  O_4 
REMARK    2  A    between atoms: O_4  and  C_5 
REMARK    3  A    between atoms: C_5  and  C_6 
REMARK       I    between atoms: C_6  and  N_7 
REMARK    4  A    between atoms: N_7  and  N_8 
REMARK    5  A    between atoms: C_9  and  C_10 
ROOT
HETATM    1  C   UNL     1     -42.597  54.677 -53.815  1.00  0.00     0.261 C 
HETATM    2  N   UNL     1     -41.909  55.383 -52.834  1.00  0.00    -0.246 N 
HETATM    3  O   UNL     1     -43.767  54.846 -54.149  1.00  0.00    -0.269 OA
HETATM    4  H   UNL     1     -40.898  55.261 -52.809  1.00  0.00     0.192 HD
ENDROOT
BRANCH   2   5
HETATM    5  N   UNL     1     -42.364  56.448 -52.093  1.00  0.00    -0.184 NA
HETATM    6  C   UNL     1     -41.824  57.613 -52.251  1.00  0.00     0.152 C 
BRANCH   6   7
HETATM    7  C   UNL     1     -42.287  58.730 -51.448  1.00  0.00     0.011 A 
HETATM    8  C   UNL     1     -43.595  59.315 -51.467  1.00  0.00     0.004 A 
HETATM    9  C   UNL     1     -43.602  60.355 -50.535  1.00  0.00     0.043 A 
HETATM   10  C   UNL     1     -44.775  59.064 -52.199  1.00  0.00     0.014 A 
HETATM   11  C   UNL     1     -44.730  61.150 -50.295  1.00  0.00     0.030 A 
HETATM   12  N   UNL     1     -42.348  60.400 -49.970  1.00  0.00    -0.364 N 
HETATM   13  C   UNL     1     -45.884  60.878 -51.035  1.00  0.00     0.002 A 
HETATM   14  C   UNL     1     -45.909  59.852 -51.975  1.00  0.00     0.001 A 
HETATM   15  H   UNL     1     -42.065  61.060 -49.259  1.00  0.00     0.165 HD
HETATM   16  C   UNL     1     -41.548  59.434 -50.515  1.00  0.00     0.102 A 
ENDBRANCH   6   7
ENDBRANCH   2   5
BRANCH   1  17
HETATM   17  C   UNL     1     -41.764  53.552 -54.424  1.00  0.00     0.280 C 
BRANCH  17  18
HETATM   18  O   UNL     1     -40.489  53.447 -53.791  1.00  0.00    -0.342 OA
BRANCH  18  19
HETATM   19  C   UNL     1     -40.160  52.168 -53.415  1.00  0.00     0.075 A 
HETATM   20  C   UNL     1     -39.822  51.961 -52.069  1.00  0.00    -0.029 A 
HETATM   21  C   UNL     1     -39.830  53.086 -51.072  1.00  0.00     0.051 C 
HETATM   22  C   UNL     1     -39.510  50.662 -51.636  1.00  0.00     0.009 A 
HETATM   23  C   UNL     1     -39.525  49.591 -52.530  1.00  0.00     0.001 A 
HETATM   24  C   UNL     1     -39.870  49.803 -53.861  1.00  0.00     0.003 A 
HETATM   25  C   UNL     1     -40.196  51.086 -54.302  1.00  0.00     0.037 A 
ENDBRANCH  18  19
ENDBRANCH  17  18
ENDBRANCH   1  17
TORSDOF 5
ENDMDL
MODEL 9
REMARK VINA RESULT:      -7.3      2.641      9.098
REMARK  5 active torsions:
REMARK  status: ('A' for Active; 'I' for Inactive)
REMARK    1  A    between atoms: C_3  and  O_4 
REMARK    2  A    between atoms: O_4  and  C_5 
REMARK    3  A    between atoms: C_5  and  C_6 
REMARK       I    between atoms: C_6  and  N_7 
REMARK    4  A    between atoms: N_7  and  N_8 
REMARK    5  A    between atoms: C_9  and  C_10 
ROOT
HETATM    1  C   UNL     1     -42.483  55.773 -54.436  1.00  0.00     0.261 C 
HETATM    2  N   UNL     1     -43.443  55.669 -55.436  1.00  0.00    -0.246 N 
HETATM    3  O   UNL     1     -41.579  56.604 -54.377  1.00  0.00    -0.269 OA
HETATM    4  H   UNL     1     -44.236  55.059 -55.245  1.00  0.00     0.192 HD
ENDROOT
BRANCH   2   5
HETATM    5  N   UNL     1     -43.623  56.501 -56.515  1.00  0.00    -0.184 NA
HETATM    6  C   UNL     1     -43.029  56.237 -57.634  1.00  0.00     0.152 C 
BRANCH   6   7
HETATM    7  C   UNL     1     -43.199  57.132 -58.763  1.00  0.00     0.011 A 
HETATM    8  C   UNL     1     -42.673  58.459 -58.891  1.00  0.00     0.004 A 
HETATM    9  C   UNL     1     -43.073  58.950 -60.136  1.00  0.00     0.043 A 
HETATM   10  C   UNL     1     -41.900  59.296 -58.058  1.00  0.00     0.014 A 
HETATM   11  C   UNL     1     -42.734  60.230 -60.590  1.00  0.00     0.030 A 
HETATM   12  N   UNL     1     -43.812  57.960 -60.741  1.00  0.00    -0.364 N 
HETATM   13  C   UNL     1     -41.967  61.037 -59.744  1.00  0.00     0.002 A 
HETATM   14  C   UNL     1     -41.556  60.580 -58.495  1.00  0.00     0.001 A 
HETATM   15  H   UNL     1     -44.232  58.039 -61.658  1.00  0.00     0.165 HD
HETATM   16  C   UNL     1     -43.900  56.867 -59.924  1.00  0.00     0.102 A 
ENDBRANCH   6   7
ENDBRANCH   2   5
BRANCH   1  17
HETATM   17  C   UNL     1     -42.592  54.660 -53.396  1.00  0.00     0.280 C 
BRANCH  17  18
HETATM   18  O   UNL     1     -41.358  54.471 -52.706  1.00  0.00    -0.342 OA
BRANCH  18  19
HETATM   19  C   UNL     1     -40.781  53.245 -52.927  1.00  0.00     0.075 A 
HETATM   20  C   UNL     1     -40.088  52.658 -51.858  1.00  0.00    -0.029 A 
HETATM   21  C   UNL     1     -39.988  53.333 -50.518  1.00  0.00     0.051 C 
HETATM   22  C   UNL     1     -39.510  51.390 -52.032  1.00  0.00     0.009 A 
HETATM   23  C   UNL     1     -39.612  50.724 -53.253  1.00  0.00     0.001 A 
HETATM   24  C   UNL     1     -40.309  51.308 -54.307  1.00  0.00     0.003 A 
HETATM   25  C   UNL     1     -40.900  52.561 -54.143  1.00  0.00     0.037 A 
ENDBRANCH  18  19
ENDBRANCH  17  18
ENDBRANCH   1  17
TORSDOF 5
ENDMDL
MODEL 10
REMARK VINA RESULT:      -7.3      1.594      2.852
REMARK  5 active torsions:
REMARK  status: ('A' for Active; 'I' for Inactive)
REMARK    1  A    between atoms: C_3  and  O_4 
REMARK    2  A    between atoms: O_4  and  C_5 
REMARK    3  A    between atoms: C_5  and  C_6 
REMARK       I    between atoms: C_6  and  N_7 
REMARK    4  A    between atoms: N_7  and  N_8 
REMARK    5  A    between atoms: C_9  and  C_10 
ROOT
HETATM    1  C   UNL     1     -43.590  57.442 -55.733  1.00  0.00     0.261 C 
HETATM    2  N   UNL     1     -43.075  56.183 -56.019  1.00  0.00    -0.246 N 
HETATM    3  O   UNL     1     -43.374  58.105 -54.722  1.00  0.00    -0.269 OA
HETATM    4  H   UNL     1     -43.188  55.850 -56.975  1.00  0.00     0.192 HD
ENDROOT
BRANCH   2   5
HETATM    5  N   UNL     1     -42.173  55.458 -55.277  1.00  0.00    -0.184 NA
HETATM    6  C   UNL     1     -42.548  54.354 -54.715  1.00  0.00     0.152 C 
BRANCH   6   7
HETATM    7  C   UNL     1     -41.602  53.605 -53.909  1.00  0.00     0.011 A 
HETATM    8  C   UNL     1     -41.164  53.925 -52.583  1.00  0.00     0.004 A 
HETATM    9  C   UNL     1     -40.262  52.934 -52.189  1.00  0.00     0.043 A 
HETATM   10  C   UNL     1     -41.442  54.974 -51.680  1.00  0.00     0.014 A 
HETATM   11  C   UNL     1     -39.631  52.938 -50.939  1.00  0.00     0.030 A 
HETATM   12  N   UNL     1     -40.157  52.046 -53.234  1.00  0.00    -0.364 N 
HETATM   13  C   UNL     1     -39.926  53.989 -50.066  1.00  0.00     0.002 A 
HETATM   14  C   UNL     1     -40.817  54.995 -50.429  1.00  0.00     0.001 A 
HETATM   15  H   UNL     1     -39.569  51.223 -53.228  1.00  0.00     0.165 HD
HETATM   16  C   UNL     1     -40.951  52.441 -54.275  1.00  0.00     0.102 A 
ENDBRANCH   6   7
ENDBRANCH   2   5
BRANCH   1  17
HETATM   17  C   UNL     1     -44.571  57.932 -56.795  1.00  0.00     0.280 C 
BRANCH  17  18
HETATM   18  O   UNL     1     -43.999  57.869 -58.100  1.00  0.00    -0.342 OA
BRANCH  18  19
HETATM   19  C   UNL     1     -44.775  57.199 -59.015  1.00  0.00     0.075 A 
HETATM   20  C   UNL     1     -44.131  56.272 -59.848  1.00  0.00    -0.029 A 
HETATM   21  C   UNL     1     -42.654  56.009 -59.742  1.00  0.00     0.051 C 
HETATM   22  C   UNL     1     -44.892  55.543 -60.775  1.00  0.00     0.009 A 
HETATM   23  C   UNL     1     -46.269  55.741 -60.877  1.00  0.00     0.001 A 
HETATM   24  C   UNL     1     -46.903  56.655 -60.040  1.00  0.00     0.003 A 
HETATM   25  C   UNL     1     -46.160  57.377 -59.105  1.00  0.00     0.037 A 
ENDBRANCH  18  19
ENDBRANCH  17  18
ENDBRANCH   1  17
TORSDOF 5
ENDMDL
