MODEL 1
REMARK VINA RESULT:      -8.0      0.000      0.000
REMARK  8 active torsions:
REMARK  status: ('A' for Active; 'I' for Inactive)
REMARK    1  A    between atoms: N_4  and  C_5 
REMARK    2  A    between atoms: C_5  and  C_6 
REMARK    3  A    between atoms: C_11  and  C_12 
REMARK    4  A    between atoms: C_12  and  C_13 
REMARK       I    between atoms: C_13  and  N_14 
REMARK    5  A    between atoms: N_14  and  N_15 
REMARK       I    between atoms: N_15  and  C_16 
REMARK    6  A    between atoms: C_16  and  C_17 
REMARK    7  A    between atoms: C_21  and  C_22 
REMARK    8  A    between atoms: C_25  and  O_26 
ROOT
HETATM    1  N   UNL     1     -43.288  59.889 -50.254  1.00  0.00    -0.262 N 
HETATM    2  C   UNL     1     -42.803  60.115 -51.524  1.00  0.00     0.288 C 
HETATM    3  O   UNL     1     -42.985  61.183 -52.106  1.00  0.00    -0.264 OA
HETATM    4  H   UNL     1     -43.169  59.019 -49.742  1.00  0.00     0.190 HD
ENDROOT
BRANCH   1   5
HETATM    5  N   UNL     1     -44.068  60.873 -49.642  1.00  0.00    -0.267 N 
HETATM    6  C   UNL     1     -45.388  60.590 -49.364  1.00  0.00     0.240 C 
HETATM    7  O   UNL     1     -45.890  59.488 -49.600  1.00  0.00    -0.272 OA
HETATM    8  H   UNL     1     -43.616  61.763 -49.441  1.00  0.00     0.190 HD
BRANCH   6   9
HETATM    9  C   UNL     1     -46.172  61.755 -48.796  1.00  0.00     0.147 C 
BRANCH   9  10
HETATM   10  C   UNL     1     -45.804  62.057 -47.382  1.00  0.00     0.001 A 
HETATM   11  C   UNL     1     -45.873  61.190 -46.258  1.00  0.00     0.059 A 
HETATM   12  C   UNL     1     -46.352  59.786 -46.190  1.00  0.00     0.073 C 
HETATM   13  N   UNL     1     -45.434  61.785 -45.149  1.00  0.00    -0.177 NA
HETATM   14  N   UNL     1     -45.042  63.008 -45.548  1.00  0.00    -0.273 N 
HETATM   15  C   UNL     1     -45.285  63.242 -46.880  1.00  0.00     0.035 A 
HETATM   16  C   UNL     1     -44.981  64.521 -47.575  1.00  0.00     0.070 C 
BRANCH  14  17
HETATM   17  C   UNL     1     -44.419  63.879 -44.565  1.00  0.00     0.155 C 
BRANCH  17  18
HETATM   18  C   UNL     1     -44.440  63.304 -43.138  1.00  0.00    -0.003 C 
HETATM   19  C   UNL     1     -43.046  62.879 -42.671  1.00  0.00     0.011 C 
HETATM   20  C   UNL     1     -45.018  64.338 -42.169  1.00  0.00     0.011 C 
ENDBRANCH  17  18
ENDBRANCH  14  17
ENDBRANCH   9  10
ENDBRANCH   6   9
ENDBRANCH   1   5
BRANCH   2  21
HETATM   21  C   UNL     1     -42.086  59.021 -52.117  1.00  0.00     0.121 A 
HETATM   22  N   UNL     1     -40.881  59.201 -52.734  1.00  0.00    -0.272 N 
HETATM   23  H   UNL     1     -40.373  60.075 -52.838  1.00  0.00     0.189 HD
HETATM   24  N   UNL     1     -40.350  58.080 -53.241  1.00  0.00    -0.174 NA
HETATM   25  C   UNL     1     -41.243  57.118 -52.959  1.00  0.00     0.089 A 
HETATM   26  C   UNL     1     -42.345  57.671 -52.245  1.00  0.00     0.071 A 
BRANCH  25  27
HETATM   27  C   UNL     1     -41.031  55.723 -53.368  1.00  0.00    -0.005 A 
HETATM   28  C   UNL     1     -41.230  54.677 -52.457  1.00  0.00     0.016 A 
HETATM   29  C   UNL     1     -41.036  53.346 -52.840  1.00  0.00     0.037 A 
HETATM   30  C   UNL     1     -40.638  53.030 -54.140  1.00  0.00     0.068 A 
HETATM   31  C   UNL     1     -40.427  54.063 -55.052  1.00  0.00     0.037 A 
HETATM   32  C   UNL     1     -40.622  55.398 -54.668  1.00  0.00     0.016 A 
BRANCH  30  33
HETATM   33  O   UNL     1     -40.488  51.695 -54.386  1.00  0.00    -0.356 OA
HETATM   34  C   UNL     1     -39.560  50.991 -53.569  1.00  0.00     0.210 C 
ENDBRANCH  30  33
ENDBRANCH  25  27
ENDBRANCH   2  21
TORSDOF 8
ENDMDL
MODEL 2
REMARK VINA RESULT:      -7.9      1.472      2.263
REMARK  8 active torsions:
REMARK  status: ('A' for Active; 'I' for Inactive)
REMARK    1  A    between atoms: N_4  and  C_5 
REMARK    2  A    between atoms: C_5  and  C_6 
REMARK    3  A    between atoms: C_11  and  C_12 
REMARK    4  A    between atoms: C_12  and  C_13 
REMARK       I    between atoms: C_13  and  N_14 
REMARK    5  A    between atoms: N_14  and  N_15 
REMARK       I    between atoms: N_15  and  C_16 
REMARK    6  A    between atoms: C_16  and  C_17 
REMARK    7  A    between atoms: C_21  and  C_22 
REMARK    8  A    between atoms: C_25  and  O_26 
ROOT
HETATM    1  N   UNL     1     -43.244  59.430 -50.208  1.00  0.00    -0.262 N 
HETATM    2  C   UNL     1     -42.519  59.080 -51.326  1.00  0.00     0.288 C 
HETATM    3  O   UNL     1     -42.265  59.893 -52.214  1.00  0.00    -0.264 OA
HETATM    4  H   UNL     1     -43.485  58.788 -49.458  1.00  0.00     0.190 HD
ENDROOT
BRANCH   1   5
HETATM    5  N   UNL     1     -43.766  60.722 -50.117  1.00  0.00    -0.267 N 
HETATM    6  C   UNL     1     -45.085  60.877 -49.747  1.00  0.00     0.240 C 
HETATM    7  O   UNL     1     -45.805  59.919 -49.458  1.00  0.00    -0.272 OA
HETATM    8  H   UNL     1     -43.138  61.492 -50.341  1.00  0.00     0.190 HD
BRANCH   6   9
HETATM    9  C   UNL     1     -45.579  62.309 -49.777  1.00  0.00     0.147 C 
BRANCH   9  10
HETATM   10  C   UNL     1     -45.259  63.051 -48.524  1.00  0.00     0.001 A 
HETATM   11  C   UNL     1     -44.294  64.079 -48.340  1.00  0.00     0.059 A 
HETATM   12  C   UNL     1     -43.343  64.653 -49.325  1.00  0.00     0.073 C 
HETATM   13  N   UNL     1     -44.298  64.540 -47.089  1.00  0.00    -0.177 NA
HETATM   14  N   UNL     1     -45.280  63.857 -46.475  1.00  0.00    -0.273 N 
HETATM   15  C   UNL     1     -45.864  62.913 -47.283  1.00  0.00     0.035 A 
HETATM   16  C   UNL     1     -46.952  61.996 -46.849  1.00  0.00     0.070 C 
BRANCH  14  17
HETATM   17  C   UNL     1     -45.598  64.208 -45.100  1.00  0.00     0.155 C 
BRANCH  17  18
HETATM   18  C   UNL     1     -44.424  63.994 -44.127  1.00  0.00    -0.003 C 
HETATM   19  C   UNL     1     -44.606  64.782 -42.829  1.00  0.00     0.011 C 
HETATM   20  C   UNL     1     -44.275  62.504 -43.813  1.00  0.00     0.011 C 
ENDBRANCH  17  18
ENDBRANCH  14  17
ENDBRANCH   9  10
ENDBRANCH   6   9
ENDBRANCH   1   5
BRANCH   2  21
HETATM   21  C   UNL     1     -42.094  57.710 -51.386  1.00  0.00     0.121 A 
HETATM   22  N   UNL     1     -41.898  56.967 -50.256  1.00  0.00    -0.272 N 
HETATM   23  H   UNL     1     -42.025  57.273 -49.296  1.00  0.00     0.189 HD
HETATM   24  N   UNL     1     -41.495  55.711 -50.488  1.00  0.00    -0.174 NA
HETATM   25  C   UNL     1     -41.410  55.617 -51.824  1.00  0.00     0.089 A 
HETATM   26  C   UNL     1     -41.787  56.853 -52.424  1.00  0.00     0.071 A 
BRANCH  25  27
HETATM   27  C   UNL     1     -40.979  54.378 -52.485  1.00  0.00    -0.005 A 
HETATM   28  C   UNL     1     -40.339  53.367 -51.754  1.00  0.00     0.016 A 
HETATM   29  C   UNL     1     -39.933  52.182 -52.375  1.00  0.00     0.037 A 
HETATM   30  C   UNL     1     -40.156  51.979 -53.737  1.00  0.00     0.068 A 
HETATM   31  C   UNL     1     -40.782  52.980 -54.477  1.00  0.00     0.037 A 
HETATM   32  C   UNL     1     -41.191  54.169 -53.855  1.00  0.00     0.016 A 
BRANCH  30  33
HETATM   33  O   UNL     1     -39.714  50.778 -54.218  1.00  0.00    -0.356 OA
HETATM   34  C   UNL     1     -39.614  49.710 -53.285  1.00  0.00     0.210 C 
ENDBRANCH  30  33
ENDBRANCH  25  27
ENDBRANCH   2  21
TORSDOF 8
ENDMDL
MODEL 3
REMARK VINA RESULT:      -7.9      8.204     10.150
REMARK  8 active torsions:
REMARK  status: ('A' for Active; 'I' for Inactive)
REMARK    1  A    between atoms: N_4  and  C_5 
REMARK    2  A    between atoms: C_5  and  C_6 
REMARK    3  A    between atoms: C_11  and  C_12 
REMARK    4  A    between atoms: C_12  and  C_13 
REMARK       I    between atoms: C_13  and  N_14 
REMARK    5  A    between atoms: N_14  and  N_15 
REMARK       I    between atoms: N_15  and  C_16 
REMARK    6  A    between atoms: C_16  and  C_17 
REMARK    7  A    between atoms: C_21  and  C_22 
REMARK    8  A    between atoms: C_25  and  O_26 
ROOT
HETATM    1  N   UNL     1     -43.870  56.464 -56.911  1.00  0.00    -0.262 N 
HETATM    2  C   UNL     1     -42.665  56.937 -56.440  1.00  0.00     0.288 C 
HETATM    3  O   UNL     1     -42.151  57.960 -56.891  1.00  0.00    -0.264 OA
HETATM    4  H   UNL     1     -44.324  55.619 -56.574  1.00  0.00     0.190 HD
ENDROOT
BRANCH   1   5
HETATM    5  N   UNL     1     -44.487  57.123 -57.976  1.00  0.00    -0.267 N 
HETATM    6  C   UNL     1     -44.369  56.587 -59.241  1.00  0.00     0.240 C 
HETATM    7  O   UNL     1     -43.774  55.529 -59.456  1.00  0.00    -0.272 OA
HETATM    8  H   UNL     1     -44.989  57.982 -57.760  1.00  0.00     0.190 HD
BRANCH   6   9
HETATM    9  C   UNL     1     -44.986  57.431 -60.338  1.00  0.00     0.147 C 
BRANCH   9  10
HETATM   10  C   UNL     1     -44.540  58.854 -60.284  1.00  0.00     0.001 A 
HETATM   11  C   UNL     1     -45.332  60.008 -60.038  1.00  0.00     0.059 A 
HETATM   12  C   UNL     1     -46.796  60.104 -59.805  1.00  0.00     0.073 C 
HETATM   13  N   UNL     1     -44.596  61.119 -60.033  1.00  0.00    -0.177 NA
HETATM   14  N   UNL     1     -43.335  60.695 -60.228  1.00  0.00    -0.273 N 
HETATM   15  C   UNL     1     -43.249  59.339 -60.430  1.00  0.00     0.035 A 
HETATM   16  C   UNL     1     -41.981  58.612 -60.702  1.00  0.00     0.070 C 
BRANCH  14  17
HETATM   17  C   UNL     1     -42.268  61.682 -60.179  1.00  0.00     0.155 C 
BRANCH  17  18
HETATM   18  C   UNL     1     -41.284  61.461 -59.015  1.00  0.00    -0.003 C 
HETATM   19  C   UNL     1     -40.124  62.459 -59.049  1.00  0.00     0.011 C 
HETATM   20  C   UNL     1     -42.025  61.572 -57.681  1.00  0.00     0.011 C 
ENDBRANCH  17  18
ENDBRANCH  14  17
ENDBRANCH   9  10
ENDBRANCH   6   9
ENDBRANCH   1   5
BRANCH   2  21
HETATM   21  C   UNL     1     -42.052  56.153 -55.405  1.00  0.00     0.121 A 
HETATM   22  N   UNL     1     -41.644  56.711 -54.226  1.00  0.00    -0.272 N 
HETATM   23  H   UNL     1     -41.722  57.685 -53.954  1.00  0.00     0.189 HD
HETATM   24  N   UNL     1     -41.086  55.842 -53.372  1.00  0.00    -0.174 NA
HETATM   25  C   UNL     1     -41.116  54.662 -54.012  1.00  0.00     0.089 A 
HETATM   26  C   UNL     1     -41.724  54.817 -55.290  1.00  0.00     0.071 A 
BRANCH  25  27
HETATM   27  C   UNL     1     -40.575  53.440 -53.402  1.00  0.00    -0.005 A 
HETATM   28  C   UNL     1     -40.385  53.361 -52.015  1.00  0.00     0.016 A 
HETATM   29  C   UNL     1     -39.876  52.199 -51.427  1.00  0.00     0.037 A 
HETATM   30  C   UNL     1     -39.547  51.091 -52.208  1.00  0.00     0.068 A 
HETATM   31  C   UNL     1     -39.722  51.161 -53.589  1.00  0.00     0.037 A 
HETATM   32  C   UNL     1     -40.232  52.326 -54.180  1.00  0.00     0.016 A 
BRANCH  30  33
HETATM   33  O   UNL     1     -39.065  50.019 -51.510  1.00  0.00    -0.356 OA
HETATM   34  C   UNL     1     -39.822  49.593 -50.385  1.00  0.00     0.210 C 
ENDBRANCH  30  33
ENDBRANCH  25  27
ENDBRANCH   2  21
TORSDOF 8
ENDMDL
MODEL 4
REMARK VINA RESULT:      -7.8      3.440      5.433
REMARK  8 active torsions:
REMARK  status: ('A' for Active; 'I' for Inactive)
REMARK    1  A    between atoms: N_4  and  C_5 
REMARK    2  A    between atoms: C_5  and  C_6 
REMARK    3  A    between atoms: C_11  and  C_12 
REMARK    4  A    between atoms: C_12  and  C_13 
REMARK       I    between atoms: C_13  and  N_14 
REMARK    5  A    between atoms: N_14  and  N_15 
REMARK       I    between atoms: N_15  and  C_16 
REMARK    6  A    between atoms: C_16  and  C_17 
REMARK    7  A    between atoms: C_21  and  C_22 
REMARK    8  A    between atoms: C_25  and  O_26 
ROOT
HETATM    1  N   UNL     1     -43.873  59.685 -50.760  1.00  0.00    -0.262 N 
HETATM    2  C   UNL     1     -42.675  59.272 -51.301  1.00  0.00     0.288 C 
HETATM    3  O   UNL     1     -41.847  60.075 -51.728  1.00  0.00    -0.264 OA
HETATM    4  H   UNL     1     -44.588  59.055 -50.406  1.00  0.00     0.190 HD
ENDROOT
BRANCH   1   5
HETATM    5  N   UNL     1     -44.185  61.046 -50.766  1.00  0.00    -0.267 N 
HETATM    6  C   UNL     1     -45.425  61.441 -50.311  1.00  0.00     0.240 C 
HETATM    7  O   UNL     1     -46.249  60.640 -49.864  1.00  0.00    -0.272 OA
HETATM    8  H   UNL     1     -43.473  61.682 -51.121  1.00  0.00     0.190 HD
BRANCH   6   9
HETATM    9  C   UNL     1     -45.701  62.924 -50.455  1.00  0.00     0.147 C 
BRANCH   9  10
HETATM   10  C   UNL     1     -47.147  63.219 -50.670  1.00  0.00     0.001 A 
HETATM   11  C   UNL     1     -48.061  63.815 -49.760  1.00  0.00     0.059 A 
HETATM   12  C   UNL     1     -47.829  64.266 -48.365  1.00  0.00     0.073 C 
HETATM   13  N   UNL     1     -49.273  63.956 -50.299  1.00  0.00    -0.177 NA
HETATM   14  N   UNL     1     -49.143  63.500 -51.557  1.00  0.00    -0.273 N 
HETATM   15  C   UNL     1     -47.890  63.001 -51.821  1.00  0.00     0.035 A 
HETATM   16  C   UNL     1     -47.483  62.404 -53.121  1.00  0.00     0.070 C 
BRANCH  14  17
HETATM   17  C   UNL     1     -50.289  63.610 -52.444  1.00  0.00     0.155 C 
BRANCH  17  18
HETATM   18  C   UNL     1     -51.383  62.564 -52.162  1.00  0.00    -0.003 C 
HETATM   19  C   UNL     1     -52.748  63.212 -51.924  1.00  0.00     0.011 C 
HETATM   20  C   UNL     1     -51.473  61.579 -53.330  1.00  0.00     0.011 C 
ENDBRANCH  17  18
ENDBRANCH  14  17
ENDBRANCH   9  10
ENDBRANCH   6   9
ENDBRANCH   1   5
BRANCH   2  21
HETATM   21  C   UNL     1     -42.468  57.851 -51.338  1.00  0.00     0.121 A 
HETATM   22  N   UNL     1     -43.230  56.993 -50.598  1.00  0.00    -0.272 N 
HETATM   23  H   UNL     1     -43.992  57.239 -49.973  1.00  0.00     0.189 HD
HETATM   24  N   UNL     1     -42.902  55.702 -50.742  1.00  0.00    -0.174 NA
HETATM   25  C   UNL     1     -41.874  55.703 -51.605  1.00  0.00     0.089 A 
HETATM   26  C   UNL     1     -41.578  57.037 -52.009  1.00  0.00     0.071 A 
BRANCH  25  27
HETATM   27  C   UNL     1     -41.211  54.458 -52.017  1.00  0.00    -0.005 A 
HETATM   28  C   UNL     1     -41.349  53.978 -53.327  1.00  0.00     0.016 A 
HETATM   29  C   UNL     1     -40.716  52.798 -53.728  1.00  0.00     0.037 A 
HETATM   30  C   UNL     1     -39.933  52.070 -52.832  1.00  0.00     0.068 A 
HETATM   31  C   UNL     1     -39.796  52.531 -51.524  1.00  0.00     0.037 A 
HETATM   32  C   UNL     1     -40.430  53.716 -51.121  1.00  0.00     0.016 A 
BRANCH  30  33
HETATM   33  O   UNL     1     -39.367  50.939 -53.351  1.00  0.00    -0.356 OA
HETATM   34  C   UNL     1     -40.124  50.232 -54.325  1.00  0.00     0.210 C 
ENDBRANCH  30  33
ENDBRANCH  25  27
ENDBRANCH   2  21
TORSDOF 8
ENDMDL
MODEL 5
REMARK VINA RESULT:      -7.5      7.997      9.869
REMARK  8 active torsions:
REMARK  status: ('A' for Active; 'I' for Inactive)
REMARK    1  A    between atoms: N_4  and  C_5 
REMARK    2  A    between atoms: C_5  and  C_6 
REMARK    3  A    between atoms: C_11  and  C_12 
REMARK    4  A    between atoms: C_12  and  C_13 
REMARK       I    between atoms: C_13  and  N_14 
REMARK    5  A    between atoms: N_14  and  N_15 
REMARK       I    between atoms: N_15  and  C_16 
REMARK    6  A    between atoms: C_16  and  C_17 
REMARK    7  A    between atoms: C_21  and  C_22 
REMARK    8  A    between atoms: C_25  and  O_26 
ROOT
HETATM    1  N   UNL     1     -41.943  57.296 -57.765  1.00  0.00    -0.262 N 
HETATM    2  C   UNL     1     -43.030  57.008 -56.969  1.00  0.00     0.288 C 
HETATM    3  O   UNL     1     -44.109  57.582 -57.114  1.00  0.00    -0.264 OA
HETATM    4  H   UNL     1     -41.033  56.854 -57.672  1.00  0.00     0.190 HD
ENDROOT
BRANCH   1   5
HETATM    5  N   UNL     1     -42.048  58.318 -58.710  1.00  0.00    -0.267 N 
HETATM    6  C   UNL     1     -42.011  57.987 -60.048  1.00  0.00     0.240 C 
HETATM    7  O   UNL     1     -41.929  56.819 -60.436  1.00  0.00    -0.272 OA
HETATM    8  H   UNL     1     -42.138  59.269 -58.356  1.00  0.00     0.190 HD
BRANCH   6   9
HETATM    9  C   UNL     1     -42.030  59.175 -60.987  1.00  0.00     0.147 C 
BRANCH   9  10
HETATM   10  C   UNL     1     -42.816  60.321 -60.445  1.00  0.00     0.001 A 
HETATM   11  C   UNL     1     -44.227  60.430 -60.318  1.00  0.00     0.059 A 
HETATM   12  C   UNL     1     -45.278  59.459 -60.716  1.00  0.00     0.073 C 
HETATM   13  N   UNL     1     -44.584  61.588 -59.761  1.00  0.00    -0.177 NA
HETATM   14  N   UNL     1     -43.423  62.208 -59.486  1.00  0.00    -0.273 N 
HETATM   15  C   UNL     1     -42.324  61.508 -59.919  1.00  0.00     0.035 A 
HETATM   16  C   UNL     1     -40.921  61.978 -59.774  1.00  0.00     0.070 C 
BRANCH  14  17
HETATM   17  C   UNL     1     -43.479  63.476 -58.776  1.00  0.00     0.155 C 
BRANCH  17  18
HETATM   18  C   UNL     1     -43.909  63.335 -57.305  1.00  0.00    -0.003 C 
HETATM   19  C   UNL     1     -43.108  62.255 -56.574  1.00  0.00     0.011 C 
HETATM   20  C   UNL     1     -43.749  64.676 -56.586  1.00  0.00     0.011 C 
ENDBRANCH  17  18
ENDBRANCH  14  17
ENDBRANCH   9  10
ENDBRANCH   6   9
ENDBRANCH   1   5
BRANCH   2  21
HETATM   21  C   UNL     1     -42.814  56.007 -55.962  1.00  0.00     0.121 A 
HETATM   22  N   UNL     1     -43.836  55.528 -55.193  1.00  0.00    -0.272 N 
HETATM   23  H   UNL     1     -44.813  55.800 -55.238  1.00  0.00     0.189 HD
HETATM   24  N   UNL     1     -43.462  54.604 -54.297  1.00  0.00    -0.174 NA
HETATM   25  C   UNL     1     -42.138  54.471 -54.471  1.00  0.00     0.089 A 
HETATM   26  C   UNL     1     -41.696  55.332 -55.517  1.00  0.00     0.071 A 
BRANCH  25  27
HETATM   27  C   UNL     1     -41.341  53.545 -53.655  1.00  0.00    -0.005 A 
HETATM   28  C   UNL     1     -40.692  52.453 -54.247  1.00  0.00     0.016 A 
HETATM   29  C   UNL     1     -39.927  51.571 -53.477  1.00  0.00     0.037 A 
HETATM   30  C   UNL     1     -39.791  51.760 -52.101  1.00  0.00     0.068 A 
HETATM   31  C   UNL     1     -40.440  52.836 -51.500  1.00  0.00     0.037 A 
HETATM   32  C   UNL     1     -41.208  53.722 -52.271  1.00  0.00     0.016 A 
BRANCH  30  33
HETATM   33  O   UNL     1     -39.014  50.831 -51.468  1.00  0.00    -0.356 OA
HETATM   34  C   UNL     1     -39.670  49.667 -50.983  1.00  0.00     0.210 C 
ENDBRANCH  30  33
ENDBRANCH  25  27
ENDBRANCH   2  21
TORSDOF 8
ENDMDL
MODEL 6
REMARK VINA RESULT:      -7.5      2.386      3.548
REMARK  8 active torsions:
REMARK  status: ('A' for Active; 'I' for Inactive)
REMARK    1  A    between atoms: N_4  and  C_5 
REMARK    2  A    between atoms: C_5  and  C_6 
REMARK    3  A    between atoms: C_11  and  C_12 
REMARK    4  A    between atoms: C_12  and  C_13 
REMARK       I    between atoms: C_13  and  N_14 
REMARK    5  A    between atoms: N_14  and  N_15 
REMARK       I    between atoms: N_15  and  C_16 
REMARK    6  A    between atoms: C_16  and  C_17 
REMARK    7  A    between atoms: C_21  and  C_22 
REMARK    8  A    between atoms: C_25  and  O_26 
ROOT
HETATM    1  N   UNL     1     -43.017  59.026 -50.850  1.00  0.00    -0.262 N 
HETATM    2  C   UNL     1     -41.710  58.634 -51.047  1.00  0.00     0.288 C 
HETATM    3  O   UNL     1     -40.818  59.450 -51.274  1.00  0.00    -0.264 OA
HETATM    4  H   UNL     1     -43.785  58.385 -50.669  1.00  0.00     0.190 HD
ENDROOT
BRANCH   1   5
HETATM    5  N   UNL     1     -43.347  60.376 -50.985  1.00  0.00    -0.267 N 
HETATM    6  C   UNL     1     -43.913  60.801 -52.168  1.00  0.00     0.240 C 
HETATM    7  O   UNL     1     -44.173  60.026 -53.091  1.00  0.00    -0.272 OA
HETATM    8  H   UNL     1     -43.139  60.985 -50.196  1.00  0.00     0.190 HD
BRANCH   6   9
HETATM    9  C   UNL     1     -44.138  62.297 -52.251  1.00  0.00     0.147 C 
BRANCH   9  10
HETATM   10  C   UNL     1     -45.049  62.799 -51.183  1.00  0.00     0.001 A 
HETATM   11  C   UNL     1     -46.458  62.639 -51.091  1.00  0.00     0.059 A 
HETATM   12  C   UNL     1     -47.385  61.967 -52.037  1.00  0.00     0.073 C 
HETATM   13  N   UNL     1     -46.947  63.194 -49.981  1.00  0.00    -0.177 NA
HETATM   14  N   UNL     1     -45.869  63.671 -49.334  1.00  0.00    -0.273 N 
HETATM   15  C   UNL     1     -44.701  63.500 -50.037  1.00  0.00     0.035 A 
HETATM   16  C   UNL     1     -43.368  63.963 -49.570  1.00  0.00     0.070 C 
BRANCH  14  17
HETATM   17  C   UNL     1     -46.068  64.262 -48.021  1.00  0.00     0.155 C 
BRANCH  17  18
HETATM   18  C   UNL     1     -45.737  63.303 -46.863  1.00  0.00    -0.003 C 
HETATM   19  C   UNL     1     -45.121  64.037 -45.670  1.00  0.00     0.011 C 
HETATM   20  C   UNL     1     -47.003  62.565 -46.421  1.00  0.00     0.011 C 
ENDBRANCH  17  18
ENDBRANCH  14  17
ENDBRANCH   9  10
ENDBRANCH   6   9
ENDBRANCH   1   5
BRANCH   2  21
HETATM   21  C   UNL     1     -41.469  57.220 -50.977  1.00  0.00     0.121 A 
HETATM   22  N   UNL     1     -41.647  56.516 -49.821  1.00  0.00    -0.272 N 
HETATM   23  H   UNL     1     -41.957  56.881 -48.926  1.00  0.00     0.189 HD
HETATM   24  N   UNL     1     -41.372  55.209 -49.926  1.00  0.00    -0.174 NA
HETATM   25  C   UNL     1     -40.985  55.039 -51.201  1.00  0.00     0.089 A 
HETATM   26  C   UNL     1     -41.042  56.282 -51.895  1.00  0.00     0.071 A 
BRANCH  25  27
HETATM   27  C   UNL     1     -40.580  53.725 -51.716  1.00  0.00    -0.005 A 
HETATM   28  C   UNL     1     -40.639  53.450 -53.089  1.00  0.00     0.016 A 
HETATM   29  C   UNL     1     -40.249  52.204 -53.588  1.00  0.00     0.037 A 
HETATM   30  C   UNL     1     -39.791  51.204 -52.729  1.00  0.00     0.068 A 
HETATM   31  C   UNL     1     -39.736  51.462 -51.360  1.00  0.00     0.037 A 
HETATM   32  C   UNL     1     -40.127  52.713 -50.859  1.00  0.00     0.016 A 
BRANCH  30  33
HETATM   33  O   UNL     1     -39.437  50.036 -53.344  1.00  0.00    -0.356 OA
HETATM   34  C   UNL     1     -39.871  49.860 -54.686  1.00  0.00     0.210 C 
ENDBRANCH  30  33
ENDBRANCH  25  27
ENDBRANCH   2  21
TORSDOF 8
ENDMDL
MODEL 7
REMARK VINA RESULT:      -7.4      8.272     10.127
REMARK  8 active torsions:
REMARK  status: ('A' for Active; 'I' for Inactive)
REMARK    1  A    between atoms: N_4  and  C_5 
REMARK    2  A    between atoms: C_5  and  C_6 
REMARK    3  A    between atoms: C_11  and  C_12 
REMARK    4  A    between atoms: C_12  and  C_13 
REMARK       I    between atoms: C_13  and  N_14 
REMARK    5  A    between atoms: N_14  and  N_15 
REMARK       I    between atoms: N_15  and  C_16 
REMARK    6  A    between atoms: C_16  and  C_17 
REMARK    7  A    between atoms: C_21  and  C_22 
REMARK    8  A    between atoms: C_25  and  O_26 
ROOT
HETATM    1  N   UNL     1     -41.897  57.202 -57.750  1.00  0.00    -0.262 N 
HETATM    2  C   UNL     1     -42.972  56.900 -56.943  1.00  0.00     0.288 C 
HETATM    3  O   UNL     1     -44.055  57.471 -57.066  1.00  0.00    -0.264 OA
HETATM    4  H   UNL     1     -40.984  56.763 -57.675  1.00  0.00     0.190 HD
ENDROOT
BRANCH   1   5
HETATM    5  N   UNL     1     -42.020  58.235 -58.682  1.00  0.00    -0.267 N 
HETATM    6  C   UNL     1     -42.075  57.912 -60.022  1.00  0.00     0.240 C 
HETATM    7  O   UNL     1     -42.059  56.745 -60.420  1.00  0.00    -0.272 OA
HETATM    8  H   UNL     1     -42.053  59.185 -58.318  1.00  0.00     0.190 HD
BRANCH   6   9
HETATM    9  C   UNL     1     -42.105  59.107 -60.952  1.00  0.00     0.147 C 
BRANCH   9  10
HETATM   10  C   UNL     1     -42.891  60.247 -60.395  1.00  0.00     0.001 A 
HETATM   11  C   UNL     1     -42.404  61.501 -59.937  1.00  0.00     0.059 A 
HETATM   12  C   UNL     1     -41.004  61.988 -59.863  1.00  0.00     0.073 C 
HETATM   13  N   UNL     1     -43.395  62.295 -59.530  1.00  0.00    -0.177 NA
HETATM   14  N   UNL     1     -44.516  61.590 -59.761  1.00  0.00    -0.273 N 
HETATM   15  C   UNL     1     -44.267  60.327 -60.241  1.00  0.00     0.035 A 
HETATM   16  C   UNL     1     -45.322  59.325 -60.550  1.00  0.00     0.070 C 
BRANCH  14  17
HETATM   17  C   UNL     1     -45.793  62.235 -59.504  1.00  0.00     0.155 C 
BRANCH  17  18
HETATM   18  C   UNL     1     -46.044  62.523 -58.013  1.00  0.00    -0.003 C 
HETATM   19  C   UNL     1     -47.310  63.354 -57.794  1.00  0.00     0.011 C 
HETATM   20  C   UNL     1     -46.148  61.207 -57.240  1.00  0.00     0.011 C 
ENDBRANCH  17  18
ENDBRANCH  14  17
ENDBRANCH   9  10
ENDBRANCH   6   9
ENDBRANCH   1   5
BRANCH   2  21
HETATM   21  C   UNL     1     -42.738  55.889 -55.951  1.00  0.00     0.121 A 
HETATM   22  N   UNL     1     -43.716  55.488 -55.086  1.00  0.00    -0.272 N 
HETATM   23  H   UNL     1     -44.671  55.831 -55.044  1.00  0.00     0.189 HD
HETATM   24  N   UNL     1     -43.330  54.541 -54.220  1.00  0.00    -0.174 NA
HETATM   25  C   UNL     1     -42.040  54.311 -54.514  1.00  0.00     0.089 A 
HETATM   26  C   UNL     1     -41.635  55.134 -55.603  1.00  0.00     0.071 A 
BRANCH  25  27
HETATM   27  C   UNL     1     -41.241  53.332 -53.765  1.00  0.00    -0.005 A 
HETATM   28  C   UNL     1     -41.063  53.468 -52.381  1.00  0.00     0.016 A 
HETATM   29  C   UNL     1     -40.309  52.536 -51.661  1.00  0.00     0.037 A 
HETATM   30  C   UNL     1     -39.717  51.449 -52.304  1.00  0.00     0.068 A 
HETATM   31  C   UNL     1     -39.878  51.309 -53.681  1.00  0.00     0.037 A 
HETATM   32  C   UNL     1     -40.634  52.243 -54.405  1.00  0.00     0.016 A 
BRANCH  30  33
HETATM   33  O   UNL     1     -39.012  50.613 -51.485  1.00  0.00    -0.356 OA
HETATM   34  C   UNL     1     -39.765  49.811 -50.584  1.00  0.00     0.210 C 
ENDBRANCH  30  33
ENDBRANCH  25  27
ENDBRANCH   2  21
TORSDOF 8
ENDMDL
MODEL 8
REMARK VINA RESULT:      -7.4      8.484     10.228
REMARK  8 active torsions:
REMARK  status: ('A' for Active; 'I' for Inactive)
REMARK    1  A    between atoms: N_4  and  C_5 
REMARK    2  A    between atoms: C_5  and  C_6 
REMARK    3  A    between atoms: C_11  and  C_12 
REMARK    4  A    between atoms: C_12  and  C_13 
REMARK       I    between atoms: C_13  and  N_14 
REMARK    5  A    between atoms: N_14  and  N_15 
REMARK       I    between atoms: N_15  and  C_16 
REMARK    6  A    between atoms: C_16  and  C_17 
REMARK    7  A    between atoms: C_21  and  C_22 
REMARK    8  A    between atoms: C_25  and  O_26 
ROOT
HETATM    1  N   UNL     1     -43.988  56.559 -57.963  1.00  0.00    -0.262 N 
HETATM    2  C   UNL     1     -42.979  56.844 -57.069  1.00  0.00     0.288 C 
HETATM    3  O   UNL     1     -42.303  57.868 -57.161  1.00  0.00    -0.264 OA
HETATM    4  H   UNL     1     -44.562  55.722 -57.929  1.00  0.00     0.190 HD
ENDROOT
BRANCH   1   5
HETATM    5  N   UNL     1     -44.198  57.419 -59.043  1.00  0.00    -0.267 N 
HETATM    6  C   UNL     1     -45.253  58.306 -58.986  1.00  0.00     0.240 C 
HETATM    7  O   UNL     1     -45.989  58.391 -58.001  1.00  0.00    -0.272 OA
HETATM    8  H   UNL     1     -43.558  57.337 -59.831  1.00  0.00     0.190 HD
BRANCH   6   9
HETATM    9  C   UNL     1     -45.454  59.120 -60.247  1.00  0.00     0.147 C 
BRANCH   9  10
HETATM   10  C   UNL     1     -44.702  60.407 -60.224  1.00  0.00     0.001 A 
HETATM   11  C   UNL     1     -45.147  61.671 -59.750  1.00  0.00     0.059 A 
HETATM   12  C   UNL     1     -46.472  62.043 -59.190  1.00  0.00     0.073 C 
HETATM   13  N   UNL     1     -44.197  62.600 -59.854  1.00  0.00    -0.177 NA
HETATM   14  N   UNL     1     -43.131  61.946 -60.347  1.00  0.00    -0.273 N 
HETATM   15  C   UNL     1     -43.394  60.628 -60.631  1.00  0.00     0.035 A 
HETATM   16  C   UNL     1     -42.404  59.684 -61.216  1.00  0.00     0.070 C 
BRANCH  14  17
HETATM   17  C   UNL     1     -41.885  62.681 -60.488  1.00  0.00     0.155 C 
BRANCH  17  18
HETATM   18  C   UNL     1     -40.753  62.144 -59.594  1.00  0.00    -0.003 C 
HETATM   19  C   UNL     1     -39.500  63.019 -59.669  1.00  0.00     0.011 C 
HETATM   20  C   UNL     1     -41.235  62.050 -58.145  1.00  0.00     0.011 C 
ENDBRANCH  17  18
ENDBRANCH  14  17
ENDBRANCH   9  10
ENDBRANCH   6   9
ENDBRANCH   1   5
BRANCH   2  21
HETATM   21  C   UNL     1     -42.768  55.866 -56.039  1.00  0.00     0.121 A 
HETATM   22  N   UNL     1     -43.785  55.442 -55.231  1.00  0.00    -0.272 N 
HETATM   23  H   UNL     1     -44.754  55.744 -55.261  1.00  0.00     0.189 HD
HETATM   24  N   UNL     1     -43.418  54.533 -54.317  1.00  0.00    -0.174 NA
HETATM   25  C   UNL     1     -42.102  54.354 -54.519  1.00  0.00     0.089 A 
HETATM   26  C   UNL     1     -41.660  55.169 -55.600  1.00  0.00     0.071 A 
BRANCH  25  27
HETATM   27  C   UNL     1     -41.314  53.428 -53.695  1.00  0.00    -0.005 A 
HETATM   28  C   UNL     1     -40.640  52.349 -54.284  1.00  0.00     0.016 A 
HETATM   29  C   UNL     1     -39.883  51.467 -53.507  1.00  0.00     0.037 A 
HETATM   30  C   UNL     1     -39.781  51.641 -52.127  1.00  0.00     0.068 A 
HETATM   31  C   UNL     1     -40.455  52.704 -51.528  1.00  0.00     0.037 A 
HETATM   32  C   UNL     1     -41.215  53.589 -52.307  1.00  0.00     0.016 A 
BRANCH  30  33
HETATM   33  O   UNL     1     -39.009  50.714 -51.486  1.00  0.00    -0.356 OA
HETATM   34  C   UNL     1     -39.689  49.742 -50.702  1.00  0.00     0.210 C 
ENDBRANCH  30  33
ENDBRANCH  25  27
ENDBRANCH   2  21
TORSDOF 8
ENDMDL
MODEL 9
REMARK VINA RESULT:      -7.2     20.984     23.878
REMARK  8 active torsions:
REMARK  status: ('A' for Active; 'I' for Inactive)
REMARK    1  A    between atoms: N_4  and  C_5 
REMARK    2  A    between atoms: C_5  and  C_6 
REMARK    3  A    between atoms: C_11  and  C_12 
REMARK    4  A    between atoms: C_12  and  C_13 
REMARK       I    between atoms: C_13  and  N_14 
REMARK    5  A    between atoms: N_14  and  N_15 
REMARK       I    between atoms: N_15  and  C_16 
REMARK    6  A    between atoms: C_16  and  C_17 
REMARK    7  A    between atoms: C_21  and  C_22 
REMARK    8  A    between atoms: C_25  and  O_26 
ROOT
HETATM    1  N   UNL     1     -33.491  40.932 -53.567  1.00  0.00    -0.262 N 
HETATM    2  C   UNL     1     -32.503  40.134 -53.032  1.00  0.00     0.288 C 
HETATM    3  O   UNL     1     -31.597  39.674 -53.725  1.00  0.00    -0.264 OA
HETATM    4  H   UNL     1     -34.261  41.324 -53.033  1.00  0.00     0.190 HD
ENDROOT
BRANCH   1   5
HETATM    5  N   UNL     1     -33.504  41.162 -54.944  1.00  0.00    -0.267 N 
HETATM    6  C   UNL     1     -34.669  41.609 -55.528  1.00  0.00     0.240 C 
HETATM    7  O   UNL     1     -35.685  41.850 -54.872  1.00  0.00    -0.272 OA
HETATM    8  H   UNL     1     -32.641  40.974 -55.452  1.00  0.00     0.190 HD
BRANCH   6   9
HETATM    9  C   UNL     1     -34.607  41.728 -57.037  1.00  0.00     0.147 C 
BRANCH   9  10
HETATM   10  C   UNL     1     -35.488  40.741 -57.726  1.00  0.00     0.001 A 
HETATM   11  C   UNL     1     -35.400  39.323 -57.697  1.00  0.00     0.059 A 
HETATM   12  C   UNL     1     -34.403  38.463 -57.010  1.00  0.00     0.073 C 
HETATM   13  N   UNL     1     -36.374  38.753 -58.407  1.00  0.00    -0.177 NA
HETATM   14  N   UNL     1     -37.116  39.781 -58.857  1.00  0.00    -0.273 N 
HETATM   15  C   UNL     1     -36.600  41.007 -58.512  1.00  0.00     0.035 A 
HETATM   16  C   UNL     1     -37.200  42.309 -58.907  1.00  0.00     0.070 C 
BRANCH  14  17
HETATM   17  C   UNL     1     -38.328  39.474 -59.598  1.00  0.00     0.155 C 
BRANCH  17  18
HETATM   18  C   UNL     1     -38.112  38.445 -60.723  1.00  0.00    -0.003 C 
HETATM   19  C   UNL     1     -39.428  37.808 -61.176  1.00  0.00     0.011 C 
HETATM   20  C   UNL     1     -37.424  39.115 -61.914  1.00  0.00     0.011 C 
ENDBRANCH  17  18
ENDBRANCH  14  17
ENDBRANCH   9  10
ENDBRANCH   6   9
ENDBRANCH   1   5
BRANCH   2  21
HETATM   21  C   UNL     1     -32.611  39.874 -51.623  1.00  0.00     0.121 A 
HETATM   22  N   UNL     1     -33.821  39.702 -51.014  1.00  0.00    -0.272 N 
HETATM   23  H   UNL     1     -34.735  39.731 -51.455  1.00  0.00     0.189 HD
HETATM   24  N   UNL     1     -33.745  39.475 -49.696  1.00  0.00    -0.174 NA
HETATM   25  C   UNL     1     -32.432  39.508 -49.415  1.00  0.00     0.089 A 
HETATM   26  C   UNL     1     -31.687  39.748 -50.605  1.00  0.00     0.071 A 
BRANCH  25  27
HETATM   27  C   UNL     1     -31.930  39.313 -48.049  1.00  0.00    -0.005 A 
HETATM   28  C   UNL     1     -30.859  40.081 -47.569  1.00  0.00     0.016 A 
HETATM   29  C   UNL     1     -30.380  39.905 -46.267  1.00  0.00     0.037 A 
HETATM   30  C   UNL     1     -30.956  38.962 -45.416  1.00  0.00     0.068 A 
HETATM   31  C   UNL     1     -32.014  38.186 -45.885  1.00  0.00     0.037 A 
HETATM   32  C   UNL     1     -32.497  38.361 -47.191  1.00  0.00     0.016 A 
BRANCH  30  33
HETATM   33  O   UNL     1     -30.397  38.894 -44.171  1.00  0.00    -0.356 OA
HETATM   34  C   UNL     1     -29.460  39.908 -43.832  1.00  0.00     0.210 C 
ENDBRANCH  30  33
ENDBRANCH  25  27
ENDBRANCH   2  21
TORSDOF 8
ENDMDL
MODEL 10
REMARK VINA RESULT:      -7.2     20.175     22.636
REMARK  8 active torsions:
REMARK  status: ('A' for Active; 'I' for Inactive)
REMARK    1  A    between atoms: N_4  and  C_5 
REMARK    2  A    between atoms: C_5  and  C_6 
REMARK    3  A    between atoms: C_11  and  C_12 
REMARK    4  A    between atoms: C_12  and  C_13 
REMARK       I    between atoms: C_13  and  N_14 
REMARK    5  A    between atoms: N_14  and  N_15 
REMARK       I    between atoms: N_15  and  C_16 
REMARK    6  A    between atoms: C_16  and  C_17 
REMARK    7  A    between atoms: C_21  and  C_22 
REMARK    8  A    between atoms: C_25  and  O_26 
ROOT
HETATM    1  N   UNL     1     -34.080  40.922 -56.142  1.00  0.00    -0.262 N 
HETATM    2  C   UNL     1     -35.199  41.687 -56.389  1.00  0.00     0.288 C 
HETATM    3  O   UNL     1     -35.536  42.603 -55.639  1.00  0.00    -0.264 OA
HETATM    4  H   UNL     1     -33.774  40.151 -56.729  1.00  0.00     0.190 HD
ENDROOT
BRANCH   1   5
HETATM    5  N   UNL     1     -33.353  41.145 -54.972  1.00  0.00    -0.267 N 
HETATM    6  C   UNL     1     -32.857  40.057 -54.284  1.00  0.00     0.240 C 
HETATM    7  O   UNL     1     -33.001  38.901 -54.688  1.00  0.00    -0.272 OA
HETATM    8  H   UNL     1     -33.234  42.113 -54.678  1.00  0.00     0.190 HD
BRANCH   6   9
HETATM    9  C   UNL     1     -32.172  40.402 -52.978  1.00  0.00     0.147 C 
BRANCH   9  10
HETATM   10  C   UNL     1     -32.974  39.995 -51.787  1.00  0.00     0.001 A 
HETATM   11  C   UNL     1     -33.966  40.749 -51.104  1.00  0.00     0.059 A 
HETATM   12  C   UNL     1     -34.436  42.132 -51.371  1.00  0.00     0.073 C 
HETATM   13  N   UNL     1     -34.502  40.060 -50.096  1.00  0.00    -0.177 NA
HETATM   14  N   UNL     1     -33.903  38.858 -50.147  1.00  0.00    -0.273 N 
HETATM   15  C   UNL     1     -32.938  38.778 -51.122  1.00  0.00     0.035 A 
HETATM   16  C   UNL     1     -32.100  37.577 -51.374  1.00  0.00     0.070 C 
BRANCH  14  17
HETATM   17  C   UNL     1     -34.350  37.833 -49.217  1.00  0.00     0.155 C 
BRANCH  17  18
HETATM   18  C   UNL     1     -33.838  38.045 -47.781  1.00  0.00    -0.003 C 
HETATM   19  C   UNL     1     -34.892  37.674 -46.736  1.00  0.00     0.011 C 
HETATM   20  C   UNL     1     -32.571  37.218 -47.555  1.00  0.00     0.011 C 
ENDBRANCH  17  18
ENDBRANCH  14  17
ENDBRANCH   9  10
ENDBRANCH   6   9
ENDBRANCH   1   5
BRANCH   2  21
HETATM   21  C   UNL     1     -35.943  41.337 -57.567  1.00  0.00     0.121 A 
HETATM   22  N   UNL     1     -36.357  42.280 -58.464  1.00  0.00    -0.272 N 
HETATM   23  H   UNL     1     -36.195  43.281 -58.414  1.00  0.00     0.189 HD
HETATM   24  N   UNL     1     -37.044  41.786 -59.502  1.00  0.00    -0.174 NA
HETATM   25  C   UNL     1     -37.099  40.463 -59.281  1.00  0.00     0.089 A 
HETATM   26  C   UNL     1     -36.409  40.142 -58.077  1.00  0.00     0.071 A 
BRANCH  25  27
HETATM   27  C   UNL     1     -37.793  39.554 -60.204  1.00  0.00    -0.005 A 
HETATM   28  C   UNL     1     -37.307  39.354 -61.504  1.00  0.00     0.016 A 
HETATM   29  C   UNL     1     -37.958  38.486 -62.386  1.00  0.00     0.037 A 
HETATM   30  C   UNL     1     -39.106  37.799 -61.991  1.00  0.00     0.068 A 
HETATM   31  C   UNL     1     -39.605  37.997 -60.705  1.00  0.00     0.037 A 
HETATM   32  C   UNL     1     -38.952  38.868 -59.819  1.00  0.00     0.016 A 
BRANCH  30  33
HETATM   33  O   UNL     1     -39.642  36.980 -62.946  1.00  0.00    -0.356 OA
HETATM   34  C   UNL     1     -40.951  37.295 -63.401  1.00  0.00     0.210 C 
ENDBRANCH  30  33
ENDBRANCH  25  27
ENDBRANCH   2  21
TORSDOF 8
ENDMDL
