MODEL 1
REMARK VINA RESULT:      -8.5      0.000      0.000
REMARK  3 active torsions:
REMARK  status: ('A' for Active; 'I' for Inactive)
REMARK    1  A    between atoms: C_6  and  N_7 
REMARK    2  A    between atoms: N_7  and  N_8 
REMARK    3  A    between atoms: C_9  and  C_10 
ROOT
HETATM    1  N   UNL     1     -40.803  55.287 -54.229  1.00  0.00    -0.108 N 
HETATM    2  H   UNL     1     -40.364  56.128 -53.860  1.00  0.00     0.208 HD
ENDROOT
BRANCH   1   3
HETATM    3  C   UNL     1     -40.523  54.159 -53.502  1.00  0.00     0.724 A 
HETATM    4  N   UNL     1     -40.301  53.015 -54.076  1.00  0.00    -0.062 NA
HETATM    5  C   UNL     1     -40.041  51.904 -53.253  1.00  0.00     0.091 A 
HETATM    6  C   UNL     1     -40.002  51.987 -51.858  1.00  0.00     0.062 A 
HETATM    7  C   UNL     1     -39.822  50.659 -53.849  1.00  0.00     0.033 A 
HETATM    8  C   UNL     1     -39.748  50.864 -51.064  1.00  0.00     0.019 A 
HETATM    9  C   UNL     1     -40.246  53.306 -51.252  1.00  0.00     0.272 A 
HETATM   10  C   UNL     1     -39.532  49.630 -51.675  1.00  0.00     0.001 A 
HETATM   11  C   UNL     1     -39.569  49.528 -53.066  1.00  0.00     0.002 A 
HETATM   12  N   UNL     1     -40.499  54.311 -52.143  1.00  0.00    -0.152 N 
HETATM   13  O   UNL     1     -40.226  53.480 -50.039  1.00  0.00    -0.267 OA
HETATM   14  H   UNL     1     -40.684  55.239 -51.794  1.00  0.00     0.187 HD
ENDBRANCH   1   3
BRANCH   1  15
HETATM   15  N   UNL     1     -41.425  55.279 -55.443  1.00  0.00    -0.172 NA
HETATM   16  C   UNL     1     -42.039  56.377 -55.757  1.00  0.00     0.152 C 
BRANCH  16  17
HETATM   17  C   UNL     1     -42.728  56.525 -57.062  1.00  0.00     0.003 A 
HETATM   18  C   UNL     1     -42.902  57.783 -57.683  1.00  0.00     0.025 A 
HETATM   19 BR   UNL     1     -42.306  59.415 -56.911  1.00  0.00    -0.050 Br
HETATM   20  C   UNL     1     -43.540  57.878 -58.929  1.00  0.00     0.059 A 
HETATM   21  C   UNL     1     -43.985  56.715 -59.518  1.00  0.00     0.106 A 
HETATM   22  C   UNL     1     -43.820  55.491 -58.917  1.00  0.00     0.106 A 
HETATM   23  O   UNL     1     -44.615  56.622 -60.719  1.00  0.00    -0.323 OA
HETATM   24  O   UNL     1     -44.325  54.474 -59.663  1.00  0.00    -0.323 OA
HETATM   25  C   UNL     1     -43.200  55.360 -57.694  1.00  0.00     0.054 A 
HETATM   26  C   UNL     1     -44.822  55.195 -60.810  1.00  0.00     0.352 A 
ENDBRANCH  16  17
ENDBRANCH   1  15
TORSDOF 3
ENDMDL
MODEL 2
REMARK VINA RESULT:      -8.4      2.618      8.877
REMARK  3 active torsions:
REMARK  status: ('A' for Active; 'I' for Inactive)
REMARK    1  A    between atoms: C_6  and  N_7 
REMARK    2  A    between atoms: N_7  and  N_8 
REMARK    3  A    between atoms: C_9  and  C_10 
ROOT
HETATM    1  N   UNL     1     -43.429  54.495 -56.172  1.00  0.00    -0.108 N 
HETATM    2  H   UNL     1     -43.785  53.642 -56.600  1.00  0.00     0.208 HD
ENDROOT
BRANCH   1   3
HETATM    3  C   UNL     1     -43.195  55.503 -57.071  1.00  0.00     0.724 A 
HETATM    4  N   UNL     1     -42.709  56.649 -56.701  1.00  0.00    -0.062 NA
HETATM    5  C   UNL     1     -42.519  57.634 -57.687  1.00  0.00     0.091 A 
HETATM    6  C   UNL     1     -42.820  57.424 -59.036  1.00  0.00     0.062 A 
HETATM    7  C   UNL     1     -42.018  58.882 -57.306  1.00  0.00     0.033 A 
HETATM    8  C   UNL     1     -42.629  58.425 -59.993  1.00  0.00     0.019 A 
HETATM    9  C   UNL     1     -43.357  56.107 -59.412  1.00  0.00     0.272 A 
HETATM   10  C   UNL     1     -42.128  59.664 -59.596  1.00  0.00     0.001 A 
HETATM   11  C   UNL     1     -41.823  59.892 -58.254  1.00  0.00     0.002 A 
HETATM   12  N   UNL     1     -43.511  55.230 -58.374  1.00  0.00    -0.152 N 
HETATM   13  O   UNL     1     -43.645  55.826 -60.569  1.00  0.00    -0.267 OA
HETATM   14  H   UNL     1     -43.884  54.311 -58.560  1.00  0.00     0.187 HD
ENDBRANCH   1   3
BRANCH   1  15
HETATM   15  N   UNL     1     -43.034  54.529 -54.867  1.00  0.00    -0.172 NA
HETATM   16  C   UNL     1     -42.115  53.672 -54.545  1.00  0.00     0.152 C 
BRANCH  16  17
HETATM   17  C   UNL     1     -41.563  53.619 -53.170  1.00  0.00     0.003 A 
HETATM   18  C   UNL     1     -40.554  52.700 -52.799  1.00  0.00     0.025 A 
HETATM   19 BR   UNL     1     -39.819  51.423 -53.998  1.00  0.00    -0.050 Br
HETATM   20  C   UNL     1     -40.043  52.697 -51.492  1.00  0.00     0.059 A 
HETATM   21  C   UNL     1     -40.553  53.610 -50.595  1.00  0.00     0.106 A 
HETATM   22  C   UNL     1     -41.534  54.502 -50.952  1.00  0.00     0.106 A 
HETATM   23  O   UNL     1     -40.171  53.750 -49.299  1.00  0.00    -0.323 OA
HETATM   24  O   UNL     1     -41.894  55.315 -49.924  1.00  0.00    -0.323 OA
HETATM   25  C   UNL     1     -42.061  54.533 -52.224  1.00  0.00     0.054 A 
HETATM   26  C   UNL     1     -41.022  54.840 -48.878  1.00  0.00     0.352 A 
ENDBRANCH  16  17
ENDBRANCH   1  15
TORSDOF 3
ENDMDL
MODEL 3
REMARK VINA RESULT:      -8.3      2.475      8.419
REMARK  3 active torsions:
REMARK  status: ('A' for Active; 'I' for Inactive)
REMARK    1  A    between atoms: C_6  and  N_7 
REMARK    2  A    between atoms: N_7  and  N_8 
REMARK    3  A    between atoms: C_9  and  C_10 
ROOT
HETATM    1  N   UNL     1     -41.756  56.230 -55.891  1.00  0.00    -0.108 N 
HETATM    2  H   UNL     1     -41.476  57.108 -55.457  1.00  0.00     0.208 HD
ENDROOT
BRANCH   1   3
HETATM    3  C   UNL     1     -42.702  56.380 -56.871  1.00  0.00     0.724 A 
HETATM    4  N   UNL     1     -42.928  55.451 -57.750  1.00  0.00    -0.062 NA
HETATM    5  C   UNL     1     -43.903  55.696 -58.734  1.00  0.00     0.091 A 
HETATM    6  C   UNL     1     -44.637  56.884 -58.793  1.00  0.00     0.062 A 
HETATM    7  C   UNL     1     -44.146  54.717 -59.701  1.00  0.00     0.033 A 
HETATM    8  C   UNL     1     -45.595  57.104 -59.787  1.00  0.00     0.019 A 
HETATM    9  C   UNL     1     -44.357  57.904 -57.770  1.00  0.00     0.272 A 
HETATM   10  C   UNL     1     -45.825  56.118 -60.745  1.00  0.00     0.001 A 
HETATM   11  C   UNL     1     -45.101  54.926 -60.702  1.00  0.00     0.002 A 
HETATM   12  N   UNL     1     -43.383  57.565 -56.871  1.00  0.00    -0.152 N 
HETATM   13  O   UNL     1     -44.952  58.975 -57.736  1.00  0.00    -0.267 OA
HETATM   14  H   UNL     1     -43.135  58.224 -56.148  1.00  0.00     0.187 HD
ENDBRANCH   1   3
BRANCH   1  15
HETATM   15  N   UNL     1     -41.368  55.026 -55.381  1.00  0.00    -0.172 NA
HETATM   16  C   UNL     1     -41.019  55.041 -54.131  1.00  0.00     0.152 C 
BRANCH  16  17
HETATM   17  C   UNL     1     -40.610  53.799 -53.434  1.00  0.00     0.003 A 
HETATM   18  C   UNL     1     -40.520  53.721 -52.025  1.00  0.00     0.025 A 
HETATM   19 BR   UNL     1     -40.879  55.193 -50.877  1.00  0.00    -0.050 Br
HETATM   20  C   UNL     1     -40.149  52.520 -51.402  1.00  0.00     0.059 A 
HETATM   21  C   UNL     1     -39.881  51.431 -52.203  1.00  0.00     0.106 A 
HETATM   22  C   UNL     1     -39.966  51.503 -53.571  1.00  0.00     0.106 A 
HETATM   23  O   UNL     1     -39.518  50.195 -51.770  1.00  0.00    -0.323 OA
HETATM   24  O   UNL     1     -39.666  50.322 -54.172  1.00  0.00    -0.323 OA
HETATM   25  C   UNL     1     -40.324  52.666 -54.217  1.00  0.00     0.054 A 
HETATM   26  C   UNL     1     -39.389  49.492 -53.026  1.00  0.00     0.352 A 
ENDBRANCH  16  17
ENDBRANCH   1  15
TORSDOF 3
ENDMDL
MODEL 4
REMARK VINA RESULT:      -8.3      2.548      8.472
REMARK  3 active torsions:
REMARK  status: ('A' for Active; 'I' for Inactive)
REMARK    1  A    between atoms: C_6  and  N_7 
REMARK    2  A    between atoms: N_7  and  N_8 
REMARK    3  A    between atoms: C_9  and  C_10 
ROOT
HETATM    1  N   UNL     1     -43.635  55.904 -55.230  1.00  0.00    -0.108 N 
HETATM    2  H   UNL     1     -44.423  56.367 -54.781  1.00  0.00     0.208 HD
ENDROOT
BRANCH   1   3
HETATM    3  C   UNL     1     -43.335  56.412 -56.467  1.00  0.00     0.724 A 
HETATM    4  N   UNL     1     -42.889  57.622 -56.619  1.00  0.00    -0.062 NA
HETATM    5  C   UNL     1     -42.625  58.070 -57.927  1.00  0.00     0.091 A 
HETATM    6  C   UNL     1     -42.811  57.265 -59.054  1.00  0.00     0.062 A 
HETATM    7  C   UNL     1     -42.166  59.376 -58.112  1.00  0.00     0.033 A 
HETATM    8  C   UNL     1     -42.548  57.738 -60.343  1.00  0.00     0.019 A 
HETATM    9  C   UNL     1     -43.305  55.896 -58.834  1.00  0.00     0.272 A 
HETATM   10  C   UNL     1     -42.091  59.045 -60.512  1.00  0.00     0.001 A 
HETATM   11  C   UNL     1     -41.901  59.863 -59.397  1.00  0.00     0.002 A 
HETATM   12  N   UNL     1     -43.539  55.571 -57.527  1.00  0.00    -0.152 N 
HETATM   13  O   UNL     1     -43.494  55.114 -59.759  1.00  0.00    -0.267 OA
HETATM   14  H   UNL     1     -43.888  54.651 -57.306  1.00  0.00     0.187 HD
ENDBRANCH   1   3
BRANCH   1  15
HETATM   15  N   UNL     1     -43.092  54.762 -54.721  1.00  0.00    -0.172 NA
HETATM   16  C   UNL     1     -41.907  54.892 -54.211  1.00  0.00     0.152 C 
BRANCH  16  17
HETATM   17  C   UNL     1     -41.208  53.743 -53.588  1.00  0.00     0.003 A 
HETATM   18  C   UNL     1     -40.828  53.740 -52.226  1.00  0.00     0.025 A 
HETATM   19 BR   UNL     1     -41.139  55.206 -51.057  1.00  0.00    -0.050 Br
HETATM   20  C   UNL     1     -40.188  52.623 -51.669  1.00  0.00     0.059 A 
HETATM   21  C   UNL     1     -39.946  51.541 -52.487  1.00  0.00     0.106 A 
HETATM   22  C   UNL     1     -40.312  51.540 -53.811  1.00  0.00     0.106 A 
HETATM   23  O   UNL     1     -39.346  50.380 -52.114  1.00  0.00    -0.323 OA
HETATM   24  O   UNL     1     -39.988  50.379 -54.438  1.00  0.00    -0.323 OA
HETATM   25  C   UNL     1     -40.940  52.620 -54.391  1.00  0.00     0.054 A 
HETATM   26  C   UNL     1     -39.381  49.643 -53.356  1.00  0.00     0.352 A 
ENDBRANCH  16  17
ENDBRANCH   1  15
TORSDOF 3
ENDMDL
MODEL 5
REMARK VINA RESULT:      -8.3      2.644      3.431
REMARK  3 active torsions:
REMARK  status: ('A' for Active; 'I' for Inactive)
REMARK    1  A    between atoms: C_6  and  N_7 
REMARK    2  A    between atoms: N_7  and  N_8 
REMARK    3  A    between atoms: C_9  and  C_10 
ROOT
HETATM    1  N   UNL     1     -43.861  55.313 -54.963  1.00  0.00    -0.108 N 
HETATM    2  H   UNL     1     -44.812  54.967 -54.845  1.00  0.00     0.208 HD
ENDROOT
BRANCH   1   3
HETATM    3  C   UNL     1     -42.939  54.654 -54.194  1.00  0.00     0.724 A 
HETATM    4  N   UNL     1     -42.208  53.694 -54.676  1.00  0.00    -0.062 NA
HETATM    5  C   UNL     1     -41.300  53.058 -53.810  1.00  0.00     0.091 A 
HETATM    6  C   UNL     1     -41.149  53.423 -52.469  1.00  0.00     0.062 A 
HETATM    7  C   UNL     1     -40.520  52.009 -54.304  1.00  0.00     0.033 A 
HETATM    8  C   UNL     1     -40.244  52.767 -51.629  1.00  0.00     0.019 A 
HETATM    9  C   UNL     1     -41.988  54.523 -51.969  1.00  0.00     0.272 A 
HETATM   10  C   UNL     1     -39.473  51.722 -52.137  1.00  0.00     0.001 A 
HETATM   11  C   UNL     1     -39.612  51.343 -53.473  1.00  0.00     0.002 A 
HETATM   12  N   UNL     1     -42.842  55.061 -52.892  1.00  0.00    -0.152 N 
HETATM   13  O   UNL     1     -41.924  54.918 -50.811  1.00  0.00    -0.267 OA
HETATM   14  H   UNL     1     -43.454  55.814 -52.612  1.00  0.00     0.187 HD
ENDBRANCH   1   3
BRANCH   1  15
HETATM   15  N   UNL     1     -43.598  56.455 -55.660  1.00  0.00    -0.172 NA
HETATM   16  C   UNL     1     -42.964  56.287 -56.780  1.00  0.00     0.152 C 
BRANCH  16  17
HETATM   17  C   UNL     1     -42.643  57.435 -57.660  1.00  0.00     0.003 A 
HETATM   18  C   UNL     1     -42.906  57.415 -59.049  1.00  0.00     0.025 A 
HETATM   19 BR   UNL     1     -43.666  55.920 -59.943  1.00  0.00    -0.050 Br
HETATM   20  C   UNL     1     -42.606  58.532 -59.845  1.00  0.00     0.059 A 
HETATM   21  C   UNL     1     -42.054  59.634 -59.230  1.00  0.00     0.106 A 
HETATM   22  C   UNL     1     -41.795  59.657 -57.882  1.00  0.00     0.106 A 
HETATM   23  O   UNL     1     -41.710  60.798 -59.843  1.00  0.00    -0.323 OA
HETATM   24  O   UNL     1     -41.255  60.835 -57.477  1.00  0.00    -0.323 OA
HETATM   25  C   UNL     1     -42.074  58.579 -57.071  1.00  0.00     0.054 A 
HETATM   26  C   UNL     1     -41.208  61.560 -58.723  1.00  0.00     0.352 A 
ENDBRANCH  16  17
ENDBRANCH   1  15
TORSDOF 3
ENDMDL
MODEL 6
REMARK VINA RESULT:      -7.9      4.064      4.984
REMARK  3 active torsions:
REMARK  status: ('A' for Active; 'I' for Inactive)
REMARK    1  A    between atoms: C_6  and  N_7 
REMARK    2  A    between atoms: N_7  and  N_8 
REMARK    3  A    between atoms: C_9  and  C_10 
ROOT
HETATM    1  N   UNL     1     -40.927  55.446 -54.266  1.00  0.00    -0.108 N 
HETATM    2  H   UNL     1     -40.733  55.467 -55.266  1.00  0.00     0.208 HD
ENDROOT
BRANCH   1   3
HETATM    3  C   UNL     1     -40.590  54.260 -53.668  1.00  0.00     0.724 A 
HETATM    4  N   UNL     1     -40.444  53.167 -54.353  1.00  0.00    -0.062 NA
HETATM    5  C   UNL     1     -40.117  51.989 -53.655  1.00  0.00     0.091 A 
HETATM    6  C   UNL     1     -39.933  51.956 -52.270  1.00  0.00     0.062 A 
HETATM    7  C   UNL     1     -39.977  50.798 -54.372  1.00  0.00     0.033 A 
HETATM    8  C   UNL     1     -39.616  50.770 -51.602  1.00  0.00     0.019 A 
HETATM    9  C   UNL     1     -40.096  53.221 -51.536  1.00  0.00     0.272 A 
HETATM   10  C   UNL     1     -39.480  49.589 -52.331  1.00  0.00     0.001 A 
HETATM   11  C   UNL     1     -39.661  49.604 -53.715  1.00  0.00     0.002 A 
HETATM   12  N   UNL     1     -40.425  54.299 -52.311  1.00  0.00    -0.152 N 
HETATM   13  O   UNL     1     -39.950  53.294 -50.321  1.00  0.00    -0.267 OA
HETATM   14  H   UNL     1     -40.561  55.195 -51.869  1.00  0.00     0.187 HD
ENDBRANCH   1   3
BRANCH   1  15
HETATM   15  N   UNL     1     -41.647  56.431 -53.657  1.00  0.00    -0.172 NA
HETATM   16  C   UNL     1     -42.935  56.309 -53.742  1.00  0.00     0.152 C 
BRANCH  16  17
HETATM   17  C   UNL     1     -43.843  57.286 -53.096  1.00  0.00     0.003 A 
HETATM   18  C   UNL     1     -44.276  57.142 -51.758  1.00  0.00     0.025 A 
HETATM   19 BR   UNL     1     -43.773  55.679 -50.654  1.00  0.00    -0.050 Br
HETATM   20  C   UNL     1     -45.119  58.102 -51.177  1.00  0.00     0.059 A 
HETATM   21  C   UNL     1     -45.504  59.177 -51.948  1.00  0.00     0.106 A 
HETATM   22  C   UNL     1     -45.088  59.319 -53.248  1.00  0.00     0.106 A 
HETATM   23  O   UNL     1     -46.307  60.197 -51.546  1.00  0.00    -0.323 OA
HETATM   24  O   UNL     1     -45.576  60.446 -53.829  1.00  0.00    -0.323 OA
HETATM   25  C   UNL     1     -44.262  58.396 -53.852  1.00  0.00     0.054 A 
HETATM   26  C   UNL     1     -46.344  61.005 -52.743  1.00  0.00     0.352 A 
ENDBRANCH  16  17
ENDBRANCH   1  15
TORSDOF 3
ENDMDL
MODEL 7
REMARK VINA RESULT:      -7.8      2.642      3.753
REMARK  3 active torsions:
REMARK  status: ('A' for Active; 'I' for Inactive)
REMARK    1  A    between atoms: C_6  and  N_7 
REMARK    2  A    between atoms: N_7  and  N_8 
REMARK    3  A    between atoms: C_9  and  C_10 
ROOT
HETATM    1  N   UNL     1     -43.449  54.625 -54.815  1.00  0.00    -0.108 N 
HETATM    2  H   UNL     1     -44.303  54.070 -54.810  1.00  0.00     0.208 HD
ENDROOT
BRANCH   1   3
HETATM    3  C   UNL     1     -42.620  54.364 -53.755  1.00  0.00     0.724 A 
HETATM    4  N   UNL     1     -42.760  54.967 -52.614  1.00  0.00    -0.062 NA
HETATM    5  C   UNL     1     -41.852  54.653 -51.586  1.00  0.00     0.091 A 
HETATM    6  C   UNL     1     -40.824  53.718 -51.743  1.00  0.00     0.062 A 
HETATM    7  C   UNL     1     -41.972  55.307 -50.357  1.00  0.00     0.033 A 
HETATM    8  C   UNL     1     -39.931  53.431 -50.706  1.00  0.00     0.019 A 
HETATM    9  C   UNL     1     -40.712  53.050 -53.048  1.00  0.00     0.272 A 
HETATM   10  C   UNL     1     -40.065  54.093 -49.486  1.00  0.00     0.001 A 
HETATM   11  C   UNL     1     -41.084  55.030 -49.312  1.00  0.00     0.002 A 
HETATM   12  N   UNL     1     -41.638  53.438 -53.977  1.00  0.00    -0.152 N 
HETATM   13  O   UNL     1     -39.847  52.212 -53.280  1.00  0.00    -0.267 OA
HETATM   14  H   UNL     1     -41.611  53.026 -54.897  1.00  0.00     0.187 HD
ENDBRANCH   1   3
BRANCH   1  15
HETATM   15  N   UNL     1     -43.278  55.664 -55.681  1.00  0.00    -0.172 NA
HETATM   16  C   UNL     1     -43.207  55.335 -56.934  1.00  0.00     0.152 C 
BRANCH  16  17
HETATM   17  C   UNL     1     -43.057  56.363 -57.991  1.00  0.00     0.003 A 
HETATM   18  C   UNL     1     -43.564  56.179 -59.298  1.00  0.00     0.025 A 
HETATM   19 BR   UNL     1     -44.459  54.597 -59.852  1.00  0.00    -0.050 Br
HETATM   20  C   UNL     1     -43.421  57.186 -60.264  1.00  0.00     0.059 A 
HETATM   21  C   UNL     1     -42.776  58.347 -59.897  1.00  0.00     0.106 A 
HETATM   22  C   UNL     1     -42.281  58.529 -58.630  1.00  0.00     0.106 A 
HETATM   23  O   UNL     1     -42.557  59.423 -60.699  1.00  0.00    -0.323 OA
HETATM   24  O   UNL     1     -41.687  59.741 -58.474  1.00  0.00    -0.323 OA
HETATM   25  C   UNL     1     -42.402  57.562 -57.657  1.00  0.00     0.054 A 
HETATM   26  C   UNL     1     -41.870  60.308 -59.787  1.00  0.00     0.352 A 
ENDBRANCH  16  17
ENDBRANCH   1  15
TORSDOF 3
ENDMDL
MODEL 8
REMARK VINA RESULT:      -7.8     14.334     17.727
REMARK  3 active torsions:
REMARK  status: ('A' for Active; 'I' for Inactive)
REMARK    1  A    between atoms: C_6  and  N_7 
REMARK    2  A    between atoms: N_7  and  N_8 
REMARK    3  A    between atoms: C_9  and  C_10 
ROOT
HETATM    1  N   UNL     1     -34.941  42.763 -52.610  1.00  0.00    -0.108 N 
HETATM    2  H   UNL     1     -34.655  43.736 -52.704  1.00  0.00     0.208 HD
ENDROOT
BRANCH   1   3
HETATM    3  C   UNL     1     -35.724  42.320 -53.644  1.00  0.00     0.724 A 
HETATM    4  N   UNL     1     -35.310  42.345 -54.874  1.00  0.00    -0.062 NA
HETATM    5  C   UNL     1     -36.187  41.890 -55.876  1.00  0.00     0.091 A 
HETATM    6  C   UNL     1     -37.469  41.407 -55.597  1.00  0.00     0.062 A 
HETATM    7  C   UNL     1     -35.767  41.929 -57.208  1.00  0.00     0.033 A 
HETATM    8  C   UNL     1     -38.323  40.969 -56.614  1.00  0.00     0.019 A 
HETATM    9  C   UNL     1     -37.892  41.385 -54.188  1.00  0.00     0.272 A 
HETATM   10  C   UNL     1     -37.889  41.014 -57.938  1.00  0.00     0.001 A 
HETATM   11  C   UNL     1     -36.613  41.494 -58.235  1.00  0.00     0.002 A 
HETATM   12  N   UNL     1     -36.966  41.860 -53.301  1.00  0.00    -0.152 N 
HETATM   13  O   UNL     1     -38.995  40.975 -53.844  1.00  0.00    -0.267 OA
HETATM   14  H   UNL     1     -37.196  41.883 -52.319  1.00  0.00     0.187 HD
ENDBRANCH   1   3
BRANCH   1  15
HETATM   15  N   UNL     1     -34.728  42.063 -51.459  1.00  0.00    -0.172 NA
HETATM   16  C   UNL     1     -33.955  41.028 -51.576  1.00  0.00     0.152 C 
BRANCH  16  17
HETATM   17  C   UNL     1     -33.605  40.194 -50.401  1.00  0.00     0.003 A 
HETATM   18  C   UNL     1     -34.503  39.248 -49.856  1.00  0.00     0.025 A 
HETATM   19 BR   UNL     1     -36.253  38.959 -50.540  1.00  0.00    -0.050 Br
HETATM   20  C   UNL     1     -34.126  38.462 -48.756  1.00  0.00     0.059 A 
HETATM   21  C   UNL     1     -32.864  38.645 -48.233  1.00  0.00     0.106 A 
HETATM   22  C   UNL     1     -31.990  39.564 -48.759  1.00  0.00     0.106 A 
HETATM   23  O   UNL     1     -32.334  37.969 -47.180  1.00  0.00    -0.323 OA
HETATM   24  O   UNL     1     -30.801  39.584 -48.102  1.00  0.00    -0.323 OA
HETATM   25  C   UNL     1     -32.327  40.353 -49.836  1.00  0.00     0.054 A 
HETATM   26  C   UNL     1     -31.020  38.565 -47.105  1.00  0.00     0.352 A 
ENDBRANCH  16  17
ENDBRANCH   1  15
TORSDOF 3
ENDMDL
MODEL 9
REMARK VINA RESULT:      -7.7      1.932      2.869
REMARK  3 active torsions:
REMARK  status: ('A' for Active; 'I' for Inactive)
REMARK    1  A    between atoms: C_6  and  N_7 
REMARK    2  A    between atoms: N_7  and  N_8 
REMARK    3  A    between atoms: C_9  and  C_10 
ROOT
HETATM    1  N   UNL     1     -41.274  56.523 -54.492  1.00  0.00    -0.108 N 
HETATM    2  H   UNL     1     -40.665  57.339 -54.493  1.00  0.00     0.208 HD
ENDROOT
BRANCH   1   3
HETATM    3  C   UNL     1     -41.088  55.703 -53.410  1.00  0.00     0.724 A 
HETATM    4  N   UNL     1     -41.282  56.119 -52.196  1.00  0.00    -0.062 NA
HETATM    5  C   UNL     1     -41.048  55.215 -51.143  1.00  0.00     0.091 A 
HETATM    6  C   UNL     1     -40.629  53.898 -51.354  1.00  0.00     0.062 A 
HETATM    7  C   UNL     1     -41.231  55.651 -49.828  1.00  0.00     0.033 A 
HETATM    8  C   UNL     1     -40.396  53.024 -50.288  1.00  0.00     0.019 A 
HETATM    9  C   UNL     1     -40.433  53.466 -52.747  1.00  0.00     0.272 A 
HETATM   10  C   UNL     1     -40.583  53.474 -48.982  1.00  0.00     0.001 A 
HETATM   11  C   UNL     1     -41.000  54.786 -48.752  1.00  0.00     0.002 A 
HETATM   12  N   UNL     1     -40.679  54.427 -53.688  1.00  0.00    -0.152 N 
HETATM   13  O   UNL     1     -40.073  52.330 -53.033  1.00  0.00    -0.267 OA
HETATM   14  H   UNL     1     -40.554  54.200 -54.663  1.00  0.00     0.187 HD
ENDBRANCH   1   3
BRANCH   1  15
HETATM   15  N   UNL     1     -42.034  56.197 -55.576  1.00  0.00    -0.172 NA
HETATM   16  C   UNL     1     -42.770  57.158 -56.045  1.00  0.00     0.152 C 
BRANCH  16  17
HETATM   17  C   UNL     1     -43.620  56.959 -57.243  1.00  0.00     0.003 A 
HETATM   18  C   UNL     1     -44.687  57.830 -57.562  1.00  0.00     0.025 A 
HETATM   19 BR   UNL     1     -45.168  59.322 -56.488  1.00  0.00    -0.050 Br
HETATM   20  C   UNL     1     -45.455  57.619 -58.717  1.00  0.00     0.059 A 
HETATM   21  C   UNL     1     -45.135  56.546 -59.520  1.00  0.00     0.106 A 
HETATM   22  C   UNL     1     -44.101  55.697 -59.213  1.00  0.00     0.106 A 
HETATM   23  O   UNL     1     -45.765  56.200 -60.673  1.00  0.00    -0.323 OA
HETATM   24  O   UNL     1     -43.950  54.709 -60.133  1.00  0.00    -0.323 OA
HETATM   25  C   UNL     1     -43.327  55.872 -58.086  1.00  0.00     0.054 A 
HETATM   26  C   UNL     1     -45.004  55.035 -61.062  1.00  0.00     0.352 A 
ENDBRANCH  16  17
ENDBRANCH   1  15
TORSDOF 3
ENDMDL
MODEL 10
REMARK VINA RESULT:      -7.7      3.153      3.984
REMARK  3 active torsions:
REMARK  status: ('A' for Active; 'I' for Inactive)
REMARK    1  A    between atoms: C_6  and  N_7 
REMARK    2  A    between atoms: N_7  and  N_8 
REMARK    3  A    between atoms: C_9  and  C_10 
ROOT
HETATM    1  N   UNL     1     -40.913  54.649 -55.458  1.00  0.00    -0.108 N 
HETATM    2  H   UNL     1     -40.795  54.280 -56.400  1.00  0.00     0.208 HD
ENDROOT
BRANCH   1   3
HETATM    3  C   UNL     1     -40.604  53.747 -54.474  1.00  0.00     0.724 A 
HETATM    4  N   UNL     1     -40.331  52.507 -54.745  1.00  0.00    -0.062 NA
HETATM    5  C   UNL     1     -40.044  51.644 -53.671  1.00  0.00     0.091 A 
HETATM    6  C   UNL     1     -40.032  52.070 -52.340  1.00  0.00     0.062 A 
HETATM    7  C   UNL     1     -39.769  50.300 -53.941  1.00  0.00     0.033 A 
HETATM    8  C   UNL     1     -39.750  51.188 -51.292  1.00  0.00     0.019 A 
HETATM    9  C   UNL     1     -40.334  53.486 -52.080  1.00  0.00     0.272 A 
HETATM   10  C   UNL     1     -39.478  49.851 -51.578  1.00  0.00     0.001 A 
HETATM   11  C   UNL     1     -39.488  49.408 -52.901  1.00  0.00     0.002 A 
HETATM   12  N   UNL     1     -40.609  54.230 -53.194  1.00  0.00    -0.152 N 
HETATM   13  O   UNL     1     -40.342  53.954 -50.948  1.00  0.00    -0.267 OA
HETATM   14  H   UNL     1     -40.834  55.208 -53.086  1.00  0.00     0.187 HD
ENDBRANCH   1   3
BRANCH   1  15
HETATM   15  N   UNL     1     -41.522  55.848 -55.232  1.00  0.00    -0.172 NA
HETATM   16  C   UNL     1     -42.813  55.799 -55.111  1.00  0.00     0.152 C 
BRANCH  16  17
HETATM   17  C   UNL     1     -43.604  57.020 -54.827  1.00  0.00     0.003 A 
HETATM   18  C   UNL     1     -44.117  57.842 -55.857  1.00  0.00     0.025 A 
HETATM   19 BR   UNL     1     -43.830  57.496 -57.703  1.00  0.00    -0.050 Br
HETATM   20  C   UNL     1     -44.880  58.977 -55.546  1.00  0.00     0.059 A 
HETATM   21  C   UNL     1     -45.109  59.259 -54.216  1.00  0.00     0.106 A 
HETATM   22  C   UNL     1     -44.611  58.465 -53.213  1.00  0.00     0.106 A 
HETATM   23  O   UNL     1     -45.828  60.308 -53.738  1.00  0.00    -0.323 OA
HETATM   24  O   UNL     1     -44.953  58.914 -51.978  1.00  0.00    -0.323 OA
HETATM   25  C   UNL     1     -43.856  57.344 -53.481  1.00  0.00     0.054 A 
HETATM   26  C   UNL     1     -45.731  60.080 -52.315  1.00  0.00     0.352 A 
ENDBRANCH  16  17
ENDBRANCH   1  15
TORSDOF 3
ENDMDL
