MODEL 1
REMARK VINA RESULT:      -8.6      0.000      0.000
REMARK  7 active torsions:
REMARK  status: ('A' for Active; 'I' for Inactive)
REMARK    1  A    between atoms: O_2  and  C_3 
REMARK    2  A    between atoms: C_6  and  C_7 
REMARK    3  A    between atoms: C_11  and  C_12 
REMARK       I    between atoms: C_12  and  N_13 
REMARK    4  A    between atoms: N_13  and  N_14 
REMARK       I    between atoms: N_14  and  C_15 
REMARK    5  A    between atoms: C_15  and  C_16 
REMARK    6  A    between atoms: C_16  and  C_17 
REMARK    7  A    between atoms: C_17  and  C_18 
ROOT
HETATM    1  C   UNL     1     -43.219  56.407 -57.995  1.00  0.00     0.288 C 
HETATM    2  N   UNL     1     -43.141  55.305 -57.173  1.00  0.00    -0.262 N 
HETATM    3  O   UNL     1     -42.377  57.304 -57.955  1.00  0.00    -0.264 OA
HETATM    4  H   UNL     1     -43.797  54.527 -57.195  1.00  0.00     0.190 HD
ENDROOT
BRANCH   1   5
HETATM    5  C   UNL     1     -44.331  56.430 -58.903  1.00  0.00     0.121 A 
HETATM    6  N   UNL     1     -44.809  55.288 -59.481  1.00  0.00    -0.272 N 
HETATM    7  N   UNL     1     -45.879  55.474 -60.264  1.00  0.00    -0.174 NA
HETATM    8  H   UNL     1     -44.446  54.346 -59.361  1.00  0.00     0.189 HD
HETATM    9  C   UNL     1     -46.109  56.795 -60.220  1.00  0.00     0.089 A 
HETATM   10  C   UNL     1     -45.149  57.433 -59.384  1.00  0.00     0.071 A 
BRANCH   9  11
HETATM   11  C   UNL     1     -47.233  57.407 -60.934  1.00  0.00    -0.005 A 
HETATM   12  C   UNL     1     -47.509  58.773 -60.783  1.00  0.00     0.016 A 
HETATM   13  C   UNL     1     -48.551  59.384 -61.492  1.00  0.00     0.037 A 
HETATM   14  C   UNL     1     -49.338  58.633 -62.362  1.00  0.00     0.068 A 
HETATM   15  C   UNL     1     -49.087  57.266 -62.499  1.00  0.00     0.037 A 
HETATM   16  C   UNL     1     -48.043  56.656 -61.795  1.00  0.00     0.016 A 
BRANCH  14  17
HETATM   17  O   UNL     1     -50.373  59.105 -63.121  1.00  0.00    -0.356 OA
HETATM   18  C   UNL     1     -51.654  59.131 -62.503  1.00  0.00     0.210 C 
ENDBRANCH  14  17
ENDBRANCH   9  11
ENDBRANCH   1   5
BRANCH   2  19
HETATM   19  N   UNL     1     -42.048  55.179 -56.311  1.00  0.00    -0.267 N 
HETATM   20  C   UNL     1     -42.264  54.649 -55.060  1.00  0.00     0.236 C 
HETATM   21  O   UNL     1     -43.385  54.368 -54.639  1.00  0.00    -0.272 OA
HETATM   22  H   UNL     1     -41.124  55.290 -56.727  1.00  0.00     0.190 HD
BRANCH  20  23
HETATM   23  C   UNL     1     -41.010  54.448 -54.244  1.00  0.00     0.109 C 
BRANCH  23  24
HETATM   24  C   UNL     1     -40.226  53.236 -54.737  1.00  0.00     0.048 C 
BRANCH  24  25
HETATM   25  C   UNL     1     -40.018  52.218 -53.643  1.00  0.00    -0.058 A 
HETATM   26  C   UNL     1     -40.002  52.614 -52.296  1.00  0.00     0.010 A 
HETATM   27  C   UNL     1     -39.799  51.670 -51.288  1.00  0.00     0.043 A 
HETATM   28  C   UNL     1     -39.609  50.335 -51.624  1.00  0.00     0.116 A 
HETATM   29  F   UNL     1     -39.413  49.432 -50.655  1.00  0.00    -0.206 F 
HETATM   30  C   UNL     1     -39.618  49.925 -52.952  1.00  0.00     0.043 A 
HETATM   31  C   UNL     1     -39.824  50.865 -53.962  1.00  0.00     0.010 A 
ENDBRANCH  24  25
ENDBRANCH  23  24
ENDBRANCH  20  23
ENDBRANCH   2  19
TORSDOF 7
ENDMDL
MODEL 2
REMARK VINA RESULT:      -8.5      8.206     11.959
REMARK  7 active torsions:
REMARK  status: ('A' for Active; 'I' for Inactive)
REMARK    1  A    between atoms: O_2  and  C_3 
REMARK    2  A    between atoms: C_6  and  C_7 
REMARK    3  A    between atoms: C_11  and  C_12 
REMARK       I    between atoms: C_12  and  N_13 
REMARK    4  A    between atoms: N_13  and  N_14 
REMARK       I    between atoms: N_14  and  C_15 
REMARK    5  A    between atoms: C_15  and  C_16 
REMARK    6  A    between atoms: C_16  and  C_17 
REMARK    7  A    between atoms: C_17  and  C_18 
ROOT
HETATM    1  C   UNL     1     -42.562  58.851 -51.336  1.00  0.00     0.288 C 
HETATM    2  N   UNL     1     -43.661  59.115 -50.548  1.00  0.00    -0.262 N 
HETATM    3  O   UNL     1     -41.749  59.727 -51.625  1.00  0.00    -0.264 OA
HETATM    4  H   UNL     1     -44.341  58.414 -50.260  1.00  0.00     0.190 HD
ENDROOT
BRANCH   1   5
HETATM    5  C   UNL     1     -42.426  57.491 -51.779  1.00  0.00     0.121 A 
HETATM    6  N   UNL     1     -43.464  56.818 -52.357  1.00  0.00    -0.272 N 
HETATM    7  N   UNL     1     -43.159  55.576 -52.757  1.00  0.00    -0.174 NA
HETATM    8  H   UNL     1     -44.404  57.168 -52.518  1.00  0.00     0.189 HD
HETATM    9  C   UNL     1     -41.873  55.412 -52.412  1.00  0.00     0.089 A 
HETATM   10  C   UNL     1     -41.379  56.590 -51.783  1.00  0.00     0.071 A 
BRANCH   9  11
HETATM   11  C   UNL     1     -41.146  54.175 -52.710  1.00  0.00    -0.005 A 
HETATM   12  C   UNL     1     -40.513  53.461 -51.683  1.00  0.00     0.016 A 
HETATM   13  C   UNL     1     -39.852  52.253 -51.942  1.00  0.00     0.037 A 
HETATM   14  C   UNL     1     -39.810  51.744 -53.238  1.00  0.00     0.068 A 
HETATM   15  C   UNL     1     -40.414  52.463 -54.272  1.00  0.00     0.037 A 
HETATM   16  C   UNL     1     -41.080  53.666 -54.013  1.00  0.00     0.016 A 
BRANCH  14  17
HETATM   17  O   UNL     1     -39.212  50.577 -53.624  1.00  0.00    -0.356 OA
HETATM   18  C   UNL     1     -39.862  49.838 -54.652  1.00  0.00     0.210 C 
ENDBRANCH  14  17
ENDBRANCH   9  11
ENDBRANCH   1   5
BRANCH   2  19
HETATM   19  N   UNL     1     -43.824  60.400 -50.022  1.00  0.00    -0.267 N 
HETATM   20  C   UNL     1     -45.021  60.708 -49.419  1.00  0.00     0.236 C 
HETATM   21  O   UNL     1     -45.979  59.937 -49.405  1.00  0.00    -0.272 OA
HETATM   22  H   UNL     1     -42.980  60.963 -49.927  1.00  0.00     0.190 HD
BRANCH  20  23
HETATM   23  C   UNL     1     -45.063  62.077 -48.783  1.00  0.00     0.109 C 
BRANCH  23  24
HETATM   24  C   UNL     1     -46.072  62.117 -47.641  1.00  0.00     0.048 C 
BRANCH  24  25
HETATM   25  C   UNL     1     -45.394  62.185 -46.294  1.00  0.00    -0.058 A 
HETATM   26  C   UNL     1     -45.356  63.390 -45.576  1.00  0.00     0.010 A 
HETATM   27  C   UNL     1     -44.719  63.450 -44.335  1.00  0.00     0.043 A 
HETATM   28  C   UNL     1     -44.119  62.310 -43.815  1.00  0.00     0.116 A 
HETATM   29  F   UNL     1     -43.508  62.370 -42.625  1.00  0.00    -0.206 F 
HETATM   30  C   UNL     1     -44.144  61.108 -44.513  1.00  0.00     0.043 A 
HETATM   31  C   UNL     1     -44.783  61.044 -45.752  1.00  0.00     0.010 A 
ENDBRANCH  24  25
ENDBRANCH  23  24
ENDBRANCH  20  23
ENDBRANCH   2  19
TORSDOF 7
ENDMDL
MODEL 3
REMARK VINA RESULT:      -8.4      5.491     11.466
REMARK  7 active torsions:
REMARK  status: ('A' for Active; 'I' for Inactive)
REMARK    1  A    between atoms: O_2  and  C_3 
REMARK    2  A    between atoms: C_6  and  C_7 
REMARK    3  A    between atoms: C_11  and  C_12 
REMARK       I    between atoms: C_12  and  N_13 
REMARK    4  A    between atoms: N_13  and  N_14 
REMARK       I    between atoms: N_14  and  C_15 
REMARK    5  A    between atoms: C_15  and  C_16 
REMARK    6  A    between atoms: C_16  and  C_17 
REMARK    7  A    between atoms: C_17  and  C_18 
ROOT
HETATM    1  C   UNL     1     -42.651  57.275 -56.703  1.00  0.00     0.288 C 
HETATM    2  N   UNL     1     -41.934  57.388 -57.874  1.00  0.00    -0.262 N 
HETATM    3  O   UNL     1     -43.427  58.155 -56.332  1.00  0.00    -0.264 OA
HETATM    4  H   UNL     1     -41.307  56.671 -58.232  1.00  0.00     0.190 HD
ENDROOT
BRANCH   1   5
HETATM    5  C   UNL     1     -42.443  56.063 -55.960  1.00  0.00     0.121 A 
HETATM    6  N   UNL     1     -43.337  55.032 -56.005  1.00  0.00    -0.272 N 
HETATM    7  N   UNL     1     -42.973  53.957 -55.294  1.00  0.00    -0.174 NA
HETATM    8  H   UNL     1     -44.212  55.005 -56.521  1.00  0.00     0.189 HD
HETATM    9  C   UNL     1     -41.799  54.296 -54.740  1.00  0.00     0.089 A 
HETATM   10  C   UNL     1     -41.437  55.618 -55.125  1.00  0.00     0.071 A 
BRANCH   9  11
HETATM   11  C   UNL     1     -41.045  53.363 -53.898  1.00  0.00    -0.005 A 
HETATM   12  C   UNL     1     -40.839  53.643 -52.540  1.00  0.00     0.016 A 
HETATM   13  C   UNL     1     -40.160  52.742 -51.710  1.00  0.00     0.037 A 
HETATM   14  C   UNL     1     -39.672  51.545 -52.230  1.00  0.00     0.068 A 
HETATM   15  C   UNL     1     -39.849  51.270 -53.588  1.00  0.00     0.037 A 
HETATM   16  C   UNL     1     -40.533  52.167 -54.416  1.00  0.00     0.016 A 
BRANCH  14  17
HETATM   17  O   UNL     1     -39.005  50.577 -51.531  1.00  0.00    -0.356 OA
HETATM   18  C   UNL     1     -39.782  49.789 -50.636  1.00  0.00     0.210 C 
ENDBRANCH  14  17
ENDBRANCH   9  11
ENDBRANCH   1   5
BRANCH   2  19
HETATM   19  N   UNL     1     -42.137  58.508 -58.686  1.00  0.00    -0.267 N 
HETATM   20  C   UNL     1     -42.154  58.327 -60.050  1.00  0.00     0.236 C 
HETATM   21  O   UNL     1     -41.910  57.246 -60.582  1.00  0.00    -0.272 OA
HETATM   22  H   UNL     1     -42.467  59.353 -58.222  1.00  0.00     0.190 HD
BRANCH  20  23
HETATM   23  C   UNL     1     -42.490  59.570 -60.837  1.00  0.00     0.109 C 
BRANCH  23  24
HETATM   24  C   UNL     1     -42.451  60.808 -59.946  1.00  0.00     0.048 C 
BRANCH  24  25
HETATM   25  C   UNL     1     -41.299  61.717 -60.297  1.00  0.00    -0.058 A 
HETATM   26  C   UNL     1     -41.033  62.045 -61.636  1.00  0.00     0.010 A 
HETATM   27  C   UNL     1     -39.960  62.878 -61.956  1.00  0.00     0.043 A 
HETATM   28  C   UNL     1     -39.153  63.380 -60.942  1.00  0.00     0.116 A 
HETATM   29  F   UNL     1     -38.124  64.178 -61.252  1.00  0.00    -0.206 F 
HETATM   30  C   UNL     1     -39.399  63.064 -59.611  1.00  0.00     0.043 A 
HETATM   31  C   UNL     1     -40.473  62.234 -59.287  1.00  0.00     0.010 A 
ENDBRANCH  24  25
ENDBRANCH  23  24
ENDBRANCH  20  23
ENDBRANCH   2  19
TORSDOF 7
ENDMDL
MODEL 4
REMARK VINA RESULT:      -8.1     16.351     22.073
REMARK  7 active torsions:
REMARK  status: ('A' for Active; 'I' for Inactive)
REMARK    1  A    between atoms: O_2  and  C_3 
REMARK    2  A    between atoms: C_6  and  C_7 
REMARK    3  A    between atoms: C_11  and  C_12 
REMARK       I    between atoms: C_12  and  N_13 
REMARK    4  A    between atoms: N_13  and  N_14 
REMARK       I    between atoms: N_14  and  C_15 
REMARK    5  A    between atoms: C_15  and  C_16 
REMARK    6  A    between atoms: C_16  and  C_17 
REMARK    7  A    between atoms: C_17  and  C_18 
ROOT
HETATM    1  C   UNL     1     -33.992  39.877 -52.315  1.00  0.00     0.288 C 
HETATM    2  N   UNL     1     -33.890  41.079 -52.979  1.00  0.00    -0.262 N 
HETATM    3  O   UNL     1     -34.759  38.993 -52.692  1.00  0.00    -0.264 OA
HETATM    4  H   UNL     1     -33.247  41.824 -52.720  1.00  0.00     0.190 HD
ENDROOT
BRANCH   1   5
HETATM    5  C   UNL     1     -33.137  39.724 -51.170  1.00  0.00     0.121 A 
HETATM    6  N   UNL     1     -31.802  40.001 -51.230  1.00  0.00    -0.272 N 
HETATM    7  N   UNL     1     -31.156  39.854 -50.065  1.00  0.00    -0.174 NA
HETATM    8  H   UNL     1     -31.279  40.312 -52.044  1.00  0.00     0.189 HD
HETATM    9  C   UNL     1     -32.099  39.442 -49.203  1.00  0.00     0.089 A 
HETATM   10  C   UNL     1     -33.356  39.337 -49.862  1.00  0.00     0.071 A 
BRANCH   9  11
HETATM   11  C   UNL     1     -31.796  39.194 -47.791  1.00  0.00    -0.005 A 
HETATM   12  C   UNL     1     -30.779  39.913 -47.148  1.00  0.00     0.016 A 
HETATM   13  C   UNL     1     -30.506  39.721 -45.787  1.00  0.00     0.037 A 
HETATM   14  C   UNL     1     -31.246  38.801 -45.049  1.00  0.00     0.068 A 
HETATM   15  C   UNL     1     -32.244  38.060 -45.688  1.00  0.00     0.037 A 
HETATM   16  C   UNL     1     -32.522  38.256 -47.045  1.00  0.00     0.016 A 
BRANCH  14  17
HETATM   17  O   UNL     1     -31.092  38.526 -43.718  1.00  0.00    -0.356 OA
HETATM   18  C   UNL     1     -31.186  37.160 -43.335  1.00  0.00     0.210 C 
ENDBRANCH  14  17
ENDBRANCH   9  11
ENDBRANCH   1   5
BRANCH   2  19
HETATM   19  N   UNL     1     -34.639  41.274 -54.143  1.00  0.00    -0.267 N 
HETATM   20  C   UNL     1     -35.705  42.144 -54.092  1.00  0.00     0.236 C 
HETATM   21  O   UNL     1     -36.077  42.681 -53.050  1.00  0.00    -0.272 OA
HETATM   22  H   UNL     1     -34.232  40.928 -55.011  1.00  0.00     0.190 HD
BRANCH  20  23
HETATM   23  C   UNL     1     -36.383  42.375 -55.420  1.00  0.00     0.109 C 
BRANCH  23  24
HETATM   24  C   UNL     1     -35.397  42.206 -56.572  1.00  0.00     0.048 C 
BRANCH  24  25
HETATM   25  C   UNL     1     -36.045  41.568 -57.776  1.00  0.00    -0.058 A 
HETATM   26  C   UNL     1     -35.834  40.210 -58.064  1.00  0.00     0.010 A 
HETATM   27  C   UNL     1     -36.428  39.627 -59.184  1.00  0.00     0.043 A 
HETATM   28  C   UNL     1     -37.228  40.399 -60.018  1.00  0.00     0.116 A 
HETATM   29  F   UNL     1     -37.796  39.838 -61.093  1.00  0.00    -0.206 F 
HETATM   30  C   UNL     1     -37.447  41.746 -59.752  1.00  0.00     0.043 A 
HETATM   31  C   UNL     1     -36.857  42.331 -58.630  1.00  0.00     0.010 A 
ENDBRANCH  24  25
ENDBRANCH  23  24
ENDBRANCH  20  23
ENDBRANCH   2  19
TORSDOF 7
ENDMDL
MODEL 5
REMARK VINA RESULT:      -7.6      8.323     12.056
REMARK  7 active torsions:
REMARK  status: ('A' for Active; 'I' for Inactive)
REMARK    1  A    between atoms: O_2  and  C_3 
REMARK    2  A    between atoms: C_6  and  C_7 
REMARK    3  A    between atoms: C_11  and  C_12 
REMARK       I    between atoms: C_12  and  N_13 
REMARK    4  A    between atoms: N_13  and  N_14 
REMARK       I    between atoms: N_14  and  C_15 
REMARK    5  A    between atoms: C_15  and  C_16 
REMARK    6  A    between atoms: C_16  and  C_17 
REMARK    7  A    between atoms: C_17  and  C_18 
ROOT
HETATM    1  C   UNL     1     -43.987  58.057 -51.202  1.00  0.00     0.288 C 
HETATM    2  N   UNL     1     -43.553  59.251 -50.668  1.00  0.00    -0.262 N 
HETATM    3  O   UNL     1     -45.149  57.899 -51.575  1.00  0.00    -0.264 OA
HETATM    4  H   UNL     1     -42.596  59.433 -50.376  1.00  0.00     0.190 HD
ENDROOT
BRANCH   1   5
HETATM    5  C   UNL     1     -42.994  57.024 -51.305  1.00  0.00     0.121 A 
HETATM    6  N   UNL     1     -41.991  56.899 -50.387  1.00  0.00    -0.272 N 
HETATM    7  N   UNL     1     -41.177  55.857 -50.600  1.00  0.00    -0.174 NA
HETATM    8  H   UNL     1     -41.825  57.495 -49.581  1.00  0.00     0.189 HD
HETATM    9  C   UNL     1     -41.647  55.279 -51.716  1.00  0.00     0.089 A 
HETATM   10  C   UNL     1     -42.783  55.990 -52.197  1.00  0.00     0.071 A 
BRANCH   9  11
HETATM   11  C   UNL     1     -41.039  54.067 -52.272  1.00  0.00    -0.005 A 
HETATM   12  C   UNL     1     -41.162  53.776 -53.638  1.00  0.00     0.016 A 
HETATM   13  C   UNL     1     -40.549  52.647 -54.196  1.00  0.00     0.037 A 
HETATM   14  C   UNL     1     -39.806  51.787 -53.391  1.00  0.00     0.068 A 
HETATM   15  C   UNL     1     -39.700  52.054 -52.024  1.00  0.00     0.037 A 
HETATM   16  C   UNL     1     -40.307  53.185 -51.467  1.00  0.00     0.016 A 
BRANCH  14  17
HETATM   17  O   UNL     1     -39.149  50.662 -53.807  1.00  0.00    -0.356 OA
HETATM   18  C   UNL     1     -39.876  49.775 -54.648  1.00  0.00     0.210 C 
ENDBRANCH  14  17
ENDBRANCH   9  11
ENDBRANCH   1   5
BRANCH   2  19
HETATM   19  N   UNL     1     -44.445  60.325 -50.600  1.00  0.00    -0.267 N 
HETATM   20  C   UNL     1     -43.927  61.593 -50.474  1.00  0.00     0.236 C 
HETATM   21  O   UNL     1     -42.725  61.811 -50.328  1.00  0.00    -0.272 OA
HETATM   22  H   UNL     1     -45.412  60.132 -50.858  1.00  0.00     0.190 HD
BRANCH  20  23
HETATM   23  C   UNL     1     -44.958  62.694 -50.523  1.00  0.00     0.109 C 
BRANCH  23  24
HETATM   24  C   UNL     1     -46.150  62.365 -49.630  1.00  0.00     0.048 C 
BRANCH  24  25
HETATM   25  C   UNL     1     -45.818  62.527 -48.167  1.00  0.00    -0.058 A 
HETATM   26  C   UNL     1     -45.495  63.790 -47.645  1.00  0.00     0.010 A 
HETATM   27  C   UNL     1     -45.178  63.933 -46.293  1.00  0.00     0.043 A 
HETATM   28  C   UNL     1     -45.181  62.817 -45.465  1.00  0.00     0.116 A 
HETATM   29  F   UNL     1     -44.877  62.957 -44.168  1.00  0.00    -0.206 F 
HETATM   30  C   UNL     1     -45.496  61.558 -45.963  1.00  0.00     0.043 A 
HETATM   31  C   UNL     1     -45.816  61.412 -47.314  1.00  0.00     0.010 A 
ENDBRANCH  24  25
ENDBRANCH  23  24
ENDBRANCH  20  23
ENDBRANCH   2  19
TORSDOF 7
ENDMDL
MODEL 6
REMARK VINA RESULT:      -7.5      4.387     10.722
REMARK  7 active torsions:
REMARK  status: ('A' for Active; 'I' for Inactive)
REMARK    1  A    between atoms: O_2  and  C_3 
REMARK    2  A    between atoms: C_6  and  C_7 
REMARK    3  A    between atoms: C_11  and  C_12 
REMARK       I    between atoms: C_12  and  N_13 
REMARK    4  A    between atoms: N_13  and  N_14 
REMARK       I    between atoms: N_14  and  C_15 
REMARK    5  A    between atoms: C_15  and  C_16 
REMARK    6  A    between atoms: C_16  and  C_17 
REMARK    7  A    between atoms: C_17  and  C_18 
ROOT
HETATM    1  C   UNL     1     -42.682  57.596 -56.003  1.00  0.00     0.288 C 
HETATM    2  N   UNL     1     -42.649  58.925 -55.644  1.00  0.00    -0.262 N 
HETATM    3  O   UNL     1     -43.235  57.219 -57.036  1.00  0.00    -0.264 OA
HETATM    4  H   UNL     1     -42.177  59.283 -54.816  1.00  0.00     0.190 HD
ENDROOT
BRANCH   1   5
HETATM    5  C   UNL     1     -42.023  56.691 -55.103  1.00  0.00     0.121 A 
HETATM    6  N   UNL     1     -41.516  57.111 -53.907  1.00  0.00    -0.272 N 
HETATM    7  N   UNL     1     -40.975  56.136 -53.165  1.00  0.00    -0.174 NA
HETATM    8  H   UNL     1     -41.528  58.058 -53.539  1.00  0.00     0.189 HD
HETATM    9  C   UNL     1     -41.111  55.027 -53.909  1.00  0.00     0.089 A 
HETATM   10  C   UNL     1     -41.754  55.337 -55.141  1.00  0.00     0.071 A 
BRANCH   9  11
HETATM   11  C   UNL     1     -40.663  53.717 -53.428  1.00  0.00    -0.005 A 
HETATM   12  C   UNL     1     -40.477  52.658 -54.329  1.00  0.00     0.016 A 
HETATM   13  C   UNL     1     -40.007  51.412 -53.894  1.00  0.00     0.037 A 
HETATM   14  C   UNL     1     -39.720  51.206 -52.547  1.00  0.00     0.068 A 
HETATM   15  C   UNL     1     -39.927  52.247 -51.639  1.00  0.00     0.037 A 
HETATM   16  C   UNL     1     -40.391  53.493 -52.073  1.00  0.00     0.016 A 
BRANCH  14  17
HETATM   17  O   UNL     1     -39.245  50.049 -51.994  1.00  0.00    -0.356 OA
HETATM   18  C   UNL     1     -39.667  49.758 -50.667  1.00  0.00     0.210 C 
ENDBRANCH  14  17
ENDBRANCH   9  11
ENDBRANCH   1   5
BRANCH   2  19
HETATM   19  N   UNL     1     -43.209  59.873 -56.505  1.00  0.00    -0.267 N 
HETATM   20  C   UNL     1     -42.359  60.642 -57.267  1.00  0.00     0.236 C 
HETATM   21  O   UNL     1     -41.135  60.594 -57.154  1.00  0.00    -0.272 OA
HETATM   22  H   UNL     1     -44.211  59.797 -56.677  1.00  0.00     0.190 HD
BRANCH  20  23
HETATM   23  C   UNL     1     -43.057  61.555 -58.246  1.00  0.00     0.109 C 
BRANCH  23  24
HETATM   24  C   UNL     1     -42.766  61.137 -59.684  1.00  0.00     0.048 C 
BRANCH  24  25
HETATM   25  C   UNL     1     -43.119  59.691 -59.931  1.00  0.00    -0.058 A 
HETATM   26  C   UNL     1     -42.113  58.743 -60.173  1.00  0.00     0.010 A 
HETATM   27  C   UNL     1     -42.445  57.409 -60.410  1.00  0.00     0.043 A 
HETATM   28  C   UNL     1     -43.780  57.022 -60.409  1.00  0.00     0.116 A 
HETATM   29  F   UNL     1     -44.096  55.741 -60.638  1.00  0.00    -0.206 F 
HETATM   30  C   UNL     1     -44.791  57.946 -60.174  1.00  0.00     0.043 A 
HETATM   31  C   UNL     1     -44.462  59.281 -59.933  1.00  0.00     0.010 A 
ENDBRANCH  24  25
ENDBRANCH  23  24
ENDBRANCH  20  23
ENDBRANCH   2  19
TORSDOF 7
ENDMDL
MODEL 7
REMARK VINA RESULT:      -7.4      7.214      8.212
REMARK  7 active torsions:
REMARK  status: ('A' for Active; 'I' for Inactive)
REMARK    1  A    between atoms: O_2  and  C_3 
REMARK    2  A    between atoms: C_6  and  C_7 
REMARK    3  A    between atoms: C_11  and  C_12 
REMARK       I    between atoms: C_12  and  N_13 
REMARK    4  A    between atoms: N_13  and  N_14 
REMARK       I    between atoms: N_14  and  C_15 
REMARK    5  A    between atoms: C_15  and  C_16 
REMARK    6  A    between atoms: C_16  and  C_17 
REMARK    7  A    between atoms: C_17  and  C_18 
ROOT
HETATM    1  C   UNL     1     -43.720  56.927 -51.802  1.00  0.00     0.288 C 
HETATM    2  N   UNL     1     -43.331  56.412 -50.584  1.00  0.00    -0.262 N 
HETATM    3  O   UNL     1     -43.678  56.254 -52.831  1.00  0.00    -0.264 OA
HETATM    4  H   UNL     1     -43.378  56.923 -49.705  1.00  0.00     0.190 HD
ENDROOT
BRANCH   1   5
HETATM    5  C   UNL     1     -44.185  58.286 -51.783  1.00  0.00     0.121 A 
HETATM    6  N   UNL     1     -43.589  59.259 -52.533  1.00  0.00    -0.272 N 
HETATM    7  N   UNL     1     -44.172  60.461 -52.439  1.00  0.00    -0.174 NA
HETATM    8  H   UNL     1     -42.783  59.150 -53.142  1.00  0.00     0.189 HD
HETATM    9  C   UNL     1     -45.185  60.282 -51.576  1.00  0.00     0.089 A 
HETATM   10  C   UNL     1     -45.219  58.930 -51.132  1.00  0.00     0.071 A 
BRANCH   9  11
HETATM   11  C   UNL     1     -46.100  61.372 -51.225  1.00  0.00    -0.005 A 
HETATM   12  C   UNL     1     -47.048  61.826 -52.152  1.00  0.00     0.016 A 
HETATM   13  C   UNL     1     -47.960  62.836 -51.818  1.00  0.00     0.037 A 
HETATM   14  C   UNL     1     -47.933  63.410 -50.550  1.00  0.00     0.068 A 
HETATM   15  C   UNL     1     -46.974  62.982 -49.629  1.00  0.00     0.037 A 
HETATM   16  C   UNL     1     -46.066  61.970 -49.959  1.00  0.00     0.016 A 
BRANCH  14  17
HETATM   17  O   UNL     1     -48.770  64.390 -50.092  1.00  0.00    -0.356 OA
HETATM   18  C   UNL     1     -49.572  64.067 -48.963  1.00  0.00     0.210 C 
ENDBRANCH  14  17
ENDBRANCH   9  11
ENDBRANCH   1   5
BRANCH   2  19
HETATM   19  N   UNL     1     -42.932  55.074 -50.512  1.00  0.00    -0.267 N 
HETATM   20  C   UNL     1     -41.584  54.796 -50.531  1.00  0.00     0.236 C 
HETATM   21  O   UNL     1     -40.727  55.662 -50.699  1.00  0.00    -0.272 OA
HETATM   22  H   UNL     1     -43.645  54.400 -50.240  1.00  0.00     0.190 HD
BRANCH  20  23
HETATM   23  C   UNL     1     -41.247  53.338 -50.335  1.00  0.00     0.109 C 
BRANCH  23  24
HETATM   24  C   UNL     1     -39.838  53.032 -50.833  1.00  0.00     0.048 C 
BRANCH  24  25
HETATM   25  C   UNL     1     -39.848  52.050 -51.979  1.00  0.00    -0.058 A 
HETATM   26  C   UNL     1     -40.227  52.461 -53.266  1.00  0.00     0.010 A 
HETATM   27  C   UNL     1     -40.243  51.547 -54.321  1.00  0.00     0.043 A 
HETATM   28  C   UNL     1     -39.885  50.224 -54.089  1.00  0.00     0.116 A 
HETATM   29  F   UNL     1     -39.903  49.349 -55.102  1.00  0.00    -0.206 F 
HETATM   30  C   UNL     1     -39.510  49.797 -52.821  1.00  0.00     0.043 A 
HETATM   31  C   UNL     1     -39.489  50.710 -51.765  1.00  0.00     0.010 A 
ENDBRANCH  24  25
ENDBRANCH  23  24
ENDBRANCH  20  23
ENDBRANCH   2  19
TORSDOF 7
ENDMDL
MODEL 8
REMARK VINA RESULT:      -7.4      4.490     11.098
REMARK  7 active torsions:
REMARK  status: ('A' for Active; 'I' for Inactive)
REMARK    1  A    between atoms: O_2  and  C_3 
REMARK    2  A    between atoms: C_6  and  C_7 
REMARK    3  A    between atoms: C_11  and  C_12 
REMARK       I    between atoms: C_12  and  N_13 
REMARK    4  A    between atoms: N_13  and  N_14 
REMARK       I    between atoms: N_14  and  C_15 
REMARK    5  A    between atoms: C_15  and  C_16 
REMARK    6  A    between atoms: C_16  and  C_17 
REMARK    7  A    between atoms: C_17  and  C_18 
ROOT
HETATM    1  C   UNL     1     -43.250  57.351 -56.440  1.00  0.00     0.288 C 
HETATM    2  N   UNL     1     -44.230  57.104 -57.376  1.00  0.00    -0.262 N 
HETATM    3  O   UNL     1     -42.665  58.432 -56.387  1.00  0.00    -0.264 OA
HETATM    4  H   UNL     1     -44.759  56.236 -57.435  1.00  0.00     0.190 HD
ENDROOT
BRANCH   1   5
HETATM    5  C   UNL     1     -42.972  56.275 -55.530  1.00  0.00     0.121 A 
HETATM    6  N   UNL     1     -43.973  55.589 -54.903  1.00  0.00    -0.272 N 
HETATM    7  N   UNL     1     -43.549  54.585 -54.125  1.00  0.00    -0.174 NA
HETATM    8  H   UNL     1     -44.972  55.758 -54.985  1.00  0.00     0.189 HD
HETATM    9  C   UNL     1     -42.211  54.619 -54.224  1.00  0.00     0.089 A 
HETATM   10  C   UNL     1     -41.809  55.676 -55.089  1.00  0.00     0.071 A 
BRANCH   9  11
HETATM   11  C   UNL     1     -41.361  53.645 -53.532  1.00  0.00    -0.005 A 
HETATM   12  C   UNL     1     -41.177  53.726 -52.145  1.00  0.00     0.016 A 
HETATM   13  C   UNL     1     -40.405  52.778 -51.461  1.00  0.00     0.037 A 
HETATM   14  C   UNL     1     -39.801  51.735 -52.158  1.00  0.00     0.068 A 
HETATM   15  C   UNL     1     -39.957  51.662 -53.545  1.00  0.00     0.037 A 
HETATM   16  C   UNL     1     -40.733  52.605 -54.228  1.00  0.00     0.016 A 
BRANCH  14  17
HETATM   17  O   UNL     1     -39.036  50.740 -51.615  1.00  0.00    -0.356 OA
HETATM   18  C   UNL     1     -39.704  49.814 -50.767  1.00  0.00     0.210 C 
ENDBRANCH  14  17
ENDBRANCH   9  11
ENDBRANCH   1   5
BRANCH   2  19
HETATM   19  N   UNL     1     -44.604  58.128 -58.251  1.00  0.00    -0.267 N 
HETATM   20  C   UNL     1     -44.206  58.037 -59.565  1.00  0.00     0.236 C 
HETATM   21  O   UNL     1     -43.464  57.146 -59.977  1.00  0.00    -0.272 OA
HETATM   22  H   UNL     1     -45.321  58.771 -57.920  1.00  0.00     0.190 HD
BRANCH  20  23
HETATM   23  C   UNL     1     -44.749  59.127 -60.456  1.00  0.00     0.109 C 
BRANCH  23  24
HETATM   24  C   UNL     1     -44.658  60.487 -59.771  1.00  0.00     0.048 C 
BRANCH  24  25
HETATM   25  C   UNL     1     -43.279  61.088 -59.898  1.00  0.00    -0.058 A 
HETATM   26  C   UNL     1     -42.646  61.661 -58.783  1.00  0.00     0.010 A 
HETATM   27  C   UNL     1     -41.375  62.224 -58.907  1.00  0.00     0.043 A 
HETATM   28  C   UNL     1     -40.739  62.217 -60.143  1.00  0.00     0.116 A 
HETATM   29  F   UNL     1     -39.520  62.759 -60.259  1.00  0.00    -0.206 F 
HETATM   30  C   UNL     1     -41.349  61.657 -61.258  1.00  0.00     0.043 A 
HETATM   31  C   UNL     1     -42.619  61.091 -61.137  1.00  0.00     0.010 A 
ENDBRANCH  24  25
ENDBRANCH  23  24
ENDBRANCH  20  23
ENDBRANCH   2  19
TORSDOF 7
ENDMDL
MODEL 9
REMARK VINA RESULT:      -7.3      6.505      8.630
REMARK  7 active torsions:
REMARK  status: ('A' for Active; 'I' for Inactive)
REMARK    1  A    between atoms: O_2  and  C_3 
REMARK    2  A    between atoms: C_6  and  C_7 
REMARK    3  A    between atoms: C_11  and  C_12 
REMARK       I    between atoms: C_12  and  N_13 
REMARK    4  A    between atoms: N_13  and  N_14 
REMARK       I    between atoms: N_14  and  C_15 
REMARK    5  A    between atoms: C_15  and  C_16 
REMARK    6  A    between atoms: C_16  and  C_17 
REMARK    7  A    between atoms: C_17  and  C_18 
ROOT
HETATM    1  C   UNL     1     -42.011  57.696 -52.631  1.00  0.00     0.288 C 
HETATM    2  N   UNL     1     -42.359  57.283 -53.898  1.00  0.00    -0.262 N 
HETATM    3  O   UNL     1     -41.314  57.001 -51.892  1.00  0.00    -0.264 OA
HETATM    4  H   UNL     1     -42.906  57.839 -54.551  1.00  0.00     0.190 HD
ENDROOT
BRANCH   1   5
HETATM    5  C   UNL     1     -42.501  58.989 -52.241  1.00  0.00     0.121 A 
HETATM    6  N   UNL     1     -42.249  60.106 -52.984  1.00  0.00    -0.272 N 
HETATM    7  N   UNL     1     -42.817  61.223 -52.510  1.00  0.00    -0.174 NA
HETATM    8  H   UNL     1     -41.703  60.158 -53.840  1.00  0.00     0.189 HD
HETATM    9  C   UNL     1     -43.455  60.834 -51.396  1.00  0.00     0.089 A 
HETATM   10  C   UNL     1     -43.271  59.438 -51.185  1.00  0.00     0.071 A 
BRANCH   9  11
HETATM   11  C   UNL     1     -44.238  61.773 -50.588  1.00  0.00    -0.005 A 
HETATM   12  C   UNL     1     -45.048  62.735 -51.207  1.00  0.00     0.016 A 
HETATM   13  C   UNL     1     -45.837  63.611 -50.451  1.00  0.00     0.037 A 
HETATM   14  C   UNL     1     -45.824  63.541 -49.061  1.00  0.00     0.068 A 
HETATM   15  C   UNL     1     -44.999  62.604 -48.434  1.00  0.00     0.037 A 
HETATM   16  C   UNL     1     -44.214  61.724 -49.188  1.00  0.00     0.016 A 
BRANCH  14  17
HETATM   17  O   UNL     1     -46.551  64.324 -48.208  1.00  0.00    -0.356 OA
HETATM   18  C   UNL     1     -47.929  64.001 -48.066  1.00  0.00     0.210 C 
ENDBRANCH  14  17
ENDBRANCH   9  11
ENDBRANCH   1   5
BRANCH   2  19
HETATM   19  N   UNL     1     -41.861  56.066 -54.373  1.00  0.00    -0.267 N 
HETATM   20  C   UNL     1     -42.687  54.966 -54.335  1.00  0.00     0.236 C 
HETATM   21  O   UNL     1     -43.804  54.989 -53.820  1.00  0.00    -0.272 OA
HETATM   22  H   UNL     1     -40.996  56.106 -54.911  1.00  0.00     0.190 HD
BRANCH  20  23
HETATM   23  C   UNL     1     -42.103  53.728 -54.970  1.00  0.00     0.109 C 
BRANCH  23  24
HETATM   24  C   UNL     1     -40.597  53.654 -54.740  1.00  0.00     0.048 C 
BRANCH  24  25
HETATM   25  C   UNL     1     -40.232  52.570 -53.756  1.00  0.00    -0.058 A 
HETATM   26  C   UNL     1     -40.029  51.251 -54.192  1.00  0.00     0.010 A 
HETATM   27  C   UNL     1     -39.701  50.250 -53.277  1.00  0.00     0.043 A 
HETATM   28  C   UNL     1     -39.579  50.564 -51.929  1.00  0.00     0.116 A 
HETATM   29  F   UNL     1     -39.265  49.601 -51.053  1.00  0.00    -0.206 F 
HETATM   30  C   UNL     1     -39.778  51.863 -51.477  1.00  0.00     0.043 A 
HETATM   31  C   UNL     1     -40.104  52.867 -52.391  1.00  0.00     0.010 A 
ENDBRANCH  24  25
ENDBRANCH  23  24
ENDBRANCH  20  23
ENDBRANCH   2  19
TORSDOF 7
ENDMDL
MODEL 10
REMARK VINA RESULT:      -7.2      7.383     11.508
REMARK  7 active torsions:
REMARK  status: ('A' for Active; 'I' for Inactive)
REMARK    1  A    between atoms: O_2  and  C_3 
REMARK    2  A    between atoms: C_6  and  C_7 
REMARK    3  A    between atoms: C_11  and  C_12 
REMARK       I    between atoms: C_12  and  N_13 
REMARK    4  A    between atoms: N_13  and  N_14 
REMARK       I    between atoms: N_14  and  C_15 
REMARK    5  A    between atoms: C_15  and  C_16 
REMARK    6  A    between atoms: C_16  and  C_17 
REMARK    7  A    between atoms: C_17  and  C_18 
ROOT
HETATM    1  C   UNL     1     -42.533  58.871 -53.220  1.00  0.00     0.288 C 
HETATM    2  N   UNL     1     -43.197  59.098 -52.034  1.00  0.00    -0.262 N 
HETATM    3  O   UNL     1     -42.195  59.795 -53.958  1.00  0.00    -0.264 OA
HETATM    4  H   UNL     1     -43.467  58.367 -51.380  1.00  0.00     0.190 HD
ENDROOT
BRANCH   1   5
HETATM    5  C   UNL     1     -42.253  57.495 -53.523  1.00  0.00     0.121 A 
HETATM    6  N   UNL     1     -42.670  56.919 -54.688  1.00  0.00    -0.272 N 
HETATM    7  N   UNL     1     -42.287  55.644 -54.839  1.00  0.00    -0.174 NA
HETATM    8  H   UNL     1     -43.209  57.360 -55.428  1.00  0.00     0.189 HD
HETATM    9  C   UNL     1     -41.607  55.357 -53.719  1.00  0.00     0.089 A 
HETATM   10  C   UNL     1     -41.573  56.492 -52.860  1.00  0.00     0.071 A 
BRANCH   9  11
HETATM   11  C   UNL     1     -40.987  54.046 -53.507  1.00  0.00    -0.005 A 
HETATM   12  C   UNL     1     -40.588  53.651 -52.222  1.00  0.00     0.016 A 
HETATM   13  C   UNL     1     -40.036  52.384 -51.993  1.00  0.00     0.037 A 
HETATM   14  C   UNL     1     -39.870  51.493 -53.051  1.00  0.00     0.068 A 
HETATM   15  C   UNL     1     -40.240  51.888 -54.339  1.00  0.00     0.037 A 
HETATM   16  C   UNL     1     -40.798  53.151 -54.567  1.00  0.00     0.016 A 
BRANCH  14  17
HETATM   17  O   UNL     1     -39.358  50.228 -52.965  1.00  0.00    -0.356 OA
HETATM   18  C   UNL     1     -39.485  49.574 -51.708  1.00  0.00     0.210 C 
ENDBRANCH  14  17
ENDBRANCH   9  11
ENDBRANCH   1   5
BRANCH   2  19
HETATM   19  N   UNL     1     -43.442  60.416 -51.638  1.00  0.00    -0.267 N 
HETATM   20  C   UNL     1     -42.597  60.985 -50.713  1.00  0.00     0.236 C 
HETATM   21  O   UNL     1     -41.697  60.357 -50.157  1.00  0.00    -0.272 OA
HETATM   22  H   UNL     1     -44.099  60.948 -52.207  1.00  0.00     0.190 HD
BRANCH  20  23
HETATM   23  C   UNL     1     -42.872  62.442 -50.433  1.00  0.00     0.109 C 
BRANCH  23  24
HETATM   24  C   UNL     1     -44.348  62.668 -50.121  1.00  0.00     0.048 C 
BRANCH  24  25
HETATM   25  C   UNL     1     -44.620  62.636 -48.637  1.00  0.00    -0.058 A 
HETATM   26  C   UNL     1     -44.731  61.411 -47.959  1.00  0.00     0.010 A 
HETATM   27  C   UNL     1     -44.993  61.386 -46.589  1.00  0.00     0.043 A 
HETATM   28  C   UNL     1     -45.146  62.581 -45.896  1.00  0.00     0.116 A 
HETATM   29  F   UNL     1     -45.398  62.555 -44.582  1.00  0.00    -0.206 F 
HETATM   30  C   UNL     1     -45.042  63.804 -46.550  1.00  0.00     0.043 A 
HETATM   31  C   UNL     1     -44.778  63.832 -47.920  1.00  0.00     0.010 A 
ENDBRANCH  24  25
ENDBRANCH  23  24
ENDBRANCH  20  23
ENDBRANCH   2  19
TORSDOF 7
ENDMDL
