MODEL 1
REMARK VINA RESULT:      -8.2      0.000      0.000
REMARK  5 active torsions:
REMARK  status: ('A' for Active; 'I' for Inactive)
REMARK    1  A    between atoms: O_2  and  C_3 
REMARK    2  A    between atoms: C_5  and  C_6 
REMARK       I    between atoms: C_6  and  N_7 
REMARK    3  A    between atoms: N_7  and  C_8 
REMARK    4  A    between atoms: C_8  and  C_9 
REMARK       I    between atoms: C_9  and  N_10 
REMARK    5  A    between atoms: N_10  and  N_11 
ROOT
HETATM    1  C   UNL     1     -42.341  56.618 -52.177  1.00  0.00     0.255 C 
HETATM    2  N   UNL     1     -41.403  56.383 -53.170  1.00  0.00    -0.245 N 
HETATM    3  O   UNL     1     -43.361  57.294 -52.324  1.00  0.00    -0.270 OA
HETATM    4  H   UNL     1     -40.653  55.702 -53.019  1.00  0.00     0.192 HD
ENDROOT
BRANCH   1   5
HETATM    5  C   UNL     1     -42.100  55.847 -50.882  1.00  0.00     0.227 C 
BRANCH   5   6
HETATM    6  N   UNL     1     -41.739  54.448 -51.055  1.00  0.00    -0.348 N 
HETATM    7  C   UNL     1     -40.666  53.891 -50.397  1.00  0.00     0.252 C 
HETATM    8  O   UNL     1     -40.063  54.495 -49.517  1.00  0.00    -0.268 OA
HETATM    9  H   UNL     1     -42.348  53.876 -51.623  1.00  0.00     0.163 HD
BRANCH   7  10
HETATM   10  C   UNL     1     -40.266  52.510 -50.793  1.00  0.00     0.034 A 
HETATM   11  C   UNL     1     -39.862  52.289 -52.116  1.00  0.00     0.053 A 
HETATM   12  C   UNL     1     -39.554  51.001 -52.563  1.00  0.00     0.069 A 
HETATM   13  C   UNL     1     -39.619  49.930 -51.671  1.00  0.00     0.037 A 
HETATM   14  C   UNL     1     -40.019  50.140 -50.350  1.00  0.00     0.004 A 
HETATM   15  C   UNL     1     -40.353  51.424 -49.912  1.00  0.00     0.017 A 
BRANCH  12  16
HETATM   16  O   UNL     1     -39.195  50.915 -53.880  1.00  0.00    -0.356 OA
HETATM   17  C   UNL     1     -39.793  49.865 -54.630  1.00  0.00     0.210 C 
ENDBRANCH  12  16
ENDBRANCH   7  10
ENDBRANCH   5   6
ENDBRANCH   1   5
BRANCH   2  18
HETATM   18  N   UNL     1     -41.588  56.943 -54.400  1.00  0.00    -0.166 NA
HETATM   19  C   UNL     1     -42.168  56.229 -55.306  1.00  0.00     0.157 A 
HETATM   20  C   UNL     1     -42.669  54.785 -55.231  1.00  0.00     0.277 A 
HETATM   21  C   UNL     1     -42.475  56.689 -56.656  1.00  0.00     0.028 A 
HETATM   22  O   UNL     1     -42.553  54.054 -54.273  1.00  0.00    -0.266 OA
HETATM   23  N   UNL     1     -43.230  54.525 -56.465  1.00  0.00    -0.321 N 
HETATM   24  C   UNL     1     -43.115  55.632 -57.302  1.00  0.00     0.048 A 
HETATM   25  H   UNL     1     -43.647  53.637 -56.706  1.00  0.00     0.169 HD
HETATM   26  C   UNL     1     -43.542  55.750 -58.608  1.00  0.00     0.032 A 
HETATM   27  C   UNL     1     -43.305  56.971 -59.255  1.00  0.00     0.021 A 
HETATM   28  C   UNL     1     -42.656  58.031 -58.586  1.00  0.00     0.012 A 
HETATM   29 BR   UNL     1     -42.357  59.658 -59.504  1.00  0.00    -0.051 Br
HETATM   30  C   UNL     1     -42.230  57.903 -57.265  1.00  0.00     0.035 A 
ENDBRANCH   2  18
TORSDOF 5
ENDMDL
MODEL 2
REMARK VINA RESULT:      -8.1      3.853      8.346
REMARK  5 active torsions:
REMARK  status: ('A' for Active; 'I' for Inactive)
REMARK    1  A    between atoms: O_2  and  C_3 
REMARK    2  A    between atoms: C_5  and  C_6 
REMARK       I    between atoms: C_6  and  N_7 
REMARK    3  A    between atoms: N_7  and  C_8 
REMARK    4  A    between atoms: C_8  and  C_9 
REMARK       I    between atoms: C_9  and  N_10 
REMARK    5  A    between atoms: N_10  and  N_11 
ROOT
HETATM    1  C   UNL     1     -44.159  57.910 -54.117  1.00  0.00     0.255 C 
HETATM    2  N   UNL     1     -44.460  56.632 -53.674  1.00  0.00    -0.245 N 
HETATM    3  O   UNL     1     -43.206  58.582 -53.719  1.00  0.00    -0.270 OA
HETATM    4  H   UNL     1     -45.184  56.080 -54.146  1.00  0.00     0.192 HD
ENDROOT
BRANCH   1   5
HETATM    5  C   UNL     1     -45.030  58.402 -55.271  1.00  0.00     0.227 C 
BRANCH   5   6
HETATM    6  N   UNL     1     -45.095  57.510 -56.419  1.00  0.00    -0.348 N 
HETATM    7  C   UNL     1     -44.394  57.766 -57.575  1.00  0.00     0.252 C 
HETATM    8  O   UNL     1     -43.562  58.664 -57.641  1.00  0.00    -0.268 OA
HETATM    9  H   UNL     1     -45.618  56.652 -56.314  1.00  0.00     0.163 HD
BRANCH   7  10
HETATM   10  C   UNL     1     -44.681  56.898 -58.753  1.00  0.00     0.034 A 
HETATM   11  C   UNL     1     -45.986  56.882 -59.262  1.00  0.00     0.053 A 
HETATM   12  C   UNL     1     -46.332  56.028 -60.313  1.00  0.00     0.069 A 
HETATM   13  C   UNL     1     -45.357  55.206 -60.881  1.00  0.00     0.037 A 
HETATM   14  C   UNL     1     -44.053  55.217 -60.380  1.00  0.00     0.004 A 
HETATM   15  C   UNL     1     -43.716  56.051 -59.312  1.00  0.00     0.017 A 
BRANCH  12  16
HETATM   16  O   UNL     1     -47.641  56.090 -60.704  1.00  0.00    -0.356 OA
HETATM   17  C   UNL     1     -47.956  57.052 -61.705  1.00  0.00     0.210 C 
ENDBRANCH  12  16
ENDBRANCH   7  10
ENDBRANCH   5   6
ENDBRANCH   1   5
BRANCH   2  18
HETATM   18  N   UNL     1     -43.673  56.060 -52.718  1.00  0.00    -0.166 NA
HETATM   19  C   UNL     1     -42.863  55.123 -53.085  1.00  0.00     0.157 A 
HETATM   20  C   UNL     1     -42.664  54.499 -54.467  1.00  0.00     0.277 A 
HETATM   21  C   UNL     1     -41.930  54.438 -52.199  1.00  0.00     0.028 A 
HETATM   22  O   UNL     1     -43.297  54.783 -55.461  1.00  0.00    -0.266 OA
HETATM   23  N   UNL     1     -41.661  53.564 -54.309  1.00  0.00    -0.321 N 
HETATM   24  C   UNL     1     -41.233  53.522 -52.984  1.00  0.00     0.048 A 
HETATM   25  H   UNL     1     -41.316  52.991 -55.065  1.00  0.00     0.169 HD
HETATM   26  C   UNL     1     -40.262  52.709 -52.439  1.00  0.00     0.032 A 
HETATM   27  C   UNL     1     -40.008  52.843 -51.066  1.00  0.00     0.021 A 
HETATM   28  C   UNL     1     -40.723  53.775 -50.285  1.00  0.00     0.012 A 
HETATM   29 BR   UNL     1     -40.345  53.916 -48.436  1.00  0.00    -0.051 Br
HETATM   30  C   UNL     1     -41.701  54.594 -50.847  1.00  0.00     0.035 A 
ENDBRANCH   2  18
TORSDOF 5
ENDMDL
MODEL 3
REMARK VINA RESULT:      -8.1      2.954      4.222
REMARK  5 active torsions:
REMARK  status: ('A' for Active; 'I' for Inactive)
REMARK    1  A    between atoms: O_2  and  C_3 
REMARK    2  A    between atoms: C_5  and  C_6 
REMARK       I    between atoms: C_6  and  N_7 
REMARK    3  A    between atoms: N_7  and  C_8 
REMARK    4  A    between atoms: C_8  and  C_9 
REMARK       I    between atoms: C_9  and  N_10 
REMARK    5  A    between atoms: N_10  and  N_11 
ROOT
HETATM    1  C   UNL     1     -41.507  58.736 -53.950  1.00  0.00     0.255 C 
HETATM    2  N   UNL     1     -42.110  58.822 -55.194  1.00  0.00    -0.245 N 
HETATM    3  O   UNL     1     -40.596  59.470 -53.562  1.00  0.00    -0.270 OA
HETATM    4  H   UNL     1     -42.951  58.271 -55.398  1.00  0.00     0.192 HD
ENDROOT
BRANCH   1   5
HETATM    5  C   UNL     1     -42.153  57.732 -52.999  1.00  0.00     0.227 C 
BRANCH   5   6
HETATM    6  N   UNL     1     -41.447  56.467 -52.864  1.00  0.00    -0.348 N 
HETATM    7  C   UNL     1     -41.624  55.440 -53.762  1.00  0.00     0.252 C 
HETATM    8  O   UNL     1     -42.257  55.592 -54.801  1.00  0.00    -0.268 OA
HETATM    9  H   UNL     1     -40.762  56.392 -52.125  1.00  0.00     0.163 HD
BRANCH   7  10
HETATM   10  C   UNL     1     -41.006  54.125 -53.425  1.00  0.00     0.034 A 
HETATM   11  C   UNL     1     -40.910  53.764 -52.075  1.00  0.00     0.053 A 
HETATM   12  C   UNL     1     -40.268  52.581 -51.697  1.00  0.00     0.069 A 
HETATM   13  C   UNL     1     -39.746  51.737 -52.678  1.00  0.00     0.037 A 
HETATM   14  C   UNL     1     -39.839  52.089 -54.027  1.00  0.00     0.004 A 
HETATM   15  C   UNL     1     -40.456  53.284 -54.401  1.00  0.00     0.017 A 
BRANCH  12  16
HETATM   16  O   UNL     1     -40.221  52.353 -50.348  1.00  0.00    -0.356 OA
HETATM   17  C   UNL     1     -40.238  53.505 -49.513  1.00  0.00     0.210 C 
ENDBRANCH  12  16
ENDBRANCH   7  10
ENDBRANCH   5   6
ENDBRANCH   1   5
BRANCH   2  18
HETATM   18  N   UNL     1     -41.673  59.763 -56.079  1.00  0.00    -0.166 NA
HETATM   19  C   UNL     1     -41.937  59.583 -57.330  1.00  0.00     0.157 A 
HETATM   20  C   UNL     1     -42.656  58.419 -58.013  1.00  0.00     0.277 A 
HETATM   21  C   UNL     1     -41.577  60.511 -58.396  1.00  0.00     0.028 A 
HETATM   22  O   UNL     1     -43.070  57.428 -57.452  1.00  0.00    -0.266 OA
HETATM   23  N   UNL     1     -42.691  58.743 -59.354  1.00  0.00    -0.321 N 
HETATM   24  C   UNL     1     -42.057  59.961 -59.583  1.00  0.00     0.048 A 
HETATM   25  H   UNL     1     -43.112  58.149 -60.054  1.00  0.00     0.169 HD
HETATM   26  C   UNL     1     -41.880  60.605 -60.790  1.00  0.00     0.032 A 
HETATM   27  C   UNL     1     -41.198  61.830 -60.771  1.00  0.00     0.021 A 
HETATM   28  C   UNL     1     -40.717  62.372 -59.561  1.00  0.00     0.012 A 
HETATM   29 BR   UNL     1     -39.799  64.027 -59.589  1.00  0.00    -0.051 Br
HETATM   30  C   UNL     1     -40.903  61.715 -58.346  1.00  0.00     0.035 A 
ENDBRANCH   2  18
TORSDOF 5
ENDMDL
MODEL 4
REMARK VINA RESULT:      -8.0      4.342      9.495
REMARK  5 active torsions:
REMARK  status: ('A' for Active; 'I' for Inactive)
REMARK    1  A    between atoms: O_2  and  C_3 
REMARK    2  A    between atoms: C_5  and  C_6 
REMARK       I    between atoms: C_6  and  N_7 
REMARK    3  A    between atoms: N_7  and  C_8 
REMARK    4  A    between atoms: C_8  and  C_9 
REMARK       I    between atoms: C_9  and  N_10 
REMARK    5  A    between atoms: N_10  and  N_11 
ROOT
HETATM    1  C   UNL     1     -42.686  56.575 -56.871  1.00  0.00     0.255 C 
HETATM    2  N   UNL     1     -41.921  56.439 -55.723  1.00  0.00    -0.245 N 
HETATM    3  O   UNL     1     -42.972  55.651 -57.635  1.00  0.00    -0.270 OA
HETATM    4  H   UNL     1     -41.838  57.220 -55.064  1.00  0.00     0.192 HD
ENDROOT
BRANCH   1   5
HETATM    5  C   UNL     1     -43.294  57.962 -57.067  1.00  0.00     0.227 C 
BRANCH   5   6
HETATM    6  N   UNL     1     -42.613  58.801 -58.041  1.00  0.00    -0.348 N 
HETATM    7  C   UNL     1     -41.919  59.928 -57.665  1.00  0.00     0.252 C 
HETATM    8  O   UNL     1     -41.705  60.193 -56.488  1.00  0.00    -0.268 OA
HETATM    9  H   UNL     1     -42.606  58.489 -59.002  1.00  0.00     0.163 HD
BRANCH   7  10
HETATM   10  C   UNL     1     -41.426  60.820 -58.755  1.00  0.00     0.034 A 
HETATM   11  C   UNL     1     -40.605  61.900 -58.407  1.00  0.00     0.053 A 
HETATM   12  C   UNL     1     -40.179  62.814 -59.376  1.00  0.00     0.069 A 
HETATM   13  C   UNL     1     -40.552  62.628 -60.708  1.00  0.00     0.037 A 
HETATM   14  C   UNL     1     -41.370  61.553 -61.063  1.00  0.00     0.004 A 
HETATM   15  C   UNL     1     -41.817  60.657 -60.090  1.00  0.00     0.017 A 
BRANCH  12  16
HETATM   16  O   UNL     1     -39.400  63.836 -58.906  1.00  0.00    -0.356 OA
HETATM   17  C   UNL     1     -38.356  64.279 -59.765  1.00  0.00     0.210 C 
ENDBRANCH  12  16
ENDBRANCH   7  10
ENDBRANCH   5   6
ENDBRANCH   1   5
BRANCH   2  18
HETATM   18  N   UNL     1     -41.421  55.211 -55.403  1.00  0.00    -0.166 NA
HETATM   19  C   UNL     1     -41.161  54.972 -54.160  1.00  0.00     0.157 A 
HETATM   20  C   UNL     1     -41.292  55.893 -52.946  1.00  0.00     0.277 A 
HETATM   21  C   UNL     1     -40.660  53.702 -53.647  1.00  0.00     0.028 A 
HETATM   22  O   UNL     1     -41.642  57.053 -52.983  1.00  0.00    -0.266 OA
HETATM   23  N   UNL     1     -40.909  55.130 -51.862  1.00  0.00    -0.321 N 
HETATM   24  C   UNL     1     -40.534  53.852 -52.267  1.00  0.00     0.048 A 
HETATM   25  H   UNL     1     -40.896  55.483 -50.916  1.00  0.00     0.169 HD
HETATM   26  C   UNL     1     -40.082  52.817 -51.477  1.00  0.00     0.032 A 
HETATM   27  C   UNL     1     -39.755  51.613 -52.118  1.00  0.00     0.021 A 
HETATM   28  C   UNL     1     -39.888  51.478 -53.516  1.00  0.00     0.012 A 
HETATM   29 BR   UNL     1     -39.431  49.835 -54.335  1.00  0.00    -0.051 Br
HETATM   30  C   UNL     1     -40.349  52.530 -54.306  1.00  0.00     0.035 A 
ENDBRANCH   2  18
TORSDOF 5
ENDMDL
MODEL 5
REMARK VINA RESULT:      -8.0      0.921      1.056
REMARK  5 active torsions:
REMARK  status: ('A' for Active; 'I' for Inactive)
REMARK    1  A    between atoms: O_2  and  C_3 
REMARK    2  A    between atoms: C_5  and  C_6 
REMARK       I    between atoms: C_6  and  N_7 
REMARK    3  A    between atoms: N_7  and  C_8 
REMARK    4  A    between atoms: C_8  and  C_9 
REMARK       I    between atoms: C_9  and  N_10 
REMARK    5  A    between atoms: N_10  and  N_11 
ROOT
HETATM    1  C   UNL     1     -42.475  57.499 -53.036  1.00  0.00     0.255 C 
HETATM    2  N   UNL     1     -41.726  56.872 -54.019  1.00  0.00    -0.245 N 
HETATM    3  O   UNL     1     -43.242  58.442 -53.236  1.00  0.00    -0.270 OA
HETATM    4  H   UNL     1     -41.216  56.009 -53.806  1.00  0.00     0.192 HD
ENDROOT
BRANCH   1   5
HETATM    5  C   UNL     1     -42.397  56.839 -51.661  1.00  0.00     0.227 C 
BRANCH   5   6
HETATM    6  N   UNL     1     -42.001  55.438 -51.672  1.00  0.00    -0.348 N 
HETATM    7  C   UNL     1     -41.015  54.959 -50.841  1.00  0.00     0.252 C 
HETATM    8  O   UNL     1     -40.534  55.644 -49.946  1.00  0.00    -0.268 OA
HETATM    9  H   UNL     1     -42.528  54.809 -52.262  1.00  0.00     0.163 HD
BRANCH   7  10
HETATM   10  C   UNL     1     -40.554  53.559 -51.068  1.00  0.00     0.034 A 
HETATM   11  C   UNL     1     -40.245  53.166 -52.376  1.00  0.00     0.053 A 
HETATM   12  C   UNL     1     -39.885  51.845 -52.659  1.00  0.00     0.069 A 
HETATM   13  C   UNL     1     -39.802  50.917 -51.620  1.00  0.00     0.037 A 
HETATM   14  C   UNL     1     -40.107  51.300 -50.312  1.00  0.00     0.004 A 
HETATM   15  C   UNL     1     -40.493  52.614 -50.035  1.00  0.00     0.017 A 
BRANCH  12  16
HETATM   16  O   UNL     1     -39.630  51.583 -53.977  1.00  0.00    -0.356 OA
HETATM   17  C   UNL     1     -39.937  50.270 -54.431  1.00  0.00     0.210 C 
ENDBRANCH  12  16
ENDBRANCH   7  10
ENDBRANCH   5   6
ENDBRANCH   1   5
BRANCH   2  18
HETATM   18  N   UNL     1     -41.812  57.322 -55.304  1.00  0.00    -0.166 NA
HETATM   19  C   UNL     1     -42.375  56.553 -56.176  1.00  0.00     0.157 A 
HETATM   20  C   UNL     1     -42.952  55.147 -56.001  1.00  0.00     0.277 A 
HETATM   21  C   UNL     1     -42.581  56.899 -57.577  1.00  0.00     0.028 A 
HETATM   22  O   UNL     1     -42.927  54.503 -54.975  1.00  0.00    -0.266 OA
HETATM   23  N   UNL     1     -43.454  54.799 -57.238  1.00  0.00    -0.321 N 
HETATM   24  C   UNL     1     -43.235  55.816 -58.163  1.00  0.00     0.048 A 
HETATM   25  H   UNL     1     -43.900  53.912 -57.423  1.00  0.00     0.169 HD
HETATM   26  C   UNL     1     -43.581  55.830 -59.498  1.00  0.00     0.032 A 
HETATM   27  C   UNL     1     -43.247  56.974 -60.237  1.00  0.00     0.021 A 
HETATM   28  C   UNL     1     -42.584  58.061 -59.629  1.00  0.00     0.012 A 
HETATM   29 BR   UNL     1     -42.152  59.581 -60.670  1.00  0.00    -0.051 Br
HETATM   30  C   UNL     1     -42.241  58.038 -58.278  1.00  0.00     0.035 A 
ENDBRANCH   2  18
TORSDOF 5
ENDMDL
MODEL 6
REMARK VINA RESULT:      -7.9      3.306      5.358
REMARK  5 active torsions:
REMARK  status: ('A' for Active; 'I' for Inactive)
REMARK    1  A    between atoms: O_2  and  C_3 
REMARK    2  A    between atoms: C_5  and  C_6 
REMARK       I    between atoms: C_6  and  N_7 
REMARK    3  A    between atoms: N_7  and  C_8 
REMARK    4  A    between atoms: C_8  and  C_9 
REMARK       I    between atoms: C_9  and  N_10 
REMARK    5  A    between atoms: N_10  and  N_11 
ROOT
HETATM    1  C   UNL     1     -43.476  56.075 -55.376  1.00  0.00     0.255 C 
HETATM    2  N   UNL     1     -44.406  56.045 -54.349  1.00  0.00    -0.245 N 
HETATM    3  O   UNL     1     -43.063  57.103 -55.916  1.00  0.00    -0.270 OA
HETATM    4  H   UNL     1     -44.601  55.168 -53.855  1.00  0.00     0.192 HD
ENDROOT
BRANCH   1   5
HETATM    5  C   UNL     1     -42.866  54.718 -55.718  1.00  0.00     0.227 C 
BRANCH   5   6
HETATM    6  N   UNL     1     -42.296  53.996 -54.590  1.00  0.00    -0.348 N 
HETATM    7  C   UNL     1     -40.965  53.649 -54.552  1.00  0.00     0.252 C 
HETATM    8  O   UNL     1     -40.164  54.065 -55.382  1.00  0.00    -0.268 OA
HETATM    9  H   UNL     1     -42.897  53.819 -53.798  1.00  0.00     0.163 HD
BRANCH   7  10
HETATM   10  C   UNL     1     -40.528  52.745 -53.449  1.00  0.00     0.034 A 
HETATM   11  C   UNL     1     -40.646  53.203 -52.130  1.00  0.00     0.053 A 
HETATM   12  C   UNL     1     -40.178  52.432 -51.062  1.00  0.00     0.069 A 
HETATM   13  C   UNL     1     -39.617  51.179 -51.312  1.00  0.00     0.037 A 
HETATM   14  C   UNL     1     -39.498  50.713 -52.624  1.00  0.00     0.004 A 
HETATM   15  C   UNL     1     -39.940  51.497 -53.692  1.00  0.00     0.017 A 
BRANCH  12  16
HETATM   16  O   UNL     1     -40.331  53.000 -49.827  1.00  0.00    -0.356 OA
HETATM   17  C   UNL     1     -39.852  54.331 -49.681  1.00  0.00     0.210 C 
ENDBRANCH  12  16
ENDBRANCH   7  10
ENDBRANCH   5   6
ENDBRANCH   1   5
BRANCH   2  18
HETATM   18  N   UNL     1     -44.931  57.220 -53.897  1.00  0.00    -0.166 NA
HETATM   19  C   UNL     1     -44.409  57.747 -52.839  1.00  0.00     0.157 A 
HETATM   20  C   UNL     1     -43.277  57.225 -51.953  1.00  0.00     0.277 A 
HETATM   21  C   UNL     1     -44.826  59.014 -52.251  1.00  0.00     0.028 A 
HETATM   22  O   UNL     1     -42.702  56.169 -52.103  1.00  0.00    -0.266 OA
HETATM   23  N   UNL     1     -43.099  58.185 -50.978  1.00  0.00    -0.321 N 
HETATM   24  C   UNL     1     -44.005  59.230 -51.145  1.00  0.00     0.048 A 
HETATM   25  H   UNL     1     -42.409  58.107 -50.245  1.00  0.00     0.169 HD
HETATM   26  C   UNL     1     -44.143  60.358 -50.365  1.00  0.00     0.032 A 
HETATM   27  C   UNL     1     -45.140  61.274 -50.728  1.00  0.00     0.021 A 
HETATM   28  C   UNL     1     -45.963  61.041 -51.851  1.00  0.00     0.012 A 
HETATM   29 BR   UNL     1     -47.297  62.305 -52.299  1.00  0.00    -0.051 Br
HETATM   30  C   UNL     1     -45.814  59.898 -52.635  1.00  0.00     0.035 A 
ENDBRANCH   2  18
TORSDOF 5
ENDMDL
MODEL 7
REMARK VINA RESULT:      -7.7      2.945      4.504
REMARK  5 active torsions:
REMARK  status: ('A' for Active; 'I' for Inactive)
REMARK    1  A    between atoms: O_2  and  C_3 
REMARK    2  A    between atoms: C_5  and  C_6 
REMARK       I    between atoms: C_6  and  N_7 
REMARK    3  A    between atoms: N_7  and  C_8 
REMARK    4  A    between atoms: C_8  and  C_9 
REMARK       I    between atoms: C_9  and  N_10 
REMARK    5  A    between atoms: N_10  and  N_11 
ROOT
HETATM    1  C   UNL     1     -42.618  56.204 -56.079  1.00  0.00     0.255 C 
HETATM    2  N   UNL     1     -42.371  56.661 -57.363  1.00  0.00    -0.245 N 
HETATM    3  O   UNL     1     -42.747  56.930 -55.091  1.00  0.00    -0.270 OA
HETATM    4  H   UNL     1     -42.411  56.014 -58.158  1.00  0.00     0.192 HD
ENDROOT
BRANCH   1   5
HETATM    5  C   UNL     1     -42.869  54.702 -55.978  1.00  0.00     0.227 C 
BRANCH   5   6
HETATM    6  N   UNL     1     -42.285  54.056 -54.812  1.00  0.00    -0.348 N 
HETATM    7  C   UNL     1     -40.954  53.707 -54.770  1.00  0.00     0.252 C 
HETATM    8  O   UNL     1     -40.165  54.062 -55.638  1.00  0.00    -0.268 OA
HETATM    9  H   UNL     1     -42.874  53.936 -54.000  1.00  0.00     0.163 HD
BRANCH   7  10
HETATM   10  C   UNL     1     -40.503  52.879 -53.614  1.00  0.00     0.034 A 
HETATM   11  C   UNL     1     -40.345  53.505 -52.372  1.00  0.00     0.053 A 
HETATM   12  C   UNL     1     -39.848  52.796 -51.274  1.00  0.00     0.069 A 
HETATM   13  C   UNL     1     -39.538  51.443 -51.411  1.00  0.00     0.037 A 
HETATM   14  C   UNL     1     -39.694  50.810 -52.647  1.00  0.00     0.004 A 
HETATM   15  C   UNL     1     -40.164  51.526 -53.749  1.00  0.00     0.017 A 
BRANCH  12  16
HETATM   16  O   UNL     1     -39.719  53.526 -50.123  1.00  0.00    -0.356 OA
HETATM   17  C   UNL     1     -40.863  53.582 -49.280  1.00  0.00     0.210 C 
ENDBRANCH  12  16
ENDBRANCH   7  10
ENDBRANCH   5   6
ENDBRANCH   1   5
BRANCH   2  18
HETATM   18  N   UNL     1     -42.238  58.002 -57.575  1.00  0.00    -0.166 NA
HETATM   19  C   UNL     1     -42.079  58.408 -58.791  1.00  0.00     0.157 A 
HETATM   20  C   UNL     1     -41.973  57.592 -60.080  1.00  0.00     0.277 A 
HETATM   21  C   UNL     1     -41.961  59.805 -59.191  1.00  0.00     0.028 A 
HETATM   22  O   UNL     1     -41.986  56.382 -60.145  1.00  0.00    -0.266 OA
HETATM   23  N   UNL     1     -41.838  58.519 -61.093  1.00  0.00    -0.321 N 
HETATM   24  C   UNL     1     -41.825  59.813 -60.578  1.00  0.00     0.048 A 
HETATM   25  H   UNL     1     -41.746  58.264 -62.066  1.00  0.00     0.169 HD
HETATM   26  C   UNL     1     -41.695  60.995 -61.275  1.00  0.00     0.032 A 
HETATM   27  C   UNL     1     -41.703  62.184 -60.531  1.00  0.00     0.021 A 
HETATM   28  C   UNL     1     -41.840  62.159 -59.127  1.00  0.00     0.012 A 
HETATM   29 BR   UNL     1     -41.842  63.790 -58.168  1.00  0.00    -0.051 Br
HETATM   30  C   UNL     1     -41.975  60.958 -58.433  1.00  0.00     0.035 A 
ENDBRANCH   2  18
TORSDOF 5
ENDMDL
MODEL 8
REMARK VINA RESULT:      -7.7      1.867      2.624
REMARK  5 active torsions:
REMARK  status: ('A' for Active; 'I' for Inactive)
REMARK    1  A    between atoms: O_2  and  C_3 
REMARK    2  A    between atoms: C_5  and  C_6 
REMARK       I    between atoms: C_6  and  N_7 
REMARK    3  A    between atoms: N_7  and  C_8 
REMARK    4  A    between atoms: C_8  and  C_9 
REMARK       I    between atoms: C_9  and  N_10 
REMARK    5  A    between atoms: N_10  and  N_11 
ROOT
HETATM    1  C   UNL     1     -43.055  57.827 -53.338  1.00  0.00     0.255 C 
HETATM    2  N   UNL     1     -42.802  57.306 -54.597  1.00  0.00    -0.245 N 
HETATM    3  O   UNL     1     -43.092  59.030 -53.073  1.00  0.00    -0.270 OA
HETATM    4  H   UNL     1     -42.921  56.303 -54.774  1.00  0.00     0.192 HD
ENDROOT
BRANCH   1   5
HETATM    5  C   UNL     1     -43.435  56.787 -52.287  1.00  0.00     0.227 C 
BRANCH   5   6
HETATM    6  N   UNL     1     -42.828  55.477 -52.467  1.00  0.00    -0.348 N 
HETATM    7  C   UNL     1     -41.568  55.193 -51.990  1.00  0.00     0.252 C 
HETATM    8  O   UNL     1     -40.963  55.967 -51.258  1.00  0.00    -0.268 OA
HETATM    9  H   UNL     1     -43.392  54.756 -52.893  1.00  0.00     0.163 HD
BRANCH   7  10
HETATM   10  C   UNL     1     -40.965  53.891 -52.397  1.00  0.00     0.034 A 
HETATM   11  C   UNL     1     -40.709  52.939 -51.401  1.00  0.00     0.053 A 
HETATM   12  C   UNL     1     -40.071  51.734 -51.713  1.00  0.00     0.069 A 
HETATM   13  C   UNL     1     -39.715  51.466 -53.035  1.00  0.00     0.037 A 
HETATM   14  C   UNL     1     -39.968  52.408 -54.034  1.00  0.00     0.004 A 
HETATM   15  C   UNL     1     -40.581  53.623 -53.717  1.00  0.00     0.017 A 
BRANCH  12  16
HETATM   16  O   UNL     1     -39.858  50.900 -50.649  1.00  0.00    -0.356 OA
HETATM   17  C   UNL     1     -39.283  49.633 -50.947  1.00  0.00     0.210 C 
ENDBRANCH  12  16
ENDBRANCH   7  10
ENDBRANCH   5   6
ENDBRANCH   1   5
BRANCH   2  18
HETATM   18  N   UNL     1     -42.557  58.162 -55.631  1.00  0.00    -0.166 NA
HETATM   19  C   UNL     1     -42.524  57.671 -56.825  1.00  0.00     0.157 A 
HETATM   20  C   UNL     1     -42.686  56.221 -57.283  1.00  0.00     0.277 A 
HETATM   21  C   UNL     1     -42.314  58.453 -58.038  1.00  0.00     0.028 A 
HETATM   22  O   UNL     1     -42.837  55.268 -56.549  1.00  0.00    -0.266 OA
HETATM   23  N   UNL     1     -42.593  56.257 -58.660  1.00  0.00    -0.321 N 
HETATM   24  C   UNL     1     -42.371  57.557 -59.105  1.00  0.00     0.048 A 
HETATM   25  H   UNL     1     -42.664  55.433 -59.239  1.00  0.00     0.169 HD
HETATM   26  C   UNL     1     -42.211  57.987 -60.405  1.00  0.00     0.032 A 
HETATM   27  C   UNL     1     -41.989  59.357 -60.607  1.00  0.00     0.021 A 
HETATM   28  C   UNL     1     -41.934  60.250 -59.516  1.00  0.00     0.012 A 
HETATM   29 BR   UNL     1     -41.628  62.089 -59.841  1.00  0.00    -0.051 Br
HETATM   30  C   UNL     1     -42.099  59.806 -58.205  1.00  0.00     0.035 A 
ENDBRANCH   2  18
TORSDOF 5
ENDMDL
MODEL 9
REMARK VINA RESULT:      -7.7      3.667      8.251
REMARK  5 active torsions:
REMARK  status: ('A' for Active; 'I' for Inactive)
REMARK    1  A    between atoms: O_2  and  C_3 
REMARK    2  A    between atoms: C_5  and  C_6 
REMARK       I    between atoms: C_6  and  N_7 
REMARK    3  A    between atoms: N_7  and  C_8 
REMARK    4  A    between atoms: C_8  and  C_9 
REMARK       I    between atoms: C_9  and  N_10 
REMARK    5  A    between atoms: N_10  and  N_11 
ROOT
HETATM    1  C   UNL     1     -41.637  59.307 -53.881  1.00  0.00     0.255 C 
HETATM    2  N   UNL     1     -42.512  58.235 -53.802  1.00  0.00    -0.245 N 
HETATM    3  O   UNL     1     -40.476  59.294 -53.469  1.00  0.00    -0.270 OA
HETATM    4  H   UNL     1     -43.414  58.270 -54.287  1.00  0.00     0.192 HD
ENDROOT
BRANCH   1   5
HETATM    5  C   UNL     1     -42.170  60.505 -54.663  1.00  0.00     0.227 C 
BRANCH   5   6
HETATM    6  N   UNL     1     -41.950  60.450 -56.101  1.00  0.00    -0.348 N 
HETATM    7  C   UNL     1     -42.992  60.297 -56.987  1.00  0.00     0.252 C 
HETATM    8  O   UNL     1     -44.162  60.358 -56.626  1.00  0.00    -0.268 OA
HETATM    9  H   UNL     1     -41.009  60.602 -56.435  1.00  0.00     0.163 HD
BRANCH   7  10
HETATM   10  C   UNL     1     -42.641  60.058 -58.416  1.00  0.00     0.034 A 
HETATM   11  C   UNL     1     -42.722  58.750 -58.910  1.00  0.00     0.053 A 
HETATM   12  C   UNL     1     -42.328  58.455 -60.219  1.00  0.00     0.069 A 
HETATM   13  C   UNL     1     -41.880  59.482 -61.050  1.00  0.00     0.037 A 
HETATM   14  C   UNL     1     -41.798  60.790 -60.567  1.00  0.00     0.004 A 
HETATM   15  C   UNL     1     -42.165  61.078 -59.251  1.00  0.00     0.017 A 
BRANCH  12  16
HETATM   16  O   UNL     1     -42.434  57.137 -60.572  1.00  0.00    -0.356 OA
HETATM   17  C   UNL     1     -43.705  56.530 -60.371  1.00  0.00     0.210 C 
ENDBRANCH  12  16
ENDBRANCH   7  10
ENDBRANCH   5   6
ENDBRANCH   1   5
BRANCH   2  18
HETATM   18  N   UNL     1     -42.090  57.079 -53.215  1.00  0.00    -0.166 NA
HETATM   19  C   UNL     1     -41.732  56.106 -53.988  1.00  0.00     0.157 A 
HETATM   20  C   UNL     1     -41.741  56.026 -55.515  1.00  0.00     0.277 A 
HETATM   21  C   UNL     1     -41.222  54.822 -53.523  1.00  0.00     0.028 A 
HETATM   22  O   UNL     1     -42.142  56.895 -56.258  1.00  0.00    -0.266 OA
HETATM   23  N   UNL     1     -41.235  54.780 -55.822  1.00  0.00    -0.321 N 
HETATM   24  C   UNL     1     -40.935  54.071 -54.661  1.00  0.00     0.048 A 
HETATM   25  H   UNL     1     -41.124  54.447 -56.769  1.00  0.00     0.169 HD
HETATM   26  C   UNL     1     -40.427  52.793 -54.562  1.00  0.00     0.032 A 
HETATM   27  C   UNL     1     -40.213  52.284 -53.273  1.00  0.00     0.021 A 
HETATM   28  C   UNL     1     -40.509  53.057 -52.131  1.00  0.00     0.012 A 
HETATM   29 BR   UNL     1     -40.205  52.324 -50.413  1.00  0.00    -0.051 Br
HETATM   30  C   UNL     1     -41.020  54.349 -52.242  1.00  0.00     0.035 A 
ENDBRANCH   2  18
TORSDOF 5
ENDMDL
MODEL 10
REMARK VINA RESULT:      -7.7      5.463      8.693
REMARK  5 active torsions:
REMARK  status: ('A' for Active; 'I' for Inactive)
REMARK    1  A    between atoms: O_2  and  C_3 
REMARK    2  A    between atoms: C_5  and  C_6 
REMARK       I    between atoms: C_6  and  N_7 
REMARK    3  A    between atoms: N_7  and  C_8 
REMARK    4  A    between atoms: C_8  and  C_9 
REMARK       I    between atoms: C_9  and  N_10 
REMARK    5  A    between atoms: N_10  and  N_11 
ROOT
HETATM    1  C   UNL     1     -41.450  59.160 -50.782  1.00  0.00     0.255 C 
HETATM    2  N   UNL     1     -42.328  58.094 -50.897  1.00  0.00    -0.245 N 
HETATM    3  O   UNL     1     -40.227  59.074 -50.902  1.00  0.00    -0.270 OA
HETATM    4  H   UNL     1     -43.340  58.260 -50.922  1.00  0.00     0.192 HD
ENDROOT
BRANCH   1   5
HETATM    5  C   UNL     1     -42.123  60.522 -50.629  1.00  0.00     0.227 C 
BRANCH   5   6
HETATM    6  N   UNL     1     -43.156  60.588 -49.606  1.00  0.00    -0.348 N 
HETATM    7  C   UNL     1     -43.878  61.738 -49.381  1.00  0.00     0.252 C 
HETATM    8  O   UNL     1     -43.801  62.707 -50.128  1.00  0.00    -0.268 OA
HETATM    9  H   UNL     1     -43.378  59.736 -49.112  1.00  0.00     0.163 HD
BRANCH   7  10
HETATM   10  C   UNL     1     -44.771  61.759 -48.186  1.00  0.00     0.034 A 
HETATM   11  C   UNL     1     -45.468  60.589 -47.859  1.00  0.00     0.053 A 
HETATM   12  C   UNL     1     -46.379  60.574 -46.799  1.00  0.00     0.069 A 
HETATM   13  C   UNL     1     -46.571  61.729 -46.040  1.00  0.00     0.037 A 
HETATM   14  C   UNL     1     -45.878  62.900 -46.358  1.00  0.00     0.004 A 
HETATM   15  C   UNL     1     -44.989  62.921 -47.435  1.00  0.00     0.017 A 
BRANCH  12  16
HETATM   16  O   UNL     1     -47.012  59.378 -46.595  1.00  0.00    -0.356 OA
HETATM   17  C   UNL     1     -46.791  58.754 -45.335  1.00  0.00     0.210 C 
ENDBRANCH  12  16
ENDBRANCH   7  10
ENDBRANCH   5   6
ENDBRANCH   1   5
BRANCH   2  18
HETATM   18  N   UNL     1     -41.829  56.849 -51.142  1.00  0.00    -0.166 NA
HETATM   19  C   UNL     1     -42.107  56.301 -52.279  1.00  0.00     0.157 A 
HETATM   20  C   UNL     1     -42.970  56.829 -53.425  1.00  0.00     0.277 A 
HETATM   21  C   UNL     1     -41.621  54.996 -52.712  1.00  0.00     0.028 A 
HETATM   22  O   UNL     1     -43.582  57.876 -53.416  1.00  0.00    -0.266 OA
HETATM   23  N   UNL     1     -42.909  55.863 -54.408  1.00  0.00    -0.321 N 
HETATM   24  C   UNL     1     -42.127  54.788 -53.994  1.00  0.00     0.048 A 
HETATM   25  H   UNL     1     -43.391  55.943 -55.292  1.00  0.00     0.169 HD
HETATM   26  C   UNL     1     -41.844  53.633 -54.692  1.00  0.00     0.032 A 
HETATM   27  C   UNL     1     -41.032  52.681 -54.060  1.00  0.00     0.021 A 
HETATM   28  C   UNL     1     -40.528  52.908 -52.761  1.00  0.00     0.012 A 
HETATM   29 BR   UNL     1     -39.438  51.591 -51.950  1.00  0.00    -0.051 Br
HETATM   30  C   UNL     1     -40.818  54.080 -52.065  1.00  0.00     0.035 A 
ENDBRANCH   2  18
TORSDOF 5
ENDMDL
