MODEL 1
REMARK VINA RESULT:      -8.7      0.000      0.000
REMARK  7 active torsions:
REMARK  status: ('A' for Active; 'I' for Inactive)
REMARK    1  A    between atoms: O_2  and  C_3 
REMARK    2  A    between atoms: N_9  and  N_10 
REMARK       I    between atoms: N_10  and  C_11 
REMARK    3  A    between atoms: C_11  and  C_12 
REMARK    4  A    between atoms: C_12  and  C_13 
REMARK    5  A    between atoms: C_13  and  C_14 
REMARK    6  A    between atoms: C_14  and  N_15 
REMARK       I    between atoms: N_15  and  C_16 
REMARK    7  A    between atoms: C_16  and  C_17 
ROOT
HETATM    1  N   UNL     1     -41.776  58.863 -53.842  1.00  0.00    -0.246 N 
HETATM    2  C   UNL     1     -40.733  58.702 -52.940  1.00  0.00     0.237 C 
HETATM    3  O   UNL     1     -39.597  59.150 -53.061  1.00  0.00    -0.272 OA
HETATM    4  H   UNL     1     -42.721  58.648 -53.549  1.00  0.00     0.192 HD
ENDROOT
BRANCH   1   5
HETATM    5  N   UNL     1     -41.601  59.642 -54.944  1.00  0.00    -0.166 NA
HETATM    6  C   UNL     1     -41.913  59.175 -56.111  1.00  0.00     0.157 A 
HETATM    7  C   UNL     1     -42.344  57.853 -56.590  1.00  0.00     0.029 A 
HETATM    8  C   UNL     1     -41.848  60.071 -57.367  1.00  0.00     0.277 A 
HETATM    9  C   UNL     1     -42.516  56.632 -55.966  1.00  0.00     0.053 A 
HETATM   10  C   UNL     1     -42.538  57.983 -57.967  1.00  0.00     0.048 A 
HETATM   11  C   UNL     1     -42.945  55.544 -56.739  1.00  0.00     0.069 A 
HETATM   12  C   UNL     1     -43.152  55.691 -58.123  1.00  0.00     0.039 A 
HETATM   13  C   UNL     1     -42.940  56.923 -58.753  1.00  0.00     0.033 A 
HETATM   14  N   UNL     1     -42.254  59.268 -58.409  1.00  0.00    -0.321 N 
HETATM   15  H   UNL     1     -42.302  59.600 -59.360  1.00  0.00     0.169 HD
HETATM   16  O   UNL     1     -41.523  61.236 -57.417  1.00  0.00    -0.266 OA
BRANCH  11  17
HETATM   17  O   UNL     1     -43.113  54.385 -56.030  1.00  0.00    -0.356 OA
HETATM   18  C   UNL     1     -43.429  54.515 -54.649  1.00  0.00     0.210 C 
ENDBRANCH  11  17
ENDBRANCH   1   5
BRANCH   2  19
HETATM   19  C   UNL     1     -41.120  57.861 -51.744  1.00  0.00     0.106 C 
BRANCH  19  20
HETATM   20  C   UNL     1     -41.852  56.594 -52.167  1.00  0.00     0.029 C 
BRANCH  20  21
HETATM   21  C   UNL     1     -41.654  55.494 -51.128  1.00  0.00     0.123 C 
BRANCH  21  22
HETATM   22  N   UNL     1     -41.327  54.222 -51.732  1.00  0.00    -0.357 N 
HETATM   23  C   UNL     1     -40.225  53.489 -51.361  1.00  0.00     0.253 C 
HETATM   24  O   UNL     1     -39.455  53.877 -50.485  1.00  0.00    -0.268 OA
HETATM   25  H   UNL     1     -41.903  53.900 -52.502  1.00  0.00     0.162 HD
BRANCH  23  26
HETATM   26  C   UNL     1     -39.997  52.163 -52.022  1.00  0.00     0.053 A 
HETATM   27  C   UNL     1     -39.956  51.919 -53.405  1.00  0.00     0.049 A 
HETATM   28 CL   UNL     1     -40.110  53.142 -54.618  1.00  0.00    -0.083 Cl
HETATM   29  C   UNL     1     -39.756  50.614 -53.883  1.00  0.00     0.025 A 
HETATM   30  C   UNL     1     -39.587  49.547 -53.001  1.00  0.00     0.002 A 
HETATM   31  C   UNL     1     -39.611  49.777 -51.632  1.00  0.00     0.001 A 
HETATM   32  C   UNL     1     -39.814  51.072 -51.148  1.00  0.00     0.019 A 
ENDBRANCH  23  26
ENDBRANCH  21  22
ENDBRANCH  20  21
ENDBRANCH  19  20
ENDBRANCH   2  19
TORSDOF 7
ENDMDL
MODEL 2
REMARK VINA RESULT:      -8.4      1.783      2.380
REMARK  7 active torsions:
REMARK  status: ('A' for Active; 'I' for Inactive)
REMARK    1  A    between atoms: O_2  and  C_3 
REMARK    2  A    between atoms: N_9  and  N_10 
REMARK       I    between atoms: N_10  and  C_11 
REMARK    3  A    between atoms: C_11  and  C_12 
REMARK    4  A    between atoms: C_12  and  C_13 
REMARK    5  A    between atoms: C_13  and  C_14 
REMARK    6  A    between atoms: C_14  and  N_15 
REMARK       I    between atoms: N_15  and  C_16 
REMARK    7  A    between atoms: C_16  and  C_17 
ROOT
HETATM    1  N   UNL     1     -42.142  59.196 -55.224  1.00  0.00    -0.246 N 
HETATM    2  C   UNL     1     -41.516  58.964 -54.007  1.00  0.00     0.237 C 
HETATM    3  O   UNL     1     -40.475  59.485 -53.618  1.00  0.00    -0.272 OA
HETATM    4  H   UNL     1     -43.099  58.891 -55.354  1.00  0.00     0.192 HD
ENDROOT
BRANCH   1   5
HETATM    5  N   UNL     1     -41.639  60.132 -56.073  1.00  0.00    -0.166 NA
HETATM    6  C   UNL     1     -41.787  59.979 -57.351  1.00  0.00     0.157 A 
HETATM    7  C   UNL     1     -42.314  58.889 -58.185  1.00  0.00     0.029 A 
HETATM    8  C   UNL     1     -41.343  61.080 -58.339  1.00  0.00     0.277 A 
HETATM    9  C   UNL     1     -42.790  57.624 -57.897  1.00  0.00     0.053 A 
HETATM   10  C   UNL     1     -42.216  59.329 -59.507  1.00  0.00     0.048 A 
HETATM   11  C   UNL     1     -43.224  56.817 -58.958  1.00  0.00     0.069 A 
HETATM   12  C   UNL     1     -43.133  57.277 -60.285  1.00  0.00     0.039 A 
HETATM   13  C   UNL     1     -42.617  58.546 -60.570  1.00  0.00     0.033 A 
HETATM   14  N   UNL     1     -41.658  60.597 -59.589  1.00  0.00    -0.321 N 
HETATM   15  H   UNL     1     -41.469  61.116 -60.432  1.00  0.00     0.169 HD
HETATM   16  O   UNL     1     -40.839  62.146 -58.065  1.00  0.00    -0.266 OA
BRANCH  11  17
HETATM   17  O   UNL     1     -43.701  55.593 -58.573  1.00  0.00    -0.356 OA
HETATM   18  C   UNL     1     -44.214  54.750 -59.597  1.00  0.00     0.210 C 
ENDBRANCH  11  17
ENDBRANCH   1   5
BRANCH   2  19
HETATM   19  C   UNL     1     -42.243  57.942 -53.161  1.00  0.00     0.106 C 
BRANCH  19  20
HETATM   20  C   UNL     1     -41.424  56.668 -53.003  1.00  0.00     0.029 C 
BRANCH  20  21
HETATM   21  C   UNL     1     -41.956  55.575 -53.925  1.00  0.00     0.123 C 
BRANCH  21  22
HETATM   22  N   UNL     1     -41.570  54.252 -53.487  1.00  0.00    -0.357 N 
HETATM   23  C   UNL     1     -40.534  53.556 -54.064  1.00  0.00     0.253 C 
HETATM   24  O   UNL     1     -39.873  54.027 -54.988  1.00  0.00    -0.268 OA
HETATM   25  H   UNL     1     -42.132  53.806 -52.772  1.00  0.00     0.162 HD
BRANCH  23  26
HETATM   26  C   UNL     1     -40.188  52.207 -53.510  1.00  0.00     0.053 A 
HETATM   27  C   UNL     1     -39.800  51.925 -52.189  1.00  0.00     0.049 A 
HETATM   28 CL   UNL     1     -39.707  53.102 -50.925  1.00  0.00    -0.083 Cl
HETATM   29  C   UNL     1     -39.481  50.609 -51.816  1.00  0.00     0.025 A 
HETATM   30  C   UNL     1     -39.550  49.567 -52.739  1.00  0.00     0.002 A 
HETATM   31  C   UNL     1     -39.945  49.831 -54.045  1.00  0.00     0.001 A 
HETATM   32  C   UNL     1     -40.261  51.137 -54.425  1.00  0.00     0.019 A 
ENDBRANCH  23  26
ENDBRANCH  21  22
ENDBRANCH  20  21
ENDBRANCH  19  20
ENDBRANCH   2  19
TORSDOF 7
ENDMDL
MODEL 3
REMARK VINA RESULT:      -8.1      3.122      7.717
REMARK  7 active torsions:
REMARK  status: ('A' for Active; 'I' for Inactive)
REMARK    1  A    between atoms: O_2  and  C_3 
REMARK    2  A    between atoms: N_9  and  N_10 
REMARK       I    between atoms: N_10  and  C_11 
REMARK    3  A    between atoms: C_11  and  C_12 
REMARK    4  A    between atoms: C_12  and  C_13 
REMARK    5  A    between atoms: C_13  and  C_14 
REMARK    6  A    between atoms: C_14  and  N_15 
REMARK       I    between atoms: N_15  and  C_16 
REMARK    7  A    between atoms: C_16  and  C_17 
ROOT
HETATM    1  N   UNL     1     -42.632  56.849 -51.186  1.00  0.00    -0.246 N 
HETATM    2  C   UNL     1     -43.996  57.077 -51.293  1.00  0.00     0.237 C 
HETATM    3  O   UNL     1     -44.863  56.647 -50.538  1.00  0.00    -0.272 OA
HETATM    4  H   UNL     1     -41.990  57.423 -51.721  1.00  0.00     0.192 HD
ENDROOT
BRANCH   1   5
HETATM    5  N   UNL     1     -42.145  56.154 -50.123  1.00  0.00    -0.166 NA
HETATM    6  C   UNL     1     -41.465  55.071 -50.326  1.00  0.00     0.157 A 
HETATM    7  C   UNL     1     -41.158  54.278 -51.527  1.00  0.00     0.029 A 
HETATM    8  C   UNL     1     -40.791  54.325 -49.154  1.00  0.00     0.277 A 
HETATM    9  C   UNL     1     -41.534  54.389 -52.853  1.00  0.00     0.053 A 
HETATM   10  C   UNL     1     -40.366  53.212 -51.097  1.00  0.00     0.048 A 
HETATM   11  C   UNL     1     -41.052  53.437 -53.762  1.00  0.00     0.069 A 
HETATM   12  C   UNL     1     -40.242  52.375 -53.320  1.00  0.00     0.039 A 
HETATM   13  C   UNL     1     -39.896  52.251 -51.969  1.00  0.00     0.033 A 
HETATM   14  N   UNL     1     -40.154  53.247 -49.726  1.00  0.00    -0.321 N 
HETATM   15  H   UNL     1     -39.631  52.577 -49.182  1.00  0.00     0.169 HD
HETATM   16  O   UNL     1     -40.809  54.635 -47.984  1.00  0.00    -0.266 OA
BRANCH  11  17
HETATM   17  O   UNL     1     -41.456  53.643 -55.054  1.00  0.00    -0.356 OA
HETATM   18  C   UNL     1     -41.712  54.987 -55.442  1.00  0.00     0.210 C 
ENDBRANCH  11  17
ENDBRANCH   1   5
BRANCH   2  19
HETATM   19  C   UNL     1     -44.355  57.919 -52.497  1.00  0.00     0.106 C 
BRANCH  19  20
HETATM   20  C   UNL     1     -44.345  57.094 -53.777  1.00  0.00     0.029 C 
BRANCH  20  21
HETATM   21  C   UNL     1     -44.196  58.003 -54.994  1.00  0.00     0.123 C 
BRANCH  21  22
HETATM   22  N   UNL     1     -44.634  57.361 -56.214  1.00  0.00    -0.357 N 
HETATM   23  C   UNL     1     -43.922  57.441 -57.388  1.00  0.00     0.253 C 
HETATM   24  O   UNL     1     -42.864  58.064 -57.462  1.00  0.00    -0.268 OA
HETATM   25  H   UNL     1     -45.532  56.893 -56.208  1.00  0.00     0.162 HD
BRANCH  23  26
HETATM   26  C   UNL     1     -44.441  56.706 -58.586  1.00  0.00     0.053 A 
HETATM   27  C   UNL     1     -45.605  57.014 -59.311  1.00  0.00     0.049 A 
HETATM   28 CL   UNL     1     -46.638  58.361 -58.975  1.00  0.00    -0.083 Cl
HETATM   29  C   UNL     1     -45.983  56.220 -60.405  1.00  0.00     0.025 A 
HETATM   30  C   UNL     1     -45.213  55.124 -60.793  1.00  0.00     0.002 A 
HETATM   31  C   UNL     1     -44.053  54.817 -60.093  1.00  0.00     0.001 A 
HETATM   32  C   UNL     1     -43.671  55.601 -59.002  1.00  0.00     0.019 A 
ENDBRANCH  23  26
ENDBRANCH  21  22
ENDBRANCH  20  21
ENDBRANCH  19  20
ENDBRANCH   2  19
TORSDOF 7
ENDMDL
MODEL 4
REMARK VINA RESULT:      -8.1      2.308      4.141
REMARK  7 active torsions:
REMARK  status: ('A' for Active; 'I' for Inactive)
REMARK    1  A    between atoms: O_2  and  C_3 
REMARK    2  A    between atoms: N_9  and  N_10 
REMARK       I    between atoms: N_10  and  C_11 
REMARK    3  A    between atoms: C_11  and  C_12 
REMARK    4  A    between atoms: C_12  and  C_13 
REMARK    5  A    between atoms: C_13  and  C_14 
REMARK    6  A    between atoms: C_14  and  N_15 
REMARK       I    between atoms: N_15  and  C_16 
REMARK    7  A    between atoms: C_16  and  C_17 
ROOT
HETATM    1  N   UNL     1     -42.072  56.160 -56.516  1.00  0.00    -0.246 N 
HETATM    2  C   UNL     1     -42.630  56.675 -55.355  1.00  0.00     0.237 C 
HETATM    3  O   UNL     1     -43.824  56.878 -55.155  1.00  0.00    -0.272 OA
HETATM    4  H   UNL     1     -41.115  55.826 -56.499  1.00  0.00     0.192 HD
ENDROOT
BRANCH   1   5
HETATM    5  N   UNL     1     -42.880  55.755 -57.532  1.00  0.00    -0.166 NA
HETATM    6  C   UNL     1     -43.075  56.540 -58.543  1.00  0.00     0.157 A 
HETATM    7  C   UNL     1     -42.691  57.930 -58.835  1.00  0.00     0.029 A 
HETATM    8  C   UNL     1     -43.882  56.067 -59.772  1.00  0.00     0.277 A 
HETATM    9  C   UNL     1     -42.029  58.900 -58.106  1.00  0.00     0.053 A 
HETATM   10  C   UNL     1     -43.192  58.213 -60.107  1.00  0.00     0.048 A 
HETATM   11  C   UNL     1     -41.825  60.155 -58.697  1.00  0.00     0.069 A 
HETATM   12  C   UNL     1     -42.324  60.424 -59.985  1.00  0.00     0.039 A 
HETATM   13  C   UNL     1     -43.023  59.447 -60.702  1.00  0.00     0.033 A 
HETATM   14  N   UNL     1     -43.877  57.132 -60.644  1.00  0.00    -0.321 N 
HETATM   15  H   UNL     1     -44.342  57.100 -61.539  1.00  0.00     0.169 HD
HETATM   16  O   UNL     1     -44.396  54.983 -59.934  1.00  0.00    -0.266 OA
BRANCH  11  17
HETATM   17  O   UNL     1     -41.139  61.040 -57.910  1.00  0.00    -0.356 OA
HETATM   18  C   UNL     1     -40.412  62.065 -58.576  1.00  0.00     0.210 C 
ENDBRANCH  11  17
ENDBRANCH   1   5
BRANCH   2  19
HETATM   19  C   UNL     1     -41.593  57.013 -54.307  1.00  0.00     0.106 C 
BRANCH  19  20
HETATM   20  C   UNL     1     -42.214  57.748 -53.126  1.00  0.00     0.029 C 
BRANCH  20  21
HETATM   21  C   UNL     1     -42.021  56.947 -51.841  1.00  0.00     0.123 C 
BRANCH  21  22
HETATM   22  N   UNL     1     -41.275  55.729 -52.061  1.00  0.00    -0.357 N 
HETATM   23  C   UNL     1     -41.886  54.508 -52.225  1.00  0.00     0.253 C 
HETATM   24  O   UNL     1     -43.109  54.387 -52.197  1.00  0.00    -0.268 OA
HETATM   25  H   UNL     1     -40.263  55.779 -52.026  1.00  0.00     0.162 HD
BRANCH  23  26
HETATM   26  C   UNL     1     -41.023  53.310 -52.487  1.00  0.00     0.053 A 
HETATM   27  C   UNL     1     -40.277  52.598 -51.534  1.00  0.00     0.049 A 
HETATM   28 CL   UNL     1     -40.265  52.950 -49.840  1.00  0.00    -0.083 Cl
HETATM   29  C   UNL     1     -39.491  51.504 -51.930  1.00  0.00     0.025 A 
HETATM   30  C   UNL     1     -39.444  51.103 -53.264  1.00  0.00     0.002 A 
HETATM   31  C   UNL     1     -40.188  51.791 -54.215  1.00  0.00     0.001 A 
HETATM   32  C   UNL     1     -40.969  52.882 -53.829  1.00  0.00     0.019 A 
ENDBRANCH  23  26
ENDBRANCH  21  22
ENDBRANCH  20  21
ENDBRANCH  19  20
ENDBRANCH   2  19
TORSDOF 7
ENDMDL
MODEL 5
REMARK VINA RESULT:      -7.7     15.306     18.057
REMARK  7 active torsions:
REMARK  status: ('A' for Active; 'I' for Inactive)
REMARK    1  A    between atoms: O_2  and  C_3 
REMARK    2  A    between atoms: N_9  and  N_10 
REMARK       I    between atoms: N_10  and  C_11 
REMARK    3  A    between atoms: C_11  and  C_12 
REMARK    4  A    between atoms: C_12  and  C_13 
REMARK    5  A    between atoms: C_13  and  C_14 
REMARK    6  A    between atoms: C_14  and  N_15 
REMARK       I    between atoms: N_15  and  C_16 
REMARK    7  A    between atoms: C_16  and  C_17 
ROOT
HETATM    1  N   UNL     1     -32.842  40.864 -53.069  1.00  0.00    -0.246 N 
HETATM    2  C   UNL     1     -32.576  40.330 -51.816  1.00  0.00     0.237 C 
HETATM    3  O   UNL     1     -31.625  39.611 -51.522  1.00  0.00    -0.272 OA
HETATM    4  H   UNL     1     -33.517  41.613 -53.155  1.00  0.00     0.192 HD
ENDROOT
BRANCH   1   5
HETATM    5  N   UNL     1     -31.961  40.666 -54.087  1.00  0.00    -0.166 NA
HETATM    6  C   UNL     1     -32.220  39.776 -54.991  1.00  0.00     0.157 A 
HETATM    7  C   UNL     1     -33.271  38.758 -55.137  1.00  0.00     0.029 A 
HETATM    8  C   UNL     1     -31.309  39.612 -56.227  1.00  0.00     0.277 A 
HETATM    9  C   UNL     1     -34.323  38.364 -54.332  1.00  0.00     0.053 A 
HETATM   10  C   UNL     1     -33.013  38.103 -56.343  1.00  0.00     0.048 A 
HETATM   11  C   UNL     1     -35.157  37.330 -54.784  1.00  0.00     0.069 A 
HETATM   12  C   UNL     1     -34.895  36.687 -56.007  1.00  0.00     0.039 A 
HETATM   13  C   UNL     1     -33.806  37.070 -56.799  1.00  0.00     0.033 A 
HETATM   14  N   UNL     1     -31.880  38.604 -56.970  1.00  0.00    -0.321 N 
HETATM   15  H   UNL     1     -31.484  38.281 -57.840  1.00  0.00     0.169 HD
HETATM   16  O   UNL     1     -30.313  40.248 -56.490  1.00  0.00    -0.266 OA
BRANCH  11  17
HETATM   17  O   UNL     1     -36.185  37.028 -53.931  1.00  0.00    -0.356 OA
HETATM   18  C   UNL     1     -35.833  36.658 -52.604  1.00  0.00     0.210 C 
ENDBRANCH  11  17
ENDBRANCH   1   5
BRANCH   2  19
HETATM   19  C   UNL     1     -33.624  40.699 -50.789  1.00  0.00     0.106 C 
BRANCH  19  20
HETATM   20  C   UNL     1     -34.853  39.806 -50.901  1.00  0.00     0.029 C 
BRANCH  20  21
HETATM   21  C   UNL     1     -36.081  40.635 -51.266  1.00  0.00     0.123 C 
BRANCH  21  22
HETATM   22  N   UNL     1     -36.271  40.732 -52.696  1.00  0.00    -0.357 N 
HETATM   23  C   UNL     1     -35.990  41.878 -53.403  1.00  0.00     0.253 C 
HETATM   24  O   UNL     1     -35.555  42.887 -52.853  1.00  0.00    -0.268 OA
HETATM   25  H   UNL     1     -36.688  39.942 -53.175  1.00  0.00     0.162 HD
BRANCH  23  26
HETATM   26  C   UNL     1     -36.185  41.863 -54.889  1.00  0.00     0.053 A 
HETATM   27  C   UNL     1     -37.387  41.602 -55.568  1.00  0.00     0.049 A 
HETATM   28 CL   UNL     1     -38.903  41.301 -54.791  1.00  0.00    -0.083 Cl
HETATM   29  C   UNL     1     -37.415  41.598 -56.972  1.00  0.00     0.025 A 
HETATM   30  C   UNL     1     -36.262  41.859 -57.711  1.00  0.00     0.002 A 
HETATM   31  C   UNL     1     -35.070  42.132 -57.052  1.00  0.00     0.001 A 
HETATM   32  C   UNL     1     -35.033  42.134 -55.656  1.00  0.00     0.019 A 
ENDBRANCH  23  26
ENDBRANCH  21  22
ENDBRANCH  20  21
ENDBRANCH  19  20
ENDBRANCH   2  19
TORSDOF 7
ENDMDL
MODEL 6
REMARK VINA RESULT:      -7.6      2.861      8.555
REMARK  7 active torsions:
REMARK  status: ('A' for Active; 'I' for Inactive)
REMARK    1  A    between atoms: O_2  and  C_3 
REMARK    2  A    between atoms: N_9  and  N_10 
REMARK       I    between atoms: N_10  and  C_11 
REMARK    3  A    between atoms: C_11  and  C_12 
REMARK    4  A    between atoms: C_12  and  C_13 
REMARK    5  A    between atoms: C_13  and  C_14 
REMARK    6  A    between atoms: C_14  and  N_15 
REMARK       I    between atoms: N_15  and  C_16 
REMARK    7  A    between atoms: C_16  and  C_17 
ROOT
HETATM    1  N   UNL     1     -41.275  54.566 -55.208  1.00  0.00    -0.246 N 
HETATM    2  C   UNL     1     -42.644  54.560 -55.433  1.00  0.00     0.237 C 
HETATM    3  O   UNL     1     -43.369  53.570 -55.460  1.00  0.00    -0.272 OA
HETATM    4  H   UNL     1     -40.813  55.440 -54.987  1.00  0.00     0.192 HD
ENDROOT
BRANCH   1   5
HETATM    5  N   UNL     1     -40.635  53.403 -54.913  1.00  0.00    -0.166 NA
HETATM    6  C   UNL     1     -40.406  53.097 -53.676  1.00  0.00     0.157 A 
HETATM    7  C   UNL     1     -40.585  53.816 -52.405  1.00  0.00     0.029 A 
HETATM    8  C   UNL     1     -39.797  51.730 -53.295  1.00  0.00     0.277 A 
HETATM    9  C   UNL     1     -41.015  55.093 -52.095  1.00  0.00     0.053 A 
HETATM   10  C   UNL     1     -40.158  52.945 -51.401  1.00  0.00     0.048 A 
HETATM   11  C   UNL     1     -41.064  55.469 -50.745  1.00  0.00     0.069 A 
HETATM   12  C   UNL     1     -40.645  54.577 -49.741  1.00  0.00     0.039 A 
HETATM   13  C   UNL     1     -40.178  53.299 -50.068  1.00  0.00     0.033 A 
HETATM   14  N   UNL     1     -39.708  51.739 -51.922  1.00  0.00    -0.321 N 
HETATM   15  H   UNL     1     -39.334  50.962 -51.399  1.00  0.00     0.169 HD
HETATM   16  O   UNL     1     -39.481  50.836 -54.049  1.00  0.00    -0.266 OA
BRANCH  11  17
HETATM   17  O   UNL     1     -41.527  56.741 -50.535  1.00  0.00    -0.356 OA
HETATM   18  C   UNL     1     -41.856  57.505 -51.689  1.00  0.00     0.210 C 
ENDBRANCH  11  17
ENDBRANCH   1   5
BRANCH   2  19
HETATM   19  C   UNL     1     -43.201  55.944 -55.683  1.00  0.00     0.106 C 
BRANCH  19  20
HETATM   20  C   UNL     1     -42.089  56.970 -55.851  1.00  0.00     0.029 C 
BRANCH  20  21
HETATM   21  C   UNL     1     -42.596  58.181 -56.629  1.00  0.00     0.123 C 
BRANCH  21  22
HETATM   22  N   UNL     1     -43.752  57.867 -57.439  1.00  0.00    -0.357 N 
HETATM   23  C   UNL     1     -43.663  57.622 -58.789  1.00  0.00     0.253 C 
HETATM   24  O   UNL     1     -42.588  57.653 -59.384  1.00  0.00    -0.268 OA
HETATM   25  H   UNL     1     -44.663  57.896 -56.997  1.00  0.00     0.162 HD
BRANCH  23  26
HETATM   26  C   UNL     1     -44.916  57.266 -59.531  1.00  0.00     0.053 A 
HETATM   27  C   UNL     1     -45.312  55.977 -59.925  1.00  0.00     0.049 A 
HETATM   28 CL   UNL     1     -44.430  54.532 -59.567  1.00  0.00    -0.083 Cl
HETATM   29  C   UNL     1     -46.507  55.795 -60.639  1.00  0.00     0.025 A 
HETATM   30  C   UNL     1     -47.320  56.881 -60.960  1.00  0.00     0.002 A 
HETATM   31  C   UNL     1     -46.948  58.160 -60.564  1.00  0.00     0.001 A 
HETATM   32  C   UNL     1     -45.758  58.349 -59.857  1.00  0.00     0.019 A 
ENDBRANCH  23  26
ENDBRANCH  21  22
ENDBRANCH  20  21
ENDBRANCH  19  20
ENDBRANCH   2  19
TORSDOF 7
ENDMDL
MODEL 7
REMARK VINA RESULT:      -7.6     15.387     18.003
REMARK  7 active torsions:
REMARK  status: ('A' for Active; 'I' for Inactive)
REMARK    1  A    between atoms: O_2  and  C_3 
REMARK    2  A    between atoms: N_9  and  N_10 
REMARK       I    between atoms: N_10  and  C_11 
REMARK    3  A    between atoms: C_11  and  C_12 
REMARK    4  A    between atoms: C_12  and  C_13 
REMARK    5  A    between atoms: C_13  and  C_14 
REMARK    6  A    between atoms: C_14  and  N_15 
REMARK       I    between atoms: N_15  and  C_16 
REMARK    7  A    between atoms: C_16  and  C_17 
ROOT
HETATM    1  N   UNL     1     -33.461  40.727 -53.974  1.00  0.00    -0.246 N 
HETATM    2  C   UNL     1     -33.503  40.248 -52.672  1.00  0.00     0.237 C 
HETATM    3  O   UNL     1     -32.620  39.610 -52.108  1.00  0.00    -0.272 OA
HETATM    4  H   UNL     1     -34.136  41.423 -54.268  1.00  0.00     0.192 HD
ENDROOT
BRANCH   1   5
HETATM    5  N   UNL     1     -32.332  40.566 -54.716  1.00  0.00    -0.166 NA
HETATM    6  C   UNL     1     -32.351  39.781 -55.746  1.00  0.00     0.157 A 
HETATM    7  C   UNL     1     -33.352  38.852 -56.291  1.00  0.00     0.029 A 
HETATM    8  C   UNL     1     -31.129  39.672 -56.684  1.00  0.00     0.277 A 
HETATM    9  C   UNL     1     -34.606  38.456 -55.864  1.00  0.00     0.053 A 
HETATM   10  C   UNL     1     -32.782  38.295 -57.437  1.00  0.00     0.048 A 
HETATM   11  C   UNL     1     -35.310  37.525 -56.640  1.00  0.00     0.069 A 
HETATM   12  C   UNL     1     -34.730  36.981 -57.801  1.00  0.00     0.039 A 
HETATM   13  C   UNL     1     -33.446  37.362 -58.206  1.00  0.00     0.033 A 
HETATM   14  N   UNL     1     -31.499  38.775 -57.661  1.00  0.00    -0.321 N 
HETATM   15  H   UNL     1     -30.880  38.509 -58.412  1.00  0.00     0.169 HD
HETATM   16  O   UNL     1     -30.078  40.263 -56.584  1.00  0.00    -0.266 OA
BRANCH  11  17
HETATM   17  O   UNL     1     -36.551  37.214 -56.151  1.00  0.00    -0.356 OA
HETATM   18  C   UNL     1     -37.485  36.662 -57.070  1.00  0.00     0.210 C 
ENDBRANCH  11  17
ENDBRANCH   1   5
BRANCH   2  19
HETATM   19  C   UNL     1     -34.805  40.569 -51.973  1.00  0.00     0.106 C 
BRANCH  19  20
HETATM   20  C   UNL     1     -35.253  41.997 -52.257  1.00  0.00     0.029 C 
BRANCH  20  21
HETATM   21  C   UNL     1     -36.699  42.014 -52.745  1.00  0.00     0.123 C 
BRANCH  21  22
HETATM   22  N   UNL     1     -36.789  42.003 -54.188  1.00  0.00    -0.357 N 
HETATM   23  C   UNL     1     -37.079  40.863 -54.902  1.00  0.00     0.253 C 
HETATM   24  O   UNL     1     -37.283  39.786 -54.346  1.00  0.00    -0.268 OA
HETATM   25  H   UNL     1     -36.565  42.857 -54.685  1.00  0.00     0.162 HD
BRANCH  23  26
HETATM   26  C   UNL     1     -37.190  40.966 -56.393  1.00  0.00     0.053 A 
HETATM   27  C   UNL     1     -36.296  41.631 -57.249  1.00  0.00     0.049 A 
HETATM   28 CL   UNL     1     -34.847  42.420 -56.728  1.00  0.00    -0.083 Cl
HETATM   29  C   UNL     1     -36.540  41.666 -58.631  1.00  0.00     0.025 A 
HETATM   30  C   UNL     1     -37.660  41.038 -59.175  1.00  0.00     0.002 A 
HETATM   31  C   UNL     1     -38.544  40.365 -58.341  1.00  0.00     0.001 A 
HETATM   32  C   UNL     1     -38.310  40.330 -56.965  1.00  0.00     0.019 A 
ENDBRANCH  23  26
ENDBRANCH  21  22
ENDBRANCH  20  21
ENDBRANCH  19  20
ENDBRANCH   2  19
TORSDOF 7
ENDMDL
MODEL 8
REMARK VINA RESULT:      -7.6      1.934      2.744
REMARK  7 active torsions:
REMARK  status: ('A' for Active; 'I' for Inactive)
REMARK    1  A    between atoms: O_2  and  C_3 
REMARK    2  A    between atoms: N_9  and  N_10 
REMARK       I    between atoms: N_10  and  C_11 
REMARK    3  A    between atoms: C_11  and  C_12 
REMARK    4  A    between atoms: C_12  and  C_13 
REMARK    5  A    between atoms: C_13  and  C_14 
REMARK    6  A    between atoms: C_14  and  N_15 
REMARK       I    between atoms: N_15  and  C_16 
REMARK    7  A    between atoms: C_16  and  C_17 
ROOT
HETATM    1  N   UNL     1     -42.414  59.474 -55.255  1.00  0.00    -0.246 N 
HETATM    2  C   UNL     1     -41.767  59.149 -54.072  1.00  0.00     0.237 C 
HETATM    3  O   UNL     1     -40.667  59.559 -53.712  1.00  0.00    -0.272 OA
HETATM    4  H   UNL     1     -43.400  59.263 -55.354  1.00  0.00     0.192 HD
ENDROOT
BRANCH   1   5
HETATM    5  N   UNL     1     -41.859  60.385 -56.099  1.00  0.00    -0.166 NA
HETATM    6  C   UNL     1     -41.850  60.151 -57.373  1.00  0.00     0.157 A 
HETATM    7  C   UNL     1     -42.226  58.988 -58.192  1.00  0.00     0.029 A 
HETATM    8  C   UNL     1     -41.345  61.215 -58.372  1.00  0.00     0.277 A 
HETATM    9  C   UNL     1     -42.673  57.718 -57.880  1.00  0.00     0.053 A 
HETATM   10  C   UNL     1     -41.994  59.356 -59.519  1.00  0.00     0.048 A 
HETATM   11  C   UNL     1     -42.942  56.830 -58.931  1.00  0.00     0.069 A 
HETATM   12  C   UNL     1     -42.718  57.217 -60.265  1.00  0.00     0.039 A 
HETATM   13  C   UNL     1     -42.231  58.493 -60.569  1.00  0.00     0.033 A 
HETATM   14  N   UNL     1     -41.489  60.645 -59.616  1.00  0.00    -0.321 N 
HETATM   15  H   UNL     1     -41.227  61.125 -60.464  1.00  0.00     0.169 HD
HETATM   16  O   UNL     1     -40.926  62.321 -58.111  1.00  0.00    -0.266 OA
BRANCH  11  17
HETATM   17  O   UNL     1     -43.405  55.607 -58.525  1.00  0.00    -0.356 OA
HETATM   18  C   UNL     1     -44.171  54.865 -59.466  1.00  0.00     0.210 C 
ENDBRANCH  11  17
ENDBRANCH   1   5
BRANCH   2  19
HETATM   19  C   UNL     1     -42.552  58.173 -53.225  1.00  0.00     0.106 C 
BRANCH  19  20
HETATM   20  C   UNL     1     -43.898  57.844 -53.857  1.00  0.00     0.029 C 
BRANCH  20  21
HETATM   21  C   UNL     1     -44.023  56.341 -54.091  1.00  0.00     0.123 C 
BRANCH  21  22
HETATM   22  N   UNL     1     -43.151  55.578 -53.226  1.00  0.00    -0.357 N 
HETATM   23  C   UNL     1     -42.555  54.406 -53.627  1.00  0.00     0.253 C 
HETATM   24  O   UNL     1     -42.729  53.943 -54.752  1.00  0.00    -0.268 OA
HETATM   25  H   UNL     1     -43.035  55.895 -52.271  1.00  0.00     0.162 HD
BRANCH  23  26
HETATM   26  C   UNL     1     -41.636  53.711 -52.668  1.00  0.00     0.053 A 
HETATM   27  C   UNL     1     -40.586  52.840 -53.005  1.00  0.00     0.049 A 
HETATM   28 CL   UNL     1     -40.121  52.450 -54.625  1.00  0.00    -0.083 Cl
HETATM   29  C   UNL     1     -39.818  52.240 -51.994  1.00  0.00     0.025 A 
HETATM   30  C   UNL     1     -40.077  52.502 -50.649  1.00  0.00     0.002 A 
HETATM   31  C   UNL     1     -41.103  53.372 -50.303  1.00  0.00     0.001 A 
HETATM   32  C   UNL     1     -41.874  53.970 -51.303  1.00  0.00     0.019 A 
ENDBRANCH  23  26
ENDBRANCH  21  22
ENDBRANCH  20  21
ENDBRANCH  19  20
ENDBRANCH   2  19
TORSDOF 7
ENDMDL
MODEL 9
REMARK VINA RESULT:      -7.6      2.570      7.361
REMARK  7 active torsions:
REMARK  status: ('A' for Active; 'I' for Inactive)
REMARK    1  A    between atoms: O_2  and  C_3 
REMARK    2  A    between atoms: N_9  and  N_10 
REMARK       I    between atoms: N_10  and  C_11 
REMARK    3  A    between atoms: C_11  and  C_12 
REMARK    4  A    between atoms: C_12  and  C_13 
REMARK    5  A    between atoms: C_13  and  C_14 
REMARK    6  A    between atoms: C_14  and  N_15 
REMARK       I    between atoms: N_15  and  C_16 
REMARK    7  A    between atoms: C_16  and  C_17 
ROOT
HETATM    1  N   UNL     1     -42.513  56.818 -51.319  1.00  0.00    -0.246 N 
HETATM    2  C   UNL     1     -41.721  57.812 -51.876  1.00  0.00     0.237 C 
HETATM    3  O   UNL     1     -40.665  58.237 -51.417  1.00  0.00    -0.272 OA
HETATM    4  H   UNL     1     -43.239  56.390 -51.882  1.00  0.00     0.192 HD
ENDROOT
BRANCH   1   5
HETATM    5  N   UNL     1     -42.093  56.168 -50.201  1.00  0.00    -0.166 NA
HETATM    6  C   UNL     1     -41.422  55.066 -50.317  1.00  0.00     0.157 A 
HETATM    7  C   UNL     1     -41.070  54.212 -51.461  1.00  0.00     0.029 A 
HETATM    8  C   UNL     1     -40.821  54.368 -49.077  1.00  0.00     0.277 A 
HETATM    9  C   UNL     1     -41.376  54.263 -52.808  1.00  0.00     0.053 A 
HETATM   10  C   UNL     1     -40.318  53.156 -50.941  1.00  0.00     0.048 A 
HETATM   11  C   UNL     1     -40.865  53.261 -53.645  1.00  0.00     0.069 A 
HETATM   12  C   UNL     1     -40.097  52.209 -53.111  1.00  0.00     0.039 A 
HETATM   13  C   UNL     1     -39.822  52.147 -51.740  1.00  0.00     0.033 A 
HETATM   14  N   UNL     1     -40.175  53.254 -49.564  1.00  0.00    -0.321 N 
HETATM   15  H   UNL     1     -39.692  52.604 -48.962  1.00  0.00     0.169 HD
HETATM   16  O   UNL     1     -40.894  54.735 -47.926  1.00  0.00    -0.266 OA
BRANCH  11  17
HETATM   17  O   UNL     1     -41.200  53.410 -54.964  1.00  0.00    -0.356 OA
HETATM   18  C   UNL     1     -42.434  54.057 -55.247  1.00  0.00     0.210 C 
ENDBRANCH  11  17
ENDBRANCH   1   5
BRANCH   2  19
HETATM   19  C   UNL     1     -42.307  58.382 -53.148  1.00  0.00     0.106 C 
BRANCH  19  20
HETATM   20  C   UNL     1     -43.815  58.559 -53.036  1.00  0.00     0.029 C 
BRANCH  20  21
HETATM   21  C   UNL     1     -44.533  57.637 -54.018  1.00  0.00     0.123 C 
BRANCH  21  22
HETATM   22  N   UNL     1     -43.787  57.456 -55.244  1.00  0.00    -0.357 N 
HETATM   23  C   UNL     1     -44.339  57.675 -56.484  1.00  0.00     0.253 C 
HETATM   24  O   UNL     1     -45.504  58.045 -56.617  1.00  0.00    -0.268 OA
HETATM   25  H   UNL     1     -42.844  57.091 -55.177  1.00  0.00     0.162 HD
BRANCH  23  26
HETATM   26  C   UNL     1     -43.470  57.497 -57.692  1.00  0.00     0.053 A 
HETATM   27  C   UNL     1     -42.514  58.410 -58.170  1.00  0.00     0.049 A 
HETATM   28 CL   UNL     1     -42.124  59.909 -57.402  1.00  0.00    -0.083 Cl
HETATM   29  C   UNL     1     -41.785  58.118 -59.334  1.00  0.00     0.025 A 
HETATM   30  C   UNL     1     -41.988  56.924 -60.025  1.00  0.00     0.002 A 
HETATM   31  C   UNL     1     -42.920  56.008 -59.555  1.00  0.00     0.001 A 
HETATM   32  C   UNL     1     -43.652  56.292 -58.400  1.00  0.00     0.019 A 
ENDBRANCH  23  26
ENDBRANCH  21  22
ENDBRANCH  20  21
ENDBRANCH  19  20
ENDBRANCH   2  19
TORSDOF 7
ENDMDL
MODEL 10
REMARK VINA RESULT:      -7.5      3.067      8.594
REMARK  7 active torsions:
REMARK  status: ('A' for Active; 'I' for Inactive)
REMARK    1  A    between atoms: O_2  and  C_3 
REMARK    2  A    between atoms: N_9  and  N_10 
REMARK       I    between atoms: N_10  and  C_11 
REMARK    3  A    between atoms: C_11  and  C_12 
REMARK    4  A    between atoms: C_12  and  C_13 
REMARK    5  A    between atoms: C_13  and  C_14 
REMARK    6  A    between atoms: C_14  and  N_15 
REMARK       I    between atoms: N_15  and  C_16 
REMARK    7  A    between atoms: C_16  and  C_17 
ROOT
HETATM    1  N   UNL     1     -40.410  54.087 -54.047  1.00  0.00    -0.246 N 
HETATM    2  C   UNL     1     -41.427  54.784 -54.684  1.00  0.00     0.237 C 
HETATM    3  O   UNL     1     -42.012  54.437 -55.705  1.00  0.00    -0.272 OA
HETATM    4  H   UNL     1     -40.150  54.343 -53.102  1.00  0.00     0.192 HD
ENDROOT
BRANCH   1   5
HETATM    5  N   UNL     1     -40.036  52.865 -54.512  1.00  0.00    -0.166 NA
HETATM    6  C   UNL     1     -39.965  51.864 -53.692  1.00  0.00     0.157 A 
HETATM    7  C   UNL     1     -40.093  51.741 -52.232  1.00  0.00     0.029 A 
HETATM    8  C   UNL     1     -39.668  50.438 -54.204  1.00  0.00     0.277 A 
HETATM    9  C   UNL     1     -40.284  52.662 -51.219  1.00  0.00     0.053 A 
HETATM   10  C   UNL     1     -39.923  50.386 -51.940  1.00  0.00     0.048 A 
HETATM   11  C   UNL     1     -40.360  52.195 -49.900  1.00  0.00     0.069 A 
HETATM   12  C   UNL     1     -40.200  50.825 -49.619  1.00  0.00     0.039 A 
HETATM   13  C   UNL     1     -39.972  49.904 -50.648  1.00  0.00     0.033 A 
HETATM   14  N   UNL     1     -39.682  49.638 -53.084  1.00  0.00    -0.321 N 
HETATM   15  H   UNL     1     -39.509  48.645 -53.127  1.00  0.00     0.169 HD
HETATM   16  O   UNL     1     -39.479  50.098 -55.351  1.00  0.00    -0.266 OA
BRANCH  11  17
HETATM   17  O   UNL     1     -40.576  53.176 -48.970  1.00  0.00    -0.356 OA
HETATM   18  C   UNL     1     -40.090  54.476 -49.281  1.00  0.00     0.210 C 
ENDBRANCH  11  17
ENDBRANCH   1   5
BRANCH   2  19
HETATM   19  C   UNL     1     -41.758  56.091 -53.998  1.00  0.00     0.106 C 
BRANCH  19  20
HETATM   20  C   UNL     1     -41.977  57.209 -55.009  1.00  0.00     0.029 C 
BRANCH  20  21
HETATM   21  C   UNL     1     -43.468  57.486 -55.181  1.00  0.00     0.123 C 
BRANCH  21  22
HETATM   22  N   UNL     1     -44.008  56.860 -56.367  1.00  0.00    -0.357 N 
HETATM   23  C   UNL     1     -44.089  57.512 -57.575  1.00  0.00     0.253 C 
HETATM   24  O   UNL     1     -43.700  58.670 -57.712  1.00  0.00    -0.268 OA
HETATM   25  H   UNL     1     -44.397  55.929 -56.277  1.00  0.00     0.162 HD
BRANCH  23  26
HETATM   26  C   UNL     1     -44.629  56.760 -58.754  1.00  0.00     0.053 A 
HETATM   27  C   UNL     1     -45.850  57.002 -59.406  1.00  0.00     0.049 A 
HETATM   28 CL   UNL     1     -46.946  58.274 -58.990  1.00  0.00    -0.083 Cl
HETATM   29  C   UNL     1     -46.239  56.198 -60.490  1.00  0.00     0.025 A 
HETATM   30  C   UNL     1     -45.424  55.160 -60.939  1.00  0.00     0.002 A 
HETATM   31  C   UNL     1     -44.208  54.920 -60.312  1.00  0.00     0.001 A 
HETATM   32  C   UNL     1     -43.815  55.713 -59.231  1.00  0.00     0.019 A 
ENDBRANCH  23  26
ENDBRANCH  21  22
ENDBRANCH  20  21
ENDBRANCH  19  20
ENDBRANCH   2  19
TORSDOF 7
ENDMDL
