MODEL 1
REMARK VINA RESULT:      -7.5      0.000      0.000
REMARK  10 active torsions:
REMARK  status: ('A' for Active; 'I' for Inactive)
REMARK    1  A    between atoms: C_2  and  C_3 
REMARK    2  A    between atoms: C_3  and  C_4 
REMARK    3  A    between atoms: C_4  and  N_5 
REMARK    4  A    between atoms: C_4  and  C_22 
REMARK    5  A    between atoms: N_5  and  C_6 
REMARK    6  A    between atoms: C_8  and  C_9 
REMARK    7  A    between atoms: C_16  and  C_17 
REMARK       I    between atoms: C_22  and  N_23 
REMARK    8  A    between atoms: N_23  and  C_24 
REMARK    9  A    between atoms: C_24  and  C_25 
REMARK   10  A    between atoms: C_25  and  O_26 
ROOT
HETATM    1  C   UNL     1     -40.577  54.084 -54.372  1.00  0.00     0.108 A 
HETATM    2  N   UNL     1     -40.687  54.383 -53.074  1.00  0.00    -0.215 NA
HETATM    3  C   UNL     1     -40.571  53.383 -52.175  1.00  0.00     0.180 A 
HETATM    4  N   UNL     1     -40.371  52.096 -52.515  1.00  0.00    -0.222 NA
HETATM    5  C   UNL     1     -40.291  51.803 -53.833  1.00  0.00     0.146 A 
HETATM    6  C   UNL     1     -40.378  52.790 -54.801  1.00  0.00     0.080 A 
ENDROOT
BRANCH   1   7
HETATM    7  N   UNL     1     -40.721  55.090 -55.346  1.00  0.00    -0.264 NA
HETATM    8  H   UNL     1     -39.826  55.559 -55.456  1.00  0.00     0.130 HD
BRANCH   7   9
HETATM    9  C   UNL     1     -41.828  56.055 -55.094  1.00  0.00     0.154 C 
BRANCH   9  10
HETATM   10  C   UNL     1     -41.275  57.310 -54.391  1.00  0.00     0.033 C 
BRANCH  10  11
HETATM   11  C   UNL     1     -42.144  57.860 -53.239  1.00  0.00    -0.021 C 
HETATM   12  C   UNL     1     -41.319  58.256 -52.013  1.00  0.00     0.009 C 
HETATM   13  C   UNL     1     -43.188  56.813 -52.839  1.00  0.00     0.009 C 
ENDBRANCH  10  11
ENDBRANCH   9  10
BRANCH   9  14
HETATM   14  C   UNL     1     -42.473  56.507 -56.431  1.00  0.00     0.235 C 
HETATM   15  N   UNL     1     -42.648  55.478 -57.337  1.00  0.00    -0.358 N 
HETATM   16  H   UNL     1     -42.689  54.561 -56.897  1.00  0.00     0.162 HD
HETATM   17  O   UNL     1     -42.725  57.682 -56.684  1.00  0.00    -0.272 OA
BRANCH  15  18
HETATM   18  C   UNL     1     -43.467  55.656 -58.517  1.00  0.00     0.148 C 
BRANCH  18  19
HETATM   19  C   UNL     1     -42.613  56.001 -59.736  1.00  0.00     0.186 C 
BRANCH  19  20
HETATM   20  O   UNL     1     -43.448  56.617 -60.726  1.00  0.00    -0.394 OA
HETATM   21  C   UNL     1     -43.876  57.910 -60.321  1.00  0.00     0.201 C 
ENDBRANCH  19  20
ENDBRANCH  18  19
ENDBRANCH  15  18
ENDBRANCH   9  14
ENDBRANCH   7   9
ENDBRANCH   1   7
BRANCH   3  22
HETATM   22  C   UNL     1     -40.646  53.742 -50.735  1.00  0.00     0.104 A 
HETATM   23  N   UNL     1     -40.329  52.772 -49.828  1.00  0.00    -0.257 NA
HETATM   24  C   UNL     1     -40.373  53.086 -48.516  1.00  0.00     0.117 A 
HETATM   25  C   UNL     1     -40.718  54.336 -48.034  1.00  0.00     0.019 A 
HETATM   26  C   UNL     1     -41.042  55.324 -48.953  1.00  0.00     0.004 A 
HETATM   27  C   UNL     1     -41.009  55.026 -50.314  1.00  0.00     0.036 A 
ENDBRANCH   3  22
BRANCH   5  28
HETATM   28  C   UNL     1     -40.097  50.366 -54.277  1.00  0.00     0.434 C 
HETATM   29  F   UNL     1     -39.609  49.531 -53.318  1.00  0.00    -0.165 F 
HETATM   30  F   UNL     1     -41.259  49.794 -54.710  1.00  0.00    -0.165 F 
HETATM   31  F   UNL     1     -39.235  50.265 -55.333  1.00  0.00    -0.165 F 
ENDBRANCH   5  28
TORSDOF 10
ENDMDL
MODEL 2
REMARK VINA RESULT:      -7.3      3.076      4.255
REMARK  10 active torsions:
REMARK  status: ('A' for Active; 'I' for Inactive)
REMARK    1  A    between atoms: C_2  and  C_3 
REMARK    2  A    between atoms: C_3  and  C_4 
REMARK    3  A    between atoms: C_4  and  N_5 
REMARK    4  A    between atoms: C_4  and  C_22 
REMARK    5  A    between atoms: N_5  and  C_6 
REMARK    6  A    between atoms: C_8  and  C_9 
REMARK    7  A    between atoms: C_16  and  C_17 
REMARK       I    between atoms: C_22  and  N_23 
REMARK    8  A    between atoms: N_23  and  C_24 
REMARK    9  A    between atoms: C_24  and  C_25 
REMARK   10  A    between atoms: C_25  and  O_26 
ROOT
HETATM    1  C   UNL     1     -41.189  55.530 -54.468  1.00  0.00     0.108 A 
HETATM    2  N   UNL     1     -40.788  54.257 -54.403  1.00  0.00    -0.215 NA
HETATM    3  C   UNL     1     -40.676  53.683 -53.186  1.00  0.00     0.180 A 
HETATM    4  N   UNL     1     -40.924  54.331 -52.032  1.00  0.00    -0.222 NA
HETATM    5  C   UNL     1     -41.300  55.628 -52.112  1.00  0.00     0.146 A 
HETATM    6  C   UNL     1     -41.457  56.263 -53.332  1.00  0.00     0.080 A 
ENDROOT
BRANCH   1   7
HETATM    7  N   UNL     1     -41.292  56.179 -55.714  1.00  0.00    -0.264 NA
HETATM    8  H   UNL     1     -40.548  56.868 -55.777  1.00  0.00     0.130 HD
BRANCH   7   9
HETATM    9  C   UNL     1     -42.628  56.771 -56.004  1.00  0.00     0.154 C 
BRANCH   9  10
HETATM   10  C   UNL     1     -42.468  58.255 -56.387  1.00  0.00     0.033 C 
BRANCH  10  11
HETATM   11  C   UNL     1     -42.959  59.267 -55.331  1.00  0.00    -0.021 C 
HETATM   12  C   UNL     1     -41.837  59.760 -54.415  1.00  0.00     0.009 C 
HETATM   13  C   UNL     1     -44.068  58.631 -54.487  1.00  0.00     0.009 C 
ENDBRANCH  10  11
ENDBRANCH   9  10
BRANCH   9  14
HETATM   14  C   UNL     1     -43.297  56.044 -57.200  1.00  0.00     0.235 C 
HETATM   15  N   UNL     1     -44.155  56.847 -57.926  1.00  0.00    -0.358 N 
HETATM   16  H   UNL     1     -43.954  57.840 -57.827  1.00  0.00     0.162 HD
HETATM   17  O   UNL     1     -43.139  54.846 -57.423  1.00  0.00    -0.272 OA
BRANCH  15  18
HETATM   18  C   UNL     1     -44.658  56.424 -59.217  1.00  0.00     0.148 C 
BRANCH  18  19
HETATM   19  C   UNL     1     -44.035  57.240 -60.347  1.00  0.00     0.186 C 
BRANCH  19  20
HETATM   20  O   UNL     1     -42.641  56.916 -60.438  1.00  0.00    -0.394 OA
HETATM   21  C   UNL     1     -41.825  58.074 -60.338  1.00  0.00     0.201 C 
ENDBRANCH  19  20
ENDBRANCH  18  19
ENDBRANCH  15  18
ENDBRANCH   9  14
ENDBRANCH   7   9
ENDBRANCH   1   7
BRANCH   3  22
HETATM   22  C   UNL     1     -40.278  52.253 -53.135  1.00  0.00     0.104 A 
HETATM   23  N   UNL     1     -39.833  51.766 -51.940  1.00  0.00    -0.257 NA
HETATM   24  C   UNL     1     -39.486  50.463 -51.871  1.00  0.00     0.117 A 
HETATM   25  C   UNL     1     -39.557  49.589 -52.940  1.00  0.00     0.019 A 
HETATM   26  C   UNL     1     -40.008  50.081 -54.157  1.00  0.00     0.004 A 
HETATM   27  C   UNL     1     -40.369  51.423 -54.258  1.00  0.00     0.036 A 
ENDBRANCH   3  22
BRANCH   5  28
HETATM   28  C   UNL     1     -41.564  56.417 -50.843  1.00  0.00     0.434 C 
HETATM   29  F   UNL     1     -40.483  57.075 -50.341  1.00  0.00    -0.165 F 
HETATM   30  F   UNL     1     -42.530  57.368 -51.014  1.00  0.00    -0.165 F 
HETATM   31  F   UNL     1     -42.021  55.622 -49.829  1.00  0.00    -0.165 F 
ENDBRANCH   5  28
TORSDOF 10
ENDMDL
MODEL 3
REMARK VINA RESULT:      -7.2      4.527      7.007
REMARK  10 active torsions:
REMARK  status: ('A' for Active; 'I' for Inactive)
REMARK    1  A    between atoms: C_2  and  C_3 
REMARK    2  A    between atoms: C_3  and  C_4 
REMARK    3  A    between atoms: C_4  and  N_5 
REMARK    4  A    between atoms: C_4  and  C_22 
REMARK    5  A    between atoms: N_5  and  C_6 
REMARK    6  A    between atoms: C_8  and  C_9 
REMARK    7  A    between atoms: C_16  and  C_17 
REMARK       I    between atoms: C_22  and  N_23 
REMARK    8  A    between atoms: N_23  and  C_24 
REMARK    9  A    between atoms: C_24  and  C_25 
REMARK   10  A    between atoms: C_25  and  O_26 
ROOT
HETATM    1  C   UNL     1     -43.881  56.608 -53.523  1.00  0.00     0.108 A 
HETATM    2  N   UNL     1     -43.101  55.630 -53.054  1.00  0.00    -0.215 NA
HETATM    3  C   UNL     1     -42.290  54.988 -53.921  1.00  0.00     0.180 A 
HETATM    4  N   UNL     1     -42.240  55.265 -55.239  1.00  0.00    -0.222 NA
HETATM    5  C   UNL     1     -43.057  56.237 -55.704  1.00  0.00     0.146 A 
HETATM    6  C   UNL     1     -43.893  56.947 -54.858  1.00  0.00     0.080 A 
ENDROOT
BRANCH   1   7
HETATM    7  N   UNL     1     -44.765  57.286 -52.660  1.00  0.00    -0.264 NA
HETATM    8  H   UNL     1     -45.336  57.913 -53.219  1.00  0.00     0.130 HD
BRANCH   7   9
HETATM    9  C   UNL     1     -44.113  57.990 -51.521  1.00  0.00     0.154 C 
BRANCH   9  10
HETATM   10  C   UNL     1     -43.065  58.985 -52.054  1.00  0.00     0.033 C 
BRANCH  10  11
HETATM   11  C   UNL     1     -41.602  58.671 -51.675  1.00  0.00    -0.021 C 
HETATM   12  C   UNL     1     -41.023  59.670 -50.671  1.00  0.00     0.009 C 
HETATM   13  C   UNL     1     -40.736  58.654 -52.939  1.00  0.00     0.009 C 
ENDBRANCH  10  11
ENDBRANCH   9  10
BRANCH   9  14
HETATM   14  C   UNL     1     -45.160  58.796 -50.708  1.00  0.00     0.235 C 
HETATM   15  N   UNL     1     -44.642  59.924 -50.102  1.00  0.00    -0.358 N 
HETATM   16  H   UNL     1     -43.796  60.267 -50.553  1.00  0.00     0.162 HD
HETATM   17  O   UNL     1     -46.318  58.416 -50.554  1.00  0.00    -0.272 OA
BRANCH  15  18
HETATM   18  C   UNL     1     -45.513  60.930 -49.531  1.00  0.00     0.148 C 
BRANCH  18  19
HETATM   19  C   UNL     1     -45.423  60.939 -48.007  1.00  0.00     0.186 C 
BRANCH  19  20
HETATM   20  O   UNL     1     -46.215  59.860 -47.491  1.00  0.00    -0.394 OA
HETATM   21  C   UNL     1     -46.317  59.914 -46.074  1.00  0.00     0.201 C 
ENDBRANCH  19  20
ENDBRANCH  18  19
ENDBRANCH  15  18
ENDBRANCH   9  14
ENDBRANCH   7   9
ENDBRANCH   1   7
BRANCH   3  22
HETATM   22  C   UNL     1     -41.393  53.938 -53.374  1.00  0.00     0.104 A 
HETATM   23  N   UNL     1     -41.119  53.978 -52.038  1.00  0.00    -0.257 NA
HETATM   24  C   UNL     1     -40.322  53.020 -51.520  1.00  0.00     0.117 A 
HETATM   25  C   UNL     1     -39.767  51.994 -52.263  1.00  0.00     0.019 A 
HETATM   26  C   UNL     1     -40.042  51.950 -53.622  1.00  0.00     0.004 A 
HETATM   27  C   UNL     1     -40.859  52.929 -54.184  1.00  0.00     0.036 A 
ENDBRANCH   3  22
BRANCH   5  28
HETATM   28  C   UNL     1     -43.066  56.571 -57.184  1.00  0.00     0.434 C 
HETATM   29  F   UNL     1     -44.231  57.105 -57.644  1.00  0.00    -0.165 F 
HETATM   30  F   UNL     1     -42.090  57.466 -57.520  1.00  0.00    -0.165 F 
HETATM   31  F   UNL     1     -42.826  55.473 -57.961  1.00  0.00    -0.165 F 
ENDBRANCH   5  28
TORSDOF 10
ENDMDL
MODEL 4
REMARK VINA RESULT:      -7.1      3.787      6.499
REMARK  10 active torsions:
REMARK  status: ('A' for Active; 'I' for Inactive)
REMARK    1  A    between atoms: C_2  and  C_3 
REMARK    2  A    between atoms: C_3  and  C_4 
REMARK    3  A    between atoms: C_4  and  N_5 
REMARK    4  A    between atoms: C_4  and  C_22 
REMARK    5  A    between atoms: N_5  and  C_6 
REMARK    6  A    between atoms: C_8  and  C_9 
REMARK    7  A    between atoms: C_16  and  C_17 
REMARK       I    between atoms: C_22  and  N_23 
REMARK    8  A    between atoms: N_23  and  C_24 
REMARK    9  A    between atoms: C_24  and  C_25 
REMARK   10  A    between atoms: C_25  and  O_26 
ROOT
HETATM    1  C   UNL     1     -43.698  56.049 -53.544  1.00  0.00     0.108 A 
HETATM    2  N   UNL     1     -42.893  55.046 -53.179  1.00  0.00    -0.215 NA
HETATM    3  C   UNL     1     -42.078  54.508 -54.112  1.00  0.00     0.180 A 
HETATM    4  N   UNL     1     -42.048  54.912 -55.396  1.00  0.00    -0.222 NA
HETATM    5  C   UNL     1     -42.889  55.908 -55.758  1.00  0.00     0.146 A 
HETATM    6  C   UNL     1     -43.730  56.516 -54.841  1.00  0.00     0.080 A 
ENDROOT
BRANCH   1   7
HETATM    7  N   UNL     1     -44.586  56.621 -52.613  1.00  0.00    -0.264 NA
HETATM    8  H   UNL     1     -45.528  56.552 -52.987  1.00  0.00     0.130 HD
BRANCH   7   9
HETATM    9  C   UNL     1     -44.251  58.012 -52.199  1.00  0.00     0.154 C 
BRANCH   9  10
HETATM   10  C   UNL     1     -45.182  58.453 -51.053  1.00  0.00     0.033 C 
BRANCH  10  11
HETATM   11  C   UNL     1     -45.815  59.852 -51.217  1.00  0.00    -0.021 C 
HETATM   12  C   UNL     1     -45.877  60.306 -52.677  1.00  0.00     0.009 C 
HETATM   13  C   UNL     1     -45.023  60.873 -50.395  1.00  0.00     0.009 C 
ENDBRANCH  10  11
ENDBRANCH   9  10
BRANCH   9  14
HETATM   14  C   UNL     1     -42.791  58.087 -51.677  1.00  0.00     0.235 C 
HETATM   15  N   UNL     1     -42.539  57.242 -50.614  1.00  0.00    -0.358 N 
HETATM   16  H   UNL     1     -43.184  56.455 -50.566  1.00  0.00     0.162 HD
HETATM   17  O   UNL     1     -41.968  58.885 -52.118  1.00  0.00    -0.272 OA
BRANCH  15  18
HETATM   18  C   UNL     1     -41.184  56.982 -50.173  1.00  0.00     0.148 C 
BRANCH  18  19
HETATM   19  C   UNL     1     -40.964  55.494 -49.909  1.00  0.00     0.186 C 
BRANCH  19  20
HETATM   20  O   UNL     1     -41.046  55.259 -48.497  1.00  0.00    -0.394 OA
HETATM   21  C   UNL     1     -40.441  54.025 -48.134  1.00  0.00     0.201 C 
ENDBRANCH  19  20
ENDBRANCH  18  19
ENDBRANCH  15  18
ENDBRANCH   9  14
ENDBRANCH   7   9
ENDBRANCH   1   7
BRANCH   3  22
HETATM   22  C   UNL     1     -41.156  53.429 -53.677  1.00  0.00     0.104 A 
HETATM   23  N   UNL     1     -40.789  53.407 -52.362  1.00  0.00    -0.257 NA
HETATM   24  C   UNL     1     -39.966  52.421 -51.945  1.00  0.00     0.117 A 
HETATM   25  C   UNL     1     -39.474  51.426 -52.771  1.00  0.00     0.019 A 
HETATM   26  C   UNL     1     -39.844  51.446 -54.108  1.00  0.00     0.004 A 
HETATM   27  C   UNL     1     -40.690  52.455 -54.567  1.00  0.00     0.036 A 
ENDBRANCH   3  22
BRANCH   5  28
HETATM   28  C   UNL     1     -42.919  56.384 -57.198  1.00  0.00     0.434 C 
HETATM   29  F   UNL     1     -42.671  55.419 -58.126  1.00  0.00    -0.165 F 
HETATM   30  F   UNL     1     -44.125  56.927 -57.541  1.00  0.00    -0.165 F 
HETATM   31  F   UNL     1     -42.004  57.372 -57.433  1.00  0.00    -0.165 F 
ENDBRANCH   5  28
TORSDOF 10
ENDMDL
MODEL 5
REMARK VINA RESULT:      -7.0      3.536      5.771
REMARK  10 active torsions:
REMARK  status: ('A' for Active; 'I' for Inactive)
REMARK    1  A    between atoms: C_2  and  C_3 
REMARK    2  A    between atoms: C_3  and  C_4 
REMARK    3  A    between atoms: C_4  and  N_5 
REMARK    4  A    between atoms: C_4  and  C_22 
REMARK    5  A    between atoms: N_5  and  C_6 
REMARK    6  A    between atoms: C_8  and  C_9 
REMARK    7  A    between atoms: C_16  and  C_17 
REMARK       I    between atoms: C_22  and  N_23 
REMARK    8  A    between atoms: N_23  and  C_24 
REMARK    9  A    between atoms: C_24  and  C_25 
REMARK   10  A    between atoms: C_25  and  O_26 
ROOT
HETATM    1  C   UNL     1     -43.407  55.835 -55.200  1.00  0.00     0.108 A 
HETATM    2  N   UNL     1     -42.525  54.868 -54.928  1.00  0.00    -0.215 NA
HETATM    3  C   UNL     1     -42.180  54.661 -53.639  1.00  0.00     0.180 A 
HETATM    4  N   UNL     1     -42.660  55.391 -52.614  1.00  0.00    -0.222 NA
HETATM    5  C   UNL     1     -43.529  56.385 -52.908  1.00  0.00     0.146 A 
HETATM    6  C   UNL     1     -43.939  56.629 -54.208  1.00  0.00     0.080 A 
ENDROOT
BRANCH   1   7
HETATM    7  N   UNL     1     -43.774  56.106 -56.533  1.00  0.00    -0.264 NA
HETATM    8  H   UNL     1     -44.354  55.341 -56.865  1.00  0.00     0.130 HD
BRANCH   7   9
HETATM    9  C   UNL     1     -42.635  56.384 -57.453  1.00  0.00     0.154 C 
BRANCH   9  10
HETATM   10  C   UNL     1     -42.888  55.707 -58.813  1.00  0.00     0.033 C 
BRANCH  10  11
HETATM   11  C   UNL     1     -44.350  55.734 -59.305  1.00  0.00    -0.021 C 
HETATM   12  C   UNL     1     -44.825  54.378 -59.830  1.00  0.00     0.009 C 
HETATM   13  C   UNL     1     -44.503  56.792 -60.403  1.00  0.00     0.009 C 
ENDBRANCH  10  11
ENDBRANCH   9  10
BRANCH   9  14
HETATM   14  C   UNL     1     -42.497  57.909 -57.702  1.00  0.00     0.235 C 
HETATM   15  N   UNL     1     -43.470  58.663 -57.074  1.00  0.00    -0.358 N 
HETATM   16  H   UNL     1     -43.887  58.192 -56.274  1.00  0.00     0.162 HD
HETATM   17  O   UNL     1     -41.650  58.386 -58.453  1.00  0.00    -0.272 OA
BRANCH  15  18
HETATM   18  C   UNL     1     -43.348  60.103 -56.974  1.00  0.00     0.148 C 
BRANCH  18  19
HETATM   19  C   UNL     1     -42.968  60.528 -55.558  1.00  0.00     0.186 C 
BRANCH  19  20
HETATM   20  O   UNL     1     -41.630  60.090 -55.287  1.00  0.00    -0.394 OA
HETATM   21  C   UNL     1     -41.544  59.394 -54.051  1.00  0.00     0.201 C 
ENDBRANCH  19  20
ENDBRANCH  18  19
ENDBRANCH  15  18
ENDBRANCH   9  14
ENDBRANCH   7   9
ENDBRANCH   1   7
BRANCH   3  22
HETATM   22  C   UNL     1     -41.237  53.551 -53.350  1.00  0.00     0.104 A 
HETATM   23  N   UNL     1     -40.723  53.474 -52.088  1.00  0.00    -0.257 NA
HETATM   24  C   UNL     1     -39.879  52.460 -51.803  1.00  0.00     0.117 A 
HETATM   25  C   UNL     1     -39.506  51.488 -52.713  1.00  0.00     0.019 A 
HETATM   26  C   UNL     1     -40.026  51.563 -53.998  1.00  0.00     0.004 A 
HETATM   27  C   UNL     1     -40.896  52.602 -54.321  1.00  0.00     0.036 A 
ENDBRANCH   3  22
BRANCH   5  28
HETATM   28  C   UNL     1     -44.079  57.259 -51.796  1.00  0.00     0.434 C 
HETATM   29  F   UNL     1     -43.142  57.966 -51.106  1.00  0.00    -0.165 F 
HETATM   30  F   UNL     1     -44.975  58.182 -52.256  1.00  0.00    -0.165 F 
HETATM   31  F   UNL     1     -44.762  56.533 -50.861  1.00  0.00    -0.165 F 
ENDBRANCH   5  28
TORSDOF 10
ENDMDL
MODEL 6
REMARK VINA RESULT:      -7.0      3.533      5.083
REMARK  10 active torsions:
REMARK  status: ('A' for Active; 'I' for Inactive)
REMARK    1  A    between atoms: C_2  and  C_3 
REMARK    2  A    between atoms: C_3  and  C_4 
REMARK    3  A    between atoms: C_4  and  N_5 
REMARK    4  A    between atoms: C_4  and  C_22 
REMARK    5  A    between atoms: N_5  and  C_6 
REMARK    6  A    between atoms: C_8  and  C_9 
REMARK    7  A    between atoms: C_16  and  C_17 
REMARK       I    between atoms: C_22  and  N_23 
REMARK    8  A    between atoms: N_23  and  C_24 
REMARK    9  A    between atoms: C_24  and  C_25 
REMARK   10  A    between atoms: C_25  and  O_26 
ROOT
HETATM    1  C   UNL     1     -42.371  55.427 -56.079  1.00  0.00     0.108 A 
HETATM    2  N   UNL     1     -41.602  54.557 -55.418  1.00  0.00    -0.215 NA
HETATM    3  C   UNL     1     -41.670  54.538 -54.070  1.00  0.00     0.180 A 
HETATM    4  N   UNL     1     -42.455  55.365 -53.353  1.00  0.00    -0.222 NA
HETATM    5  C   UNL     1     -43.206  56.260 -54.034  1.00  0.00     0.146 A 
HETATM    6  C   UNL     1     -43.197  56.310 -55.418  1.00  0.00     0.080 A 
ENDROOT
BRANCH   1   7
HETATM    7  N   UNL     1     -42.312  55.502 -57.484  1.00  0.00    -0.264 NA
HETATM    8  H   UNL     1     -41.335  55.520 -57.761  1.00  0.00     0.130 HD
BRANCH   7   9
HETATM    9  C   UNL     1     -43.083  56.627 -58.085  1.00  0.00     0.154 C 
BRANCH   9  10
HETATM   10  C   UNL     1     -42.155  57.838 -58.302  1.00  0.00     0.033 C 
BRANCH  10  11
HETATM   11  C   UNL     1     -42.574  59.132 -57.573  1.00  0.00    -0.021 C 
HETATM   12  C   UNL     1     -44.093  59.294 -57.480  1.00  0.00     0.009 C 
HETATM   13  C   UNL     1     -41.972  60.344 -58.291  1.00  0.00     0.009 C 
ENDBRANCH  10  11
ENDBRANCH   9  10
BRANCH   9  14
HETATM   14  C   UNL     1     -43.656  56.217 -59.467  1.00  0.00     0.235 C 
HETATM   15  N   UNL     1     -44.927  55.679 -59.402  1.00  0.00    -0.358 N 
HETATM   16  H   UNL     1     -45.438  55.960 -58.567  1.00  0.00     0.162 HD
HETATM   17  O   UNL     1     -43.004  56.290 -60.506  1.00  0.00    -0.272 OA
BRANCH  15  18
HETATM   18  C   UNL     1     -45.719  55.488 -60.600  1.00  0.00     0.148 C 
BRANCH  18  19
HETATM   19  C   UNL     1     -46.922  56.428 -60.622  1.00  0.00     0.186 C 
BRANCH  19  20
HETATM   20  O   UNL     1     -47.628  56.245 -61.857  1.00  0.00    -0.394 OA
HETATM   21  C   UNL     1     -48.429  57.374 -62.177  1.00  0.00     0.201 C 
ENDBRANCH  19  20
ENDBRANCH  18  19
ENDBRANCH  15  18
ENDBRANCH   9  14
ENDBRANCH   7   9
ENDBRANCH   1   7
BRANCH   3  22
HETATM   22  C   UNL     1     -40.845  53.531 -53.355  1.00  0.00     0.104 A 
HETATM   23  N   UNL     1     -40.647  53.715 -52.017  1.00  0.00    -0.257 NA
HETATM   24  C   UNL     1     -39.916  52.799 -51.347  1.00  0.00     0.117 A 
HETATM   25  C   UNL     1     -39.357  51.679 -51.936  1.00  0.00     0.019 A 
HETATM   26  C   UNL     1     -39.556  51.489 -53.296  1.00  0.00     0.004 A 
HETATM   27  C   UNL     1     -40.303  52.421 -54.013  1.00  0.00     0.036 A 
ENDBRANCH   3  22
BRANCH   5  28
HETATM   28  C   UNL     1     -44.087  57.236 -53.277  1.00  0.00     0.434 C 
HETATM   29  F   UNL     1     -44.491  56.809 -52.049  1.00  0.00    -0.165 F 
HETATM   30  F   UNL     1     -43.471  58.437 -53.067  1.00  0.00    -0.165 F 
HETATM   31  F   UNL     1     -45.231  57.536 -53.963  1.00  0.00    -0.165 F 
ENDBRANCH   5  28
TORSDOF 10
ENDMDL
MODEL 7
REMARK VINA RESULT:      -6.9      2.970      7.164
REMARK  10 active torsions:
REMARK  status: ('A' for Active; 'I' for Inactive)
REMARK    1  A    between atoms: C_2  and  C_3 
REMARK    2  A    between atoms: C_3  and  C_4 
REMARK    3  A    between atoms: C_4  and  N_5 
REMARK    4  A    between atoms: C_4  and  C_22 
REMARK    5  A    between atoms: N_5  and  C_6 
REMARK    6  A    between atoms: C_8  and  C_9 
REMARK    7  A    between atoms: C_16  and  C_17 
REMARK       I    between atoms: C_22  and  N_23 
REMARK    8  A    between atoms: N_23  and  C_24 
REMARK    9  A    between atoms: C_24  and  C_25 
REMARK   10  A    between atoms: C_25  and  O_26 
ROOT
HETATM    1  C   UNL     1     -43.471  55.795 -53.880  1.00  0.00     0.108 A 
HETATM    2  N   UNL     1     -43.490  56.315 -55.111  1.00  0.00    -0.215 NA
HETATM    3  C   UNL     1     -42.743  55.724 -56.067  1.00  0.00     0.180 A 
HETATM    4  N   UNL     1     -41.962  54.650 -55.844  1.00  0.00    -0.222 NA
HETATM    5  C   UNL     1     -41.930  54.152 -54.587  1.00  0.00     0.146 A 
HETATM    6  C   UNL     1     -42.693  54.700 -53.570  1.00  0.00     0.080 A 
ENDROOT
BRANCH   1   7
HETATM    7  N   UNL     1     -44.211  56.396 -52.844  1.00  0.00    -0.264 NA
HETATM    8  H   UNL     1     -45.189  56.409 -53.117  1.00  0.00     0.130 HD
BRANCH   7   9
HETATM    9  C   UNL     1     -43.729  57.744 -52.430  1.00  0.00     0.154 C 
BRANCH   9  10
HETATM   10  C   UNL     1     -44.816  58.453 -51.598  1.00  0.00     0.033 C 
BRANCH  10  11
HETATM   11  C   UNL     1     -45.091  59.922 -51.984  1.00  0.00    -0.021 C 
HETATM   12  C   UNL     1     -46.527  60.355 -51.681  1.00  0.00     0.009 C 
HETATM   13  C   UNL     1     -44.797  60.125 -53.474  1.00  0.00     0.009 C 
ENDBRANCH  10  11
ENDBRANCH   9  10
BRANCH   9  14
HETATM   14  C   UNL     1     -42.462  57.621 -51.544  1.00  0.00     0.235 C 
HETATM   15  N   UNL     1     -42.563  56.651 -50.564  1.00  0.00    -0.358 N 
HETATM   16  H   UNL     1     -43.250  55.932 -50.782  1.00  0.00     0.162 HD
HETATM   17  O   UNL     1     -41.496  58.373 -51.656  1.00  0.00    -0.272 OA
BRANCH  15  18
HETATM   18  C   UNL     1     -41.396  56.215 -49.825  1.00  0.00     0.148 C 
BRANCH  18  19
HETATM   19  C   UNL     1     -41.181  54.710 -49.970  1.00  0.00     0.186 C 
BRANCH  19  20
HETATM   20  O   UNL     1     -41.446  54.081 -48.709  1.00  0.00    -0.394 OA
HETATM   21  C   UNL     1     -40.275  53.992 -47.909  1.00  0.00     0.201 C 
ENDBRANCH  19  20
ENDBRANCH  18  19
ENDBRANCH  15  18
ENDBRANCH   9  14
ENDBRANCH   7   9
ENDBRANCH   1   7
BRANCH   3  22
HETATM   22  C   UNL     1     -42.815  56.286 -57.441  1.00  0.00     0.104 A 
HETATM   23  N   UNL     1     -42.344  57.553 -57.627  1.00  0.00    -0.257 NA
HETATM   24  C   UNL     1     -42.383  58.072 -58.873  1.00  0.00     0.117 A 
HETATM   25  C   UNL     1     -42.871  57.394 -59.975  1.00  0.00     0.019 A 
HETATM   26  C   UNL     1     -43.351  56.106 -59.789  1.00  0.00     0.004 A 
HETATM   27  C   UNL     1     -43.326  55.546 -58.513  1.00  0.00     0.036 A 
ENDBRANCH   3  22
BRANCH   5  28
HETATM   28  C   UNL     1     -41.044  52.961 -54.269  1.00  0.00     0.434 C 
HETATM   29  F   UNL     1     -40.626  52.887 -52.976  1.00  0.00    -0.165 F 
HETATM   30  F   UNL     1     -41.663  51.770 -54.527  1.00  0.00    -0.165 F 
HETATM   31  F   UNL     1     -39.909  52.946 -55.030  1.00  0.00    -0.165 F 
ENDBRANCH   5  28
TORSDOF 10
ENDMDL
MODEL 8
REMARK VINA RESULT:      -6.8      3.842      8.357
REMARK  10 active torsions:
REMARK  status: ('A' for Active; 'I' for Inactive)
REMARK    1  A    between atoms: C_2  and  C_3 
REMARK    2  A    between atoms: C_3  and  C_4 
REMARK    3  A    between atoms: C_4  and  N_5 
REMARK    4  A    between atoms: C_4  and  C_22 
REMARK    5  A    between atoms: N_5  and  C_6 
REMARK    6  A    between atoms: C_8  and  C_9 
REMARK    7  A    between atoms: C_16  and  C_17 
REMARK       I    between atoms: C_22  and  N_23 
REMARK    8  A    between atoms: N_23  and  C_24 
REMARK    9  A    between atoms: C_24  and  C_25 
REMARK   10  A    between atoms: C_25  and  O_26 
ROOT
HETATM    1  C   UNL     1     -42.512  56.197 -57.349  1.00  0.00     0.108 A 
HETATM    2  N   UNL     1     -42.128  57.375 -57.851  1.00  0.00    -0.215 NA
HETATM    3  C   UNL     1     -42.674  57.781 -59.017  1.00  0.00     0.180 A 
HETATM    4  N   UNL     1     -43.569  57.055 -59.714  1.00  0.00    -0.222 NA
HETATM    5  C   UNL     1     -43.927  55.853 -59.208  1.00  0.00     0.146 A 
HETATM    6  C   UNL     1     -43.420  55.393 -58.004  1.00  0.00     0.080 A 
ENDROOT
BRANCH   1   7
HETATM    7  N   UNL     1     -41.948  55.719 -56.151  1.00  0.00    -0.264 NA
HETATM    8  H   UNL     1     -41.326  54.949 -56.377  1.00  0.00     0.130 HD
BRANCH   7   9
HETATM    9  C   UNL     1     -42.934  55.349 -55.097  1.00  0.00     0.154 C 
BRANCH   9  10
HETATM   10  C   UNL     1     -42.489  54.049 -54.400  1.00  0.00     0.033 C 
BRANCH  10  11
HETATM   11  C   UNL     1     -40.988  53.969 -54.046  1.00  0.00    -0.021 C 
HETATM   12  C   UNL     1     -40.340  52.663 -54.508  1.00  0.00     0.009 C 
HETATM   13  C   UNL     1     -40.809  54.124 -52.532  1.00  0.00     0.009 C 
ENDBRANCH  10  11
ENDBRANCH   9  10
BRANCH   9  14
HETATM   14  C   UNL     1     -43.019  56.460 -54.017  1.00  0.00     0.235 C 
HETATM   15  N   UNL     1     -43.928  56.188 -53.013  1.00  0.00    -0.358 N 
HETATM   16  H   UNL     1     -44.125  55.194 -52.910  1.00  0.00     0.162 HD
HETATM   17  O   UNL     1     -42.395  57.515 -54.097  1.00  0.00    -0.272 OA
BRANCH  15  18
HETATM   18  C   UNL     1     -43.951  56.971 -51.795  1.00  0.00     0.148 C 
BRANCH  18  19
HETATM   19  C   UNL     1     -45.030  58.050 -51.852  1.00  0.00     0.186 C 
BRANCH  19  20
HETATM   20  O   UNL     1     -45.553  58.251 -50.532  1.00  0.00    -0.394 OA
HETATM   21  C   UNL     1     -45.617  59.630 -50.195  1.00  0.00     0.201 C 
ENDBRANCH  19  20
ENDBRANCH  18  19
ENDBRANCH  15  18
ENDBRANCH   9  14
ENDBRANCH   7   9
ENDBRANCH   1   7
BRANCH   3  22
HETATM   22  C   UNL     1     -42.272  59.114 -59.535  1.00  0.00     0.104 A 
HETATM   23  N   UNL     1     -41.904  60.059 -58.622  1.00  0.00    -0.257 NA
HETATM   24  C   UNL     1     -41.517  61.270 -59.076  1.00  0.00     0.117 A 
HETATM   25  C   UNL     1     -41.467  61.611 -60.416  1.00  0.00     0.019 A 
HETATM   26  C   UNL     1     -41.842  60.653 -61.347  1.00  0.00     0.004 A 
HETATM   27  C   UNL     1     -42.250  59.396 -60.906  1.00  0.00     0.036 A 
ENDBRANCH   3  22
BRANCH   5  28
HETATM   28  C   UNL     1     -44.909  54.978 -59.964  1.00  0.00     0.434 C 
HETATM   29  F   UNL     1     -45.028  53.707 -59.489  1.00  0.00    -0.165 F 
HETATM   30  F   UNL     1     -46.174  55.494 -59.961  1.00  0.00    -0.165 F 
HETATM   31  F   UNL     1     -44.577  54.854 -61.284  1.00  0.00    -0.165 F 
ENDBRANCH   5  28
TORSDOF 10
ENDMDL
MODEL 9
REMARK VINA RESULT:      -6.7      4.023      7.630
REMARK  10 active torsions:
REMARK  status: ('A' for Active; 'I' for Inactive)
REMARK    1  A    between atoms: C_2  and  C_3 
REMARK    2  A    between atoms: C_3  and  C_4 
REMARK    3  A    between atoms: C_4  and  N_5 
REMARK    4  A    between atoms: C_4  and  C_22 
REMARK    5  A    between atoms: N_5  and  C_6 
REMARK    6  A    between atoms: C_8  and  C_9 
REMARK    7  A    between atoms: C_16  and  C_17 
REMARK       I    between atoms: C_22  and  N_23 
REMARK    8  A    between atoms: N_23  and  C_24 
REMARK    9  A    between atoms: C_24  and  C_25 
REMARK   10  A    between atoms: C_25  and  O_26 
ROOT
HETATM    1  C   UNL     1     -43.933  56.647 -53.600  1.00  0.00     0.108 A 
HETATM    2  N   UNL     1     -43.760  56.961 -54.887  1.00  0.00    -0.215 NA
HETATM    3  C   UNL     1     -42.921  56.203 -55.624  1.00  0.00     0.180 A 
HETATM    4  N   UNL     1     -42.231  55.159 -55.126  1.00  0.00    -0.222 NA
HETATM    5  C   UNL     1     -42.393  54.870 -53.815  1.00  0.00     0.146 A 
HETATM    6  C   UNL     1     -43.259  55.597 -53.015  1.00  0.00     0.080 A 
ENDROOT
BRANCH   1   7
HETATM    7  N   UNL     1     -44.776  57.427 -52.786  1.00  0.00    -0.264 NA
HETATM    8  H   UNL     1     -45.305  58.056 -53.384  1.00  0.00     0.130 HD
BRANCH   7   9
HETATM    9  C   UNL     1     -44.086  58.155 -51.684  1.00  0.00     0.154 C 
BRANCH   9  10
HETATM   10  C   UNL     1     -43.136  59.215 -52.274  1.00  0.00     0.033 C 
BRANCH  10  11
HETATM   11  C   UNL     1     -41.639  59.007 -51.963  1.00  0.00    -0.021 C 
HETATM   12  C   UNL     1     -40.825  58.625 -53.201  1.00  0.00     0.009 C 
HETATM   13  C   UNL     1     -41.482  57.925 -50.891  1.00  0.00     0.009 C 
ENDBRANCH  10  11
ENDBRANCH   9  10
BRANCH   9  14
HETATM   14  C   UNL     1     -45.117  58.890 -50.787  1.00  0.00     0.235 C 
HETATM   15  N   UNL     1     -44.602  60.000 -50.146  1.00  0.00    -0.358 N 
HETATM   16  H   UNL     1     -43.785  60.388 -50.613  1.00  0.00     0.162 HD
HETATM   17  O   UNL     1     -46.258  58.471 -50.605  1.00  0.00    -0.272 OA
BRANCH  15  18
HETATM   18  C   UNL     1     -45.472  60.952 -49.488  1.00  0.00     0.148 C 
BRANCH  18  19
HETATM   19  C   UNL     1     -45.481  60.739 -47.975  1.00  0.00     0.186 C 
BRANCH  19  20
HETATM   20  O   UNL     1     -44.802  61.837 -47.350  1.00  0.00    -0.394 OA
HETATM   21  C   UNL     1     -44.870  63.016 -48.141  1.00  0.00     0.201 C 
ENDBRANCH  19  20
ENDBRANCH  18  19
ENDBRANCH  15  18
ENDBRANCH   9  14
ENDBRANCH   7   9
ENDBRANCH   1   7
BRANCH   3  22
HETATM   22  C   UNL     1     -42.779  56.536 -57.064  1.00  0.00     0.104 A 
HETATM   23  N   UNL     1     -42.280  57.767 -57.378  1.00  0.00    -0.257 NA
HETATM   24  C   UNL     1     -42.126  58.080 -58.683  1.00  0.00     0.117 A 
HETATM   25  C   UNL     1     -42.440  57.225 -59.723  1.00  0.00     0.019 A 
HETATM   26  C   UNL     1     -42.949  55.973 -59.407  1.00  0.00     0.004 A 
HETATM   27  C   UNL     1     -43.122  55.625 -58.069  1.00  0.00     0.036 A 
ENDBRANCH   3  22
BRANCH   5  28
HETATM   28  C   UNL     1     -41.619  53.723 -53.193  1.00  0.00     0.434 C 
HETATM   29  F   UNL     1     -42.041  53.353 -51.953  1.00  0.00    -0.165 F 
HETATM   30  F   UNL     1     -41.667  52.590 -53.955  1.00  0.00    -0.165 F 
HETATM   31  F   UNL     1     -40.289  54.011 -53.064  1.00  0.00    -0.165 F 
ENDBRANCH   5  28
TORSDOF 10
ENDMDL
MODEL 10
REMARK VINA RESULT:      -6.6      3.203      5.504
REMARK  10 active torsions:
REMARK  status: ('A' for Active; 'I' for Inactive)
REMARK    1  A    between atoms: C_2  and  C_3 
REMARK    2  A    between atoms: C_3  and  C_4 
REMARK    3  A    between atoms: C_4  and  N_5 
REMARK    4  A    between atoms: C_4  and  C_22 
REMARK    5  A    between atoms: N_5  and  C_6 
REMARK    6  A    between atoms: C_8  and  C_9 
REMARK    7  A    between atoms: C_16  and  C_17 
REMARK       I    between atoms: C_22  and  N_23 
REMARK    8  A    between atoms: N_23  and  C_24 
REMARK    9  A    between atoms: C_24  and  C_25 
REMARK   10  A    between atoms: C_25  and  O_26 
ROOT
HETATM    1  C   UNL     1     -42.705  54.909 -54.432  1.00  0.00     0.108 A 
HETATM    2  N   UNL     1     -42.064  53.737 -54.383  1.00  0.00    -0.215 NA
HETATM    3  C   UNL     1     -41.253  53.495 -53.331  1.00  0.00     0.180 A 
HETATM    4  N   UNL     1     -41.037  54.379 -52.339  1.00  0.00    -0.222 NA
HETATM    5  C   UNL     1     -41.669  55.572 -52.416  1.00  0.00     0.146 A 
HETATM    6  C   UNL     1     -42.533  55.869 -53.458  1.00  0.00     0.080 A 
ENDROOT
BRANCH   1   7
HETATM    7  N   UNL     1     -43.538  55.217 -55.525  1.00  0.00    -0.264 NA
HETATM    8  H   UNL     1     -43.927  54.350 -55.884  1.00  0.00     0.130 HD
BRANCH   7   9
HETATM    9  C   UNL     1     -42.893  56.026 -56.597  1.00  0.00     0.154 C 
BRANCH   9  10
HETATM   10  C   UNL     1     -43.160  55.378 -57.969  1.00  0.00     0.033 C 
BRANCH  10  11
HETATM   11  C   UNL     1     -43.490  56.362 -59.112  1.00  0.00    -0.021 C 
HETATM   12  C   UNL     1     -44.681  55.909 -59.958  1.00  0.00     0.009 C 
HETATM   13  C   UNL     1     -42.261  56.540 -60.008  1.00  0.00     0.009 C 
ENDBRANCH  10  11
ENDBRANCH   9  10
BRANCH   9  14
HETATM   14  C   UNL     1     -43.484  57.460 -56.627  1.00  0.00     0.235 C 
HETATM   15  N   UNL     1     -44.782  57.534 -56.158  1.00  0.00    -0.358 N 
HETATM   16  H   UNL     1     -45.026  56.766 -55.536  1.00  0.00     0.162 HD
HETATM   17  O   UNL     1     -42.880  58.419 -57.103  1.00  0.00    -0.272 OA
BRANCH  15  18
HETATM   18  C   UNL     1     -45.396  58.812 -55.864  1.00  0.00     0.148 C 
BRANCH  18  19
HETATM   19  C   UNL     1     -44.726  59.487 -54.670  1.00  0.00     0.186 C 
BRANCH  19  20
HETATM   20  O   UNL     1     -45.447  59.141 -53.479  1.00  0.00    -0.394 OA
HETATM   21  C   UNL     1     -44.571  58.798 -52.415  1.00  0.00     0.201 C 
ENDBRANCH  19  20
ENDBRANCH  18  19
ENDBRANCH  15  18
ENDBRANCH   9  14
ENDBRANCH   7   9
ENDBRANCH   1   7
BRANCH   3  22
HETATM   22  C   UNL     1     -40.588  52.168 -53.268  1.00  0.00     0.104 A 
HETATM   23  N   UNL     1     -40.016  51.807 -52.083  1.00  0.00    -0.257 NA
HETATM   24  C   UNL     1     -39.424  50.596 -52.002  1.00  0.00     0.117 A 
HETATM   25  C   UNL     1     -39.366  49.696 -53.049  1.00  0.00     0.019 A 
HETATM   26  C   UNL     1     -39.945  50.060 -54.257  1.00  0.00     0.004 A 
HETATM   27  C   UNL     1     -40.560  51.306 -54.370  1.00  0.00     0.036 A 
ENDBRANCH   3  22
BRANCH   5  28
HETATM   28  C   UNL     1     -41.441  56.619 -51.342  1.00  0.00     0.434 C 
HETATM   29  F   UNL     1     -42.524  56.885 -50.561  1.00  0.00    -0.165 F 
HETATM   30  F   UNL     1     -40.440  56.269 -50.480  1.00  0.00    -0.165 F 
HETATM   31  F   UNL     1     -41.056  57.820 -51.868  1.00  0.00    -0.165 F 
ENDBRANCH   5  28
TORSDOF 10
ENDMDL
