MODEL 1
REMARK VINA RESULT:      -8.2      0.000      0.000
REMARK  4 active torsions:
REMARK  status: ('A' for Active; 'I' for Inactive)
REMARK    1  A    between atoms: C_9  and  C_10 
REMARK    2  A    between atoms: C_11  and  O_12 
REMARK    3  A    between atoms: C_18  and  C_19 
REMARK       I    between atoms: C_19  and  N_20 
REMARK    4  A    between atoms: N_20  and  C_21 
ROOT
HETATM    1  C   UNL     1     -42.062  60.144 -55.677  1.00  0.00     0.070 C 
HETATM    2  C   UNL     1     -41.903  59.086 -54.614  1.00  0.00     0.037 C 
HETATM    3  N   UNL     1     -41.092  59.434 -53.538  1.00  0.00    -0.192 N 
HETATM    4  C   UNL     1     -41.036  58.713 -52.401  1.00  0.00     0.725 A 
HETATM    5  N   UNL     1     -41.677  57.504 -52.335  1.00  0.00    -0.084 N 
HETATM    6  N   UNL     1     -41.582  56.969 -51.098  1.00  0.00    -0.149 NA
HETATM    7  C   UNL     1     -40.831  57.892 -50.487  1.00  0.00     0.275 A 
HETATM    8  N   UNL     1     -40.474  58.974 -51.249  1.00  0.00    -0.054 NA
HETATM    9  C   UNL     1     -42.413  56.900 -53.455  1.00  0.00     0.205 C 
HETATM   10  C   UNL     1     -42.530  57.884 -54.619  1.00  0.00     0.063 C 
HETATM   11  H   UNL     1     -40.714  60.377 -53.519  1.00  0.00     0.184 HD
ENDROOT
BRANCH  10  12
HETATM   12  C   UNL     1     -43.466  57.457 -55.689  1.00  0.00     0.256 C 
HETATM   13  N   UNL     1     -42.821  57.027 -56.830  1.00  0.00    -0.323 N 
HETATM   14  H   UNL     1     -41.809  57.034 -56.813  1.00  0.00     0.169 HD
HETATM   15  O   UNL     1     -44.671  57.508 -55.482  1.00  0.00    -0.267 OA
BRANCH  13  16
HETATM   16  C   UNL     1     -43.414  56.609 -58.039  1.00  0.00     0.035 A 
HETATM   17  C   UNL     1     -43.900  57.483 -59.013  1.00  0.00     0.031 A 
HETATM   18  C   UNL     1     -44.464  56.989 -60.195  1.00  0.00     0.026 A 
HETATM   19  C   UNL     1     -44.540  55.616 -60.408  1.00  0.00     0.034 A 
HETATM   20 CL   UNL     1     -45.224  55.009 -61.865  1.00  0.00    -0.084 Cl
HETATM   21  C   UNL     1     -44.063  54.732 -59.446  1.00  0.00     0.026 A 
HETATM   22  C   UNL     1     -43.506  55.228 -58.262  1.00  0.00     0.031 A 
ENDBRANCH  13  16
ENDBRANCH  10  12
BRANCH   9  23
HETATM   23  C   UNL     1     -41.729  55.594 -53.863  1.00  0.00     0.005 A 
HETATM   24  C   UNL     1     -42.277  54.352 -53.492  1.00  0.00     0.076 A 
HETATM   25  C   UNL     1     -41.638  53.166 -53.870  1.00  0.00     0.037 A 
HETATM   26  C   UNL     1     -40.443  53.204 -54.590  1.00  0.00     0.003 A 
HETATM   27  C   UNL     1     -39.879  54.425 -54.940  1.00  0.00     0.001 A 
HETATM   28  C   UNL     1     -40.515  55.612 -54.581  1.00  0.00     0.012 A 
BRANCH  24  29
HETATM   29  O   UNL     1     -43.455  54.385 -52.795  1.00  0.00    -0.355 OA
HETATM   30  C   UNL     1     -43.404  53.915 -51.452  1.00  0.00     0.210 C 
ENDBRANCH  24  29
ENDBRANCH   9  23
TORSDOF 4
ENDMDL
MODEL 2
REMARK VINA RESULT:      -8.1      3.372      5.924
REMARK  4 active torsions:
REMARK  status: ('A' for Active; 'I' for Inactive)
REMARK    1  A    between atoms: C_9  and  C_10 
REMARK    2  A    between atoms: C_11  and  O_12 
REMARK    3  A    between atoms: C_18  and  C_19 
REMARK       I    between atoms: C_19  and  N_20 
REMARK    4  A    between atoms: N_20  and  C_21 
ROOT
HETATM    1  C   UNL     1     -42.860  55.454 -57.411  1.00  0.00     0.070 C 
HETATM    2  C   UNL     1     -43.149  56.536 -56.400  1.00  0.00     0.037 C 
HETATM    3  N   UNL     1     -43.468  57.782 -56.929  1.00  0.00    -0.192 N 
HETATM    4  C   UNL     1     -43.982  58.782 -56.188  1.00  0.00     0.725 A 
HETATM    5  N   UNL     1     -44.063  58.643 -54.827  1.00  0.00    -0.084 N 
HETATM    6  N   UNL     1     -44.679  59.705 -54.264  1.00  0.00    -0.149 NA
HETATM    7  C   UNL     1     -44.901  60.463 -55.343  1.00  0.00     0.275 A 
HETATM    8  N   UNL     1     -44.488  59.937 -56.540  1.00  0.00    -0.054 NA
HETATM    9  C   UNL     1     -43.584  57.464 -54.092  1.00  0.00     0.205 C 
HETATM   10  C   UNL     1     -43.174  56.352 -55.057  1.00  0.00     0.063 C 
HETATM   11  H   UNL     1     -43.532  57.862 -57.941  1.00  0.00     0.184 HD
ENDROOT
BRANCH  10  12
HETATM   12  C   UNL     1     -42.917  55.042 -54.408  1.00  0.00     0.256 C 
HETATM   13  N   UNL     1     -41.589  54.848 -54.093  1.00  0.00    -0.323 N 
HETATM   14  H   UNL     1     -40.951  55.601 -54.317  1.00  0.00     0.169 HD
HETATM   15  O   UNL     1     -43.855  54.283 -54.206  1.00  0.00    -0.267 OA
BRANCH  13  16
HETATM   16  C   UNL     1     -41.007  53.697 -53.522  1.00  0.00     0.035 A 
HETATM   17  C   UNL     1     -40.602  52.581 -54.257  1.00  0.00     0.031 A 
HETATM   18  C   UNL     1     -40.019  51.481 -53.617  1.00  0.00     0.026 A 
HETATM   19  C   UNL     1     -39.835  51.496 -52.238  1.00  0.00     0.034 A 
HETATM   20 CL   UNL     1     -39.110  50.149 -51.452  1.00  0.00    -0.084 Cl
HETATM   21  C   UNL     1     -40.236  52.600 -51.491  1.00  0.00     0.026 A 
HETATM   22  C   UNL     1     -40.826  53.695 -52.132  1.00  0.00     0.031 A 
ENDBRANCH  13  16
ENDBRANCH  10  12
BRANCH   9  23
HETATM   23  C   UNL     1     -42.443  57.878 -53.162  1.00  0.00     0.005 A 
HETATM   24  C   UNL     1     -42.558  57.717 -51.768  1.00  0.00     0.076 A 
HETATM   25  C   UNL     1     -41.506  58.103 -50.931  1.00  0.00     0.037 A 
HETATM   26  C   UNL     1     -40.349  58.676 -51.465  1.00  0.00     0.003 A 
HETATM   27  C   UNL     1     -40.234  58.863 -52.838  1.00  0.00     0.001 A 
HETATM   28  C   UNL     1     -41.271  58.468 -53.681  1.00  0.00     0.012 A 
BRANCH  24  29
HETATM   29  O   UNL     1     -43.713  57.141 -51.311  1.00  0.00    -0.355 OA
HETATM   30  C   UNL     1     -43.602  55.807 -50.827  1.00  0.00     0.210 C 
ENDBRANCH  24  29
ENDBRANCH   9  23
TORSDOF 4
ENDMDL
MODEL 3
REMARK VINA RESULT:      -7.6      2.622      4.654
REMARK  4 active torsions:
REMARK  status: ('A' for Active; 'I' for Inactive)
REMARK    1  A    between atoms: C_9  and  C_10 
REMARK    2  A    between atoms: C_11  and  O_12 
REMARK    3  A    between atoms: C_18  and  C_19 
REMARK       I    between atoms: C_19  and  N_20 
REMARK    4  A    between atoms: N_20  and  C_21 
ROOT
HETATM    1  C   UNL     1     -40.986  52.377 -53.970  1.00  0.00     0.070 C 
HETATM    2  C   UNL     1     -41.037  53.341 -52.810  1.00  0.00     0.037 C 
HETATM    3  N   UNL     1     -41.002  52.761 -51.546  1.00  0.00    -0.192 N 
HETATM    4  C   UNL     1     -40.798  53.472 -50.421  1.00  0.00     0.725 A 
HETATM    5  N   UNL     1     -40.772  54.841 -50.480  1.00  0.00    -0.084 N 
HETATM    6  N   UNL     1     -40.474  55.376 -49.277  1.00  0.00    -0.149 NA
HETATM    7  C   UNL     1     -40.378  54.270 -48.531  1.00  0.00     0.275 A 
HETATM    8  N   UNL     1     -40.571  53.084 -49.192  1.00  0.00    -0.054 NA
HETATM    9  C   UNL     1     -40.992  55.614 -51.711  1.00  0.00     0.205 C 
HETATM   10  C   UNL     1     -41.053  54.692 -52.927  1.00  0.00     0.063 C 
HETATM   11  H   UNL     1     -40.895  51.752 -51.494  1.00  0.00     0.184 HD
ENDROOT
BRANCH  10  12
HETATM   12  C   UNL     1     -41.021  55.398 -54.233  1.00  0.00     0.256 C 
HETATM   13  N   UNL     1     -42.274  55.574 -54.782  1.00  0.00    -0.323 N 
HETATM   14  H   UNL     1     -43.060  55.229 -54.247  1.00  0.00     0.169 HD
HETATM   15  O   UNL     1     -39.944  55.757 -54.690  1.00  0.00    -0.267 OA
BRANCH  13  16
HETATM   16  C   UNL     1     -42.584  56.156 -56.028  1.00  0.00     0.035 A 
HETATM   17  C   UNL     1     -42.562  57.531 -56.275  1.00  0.00     0.031 A 
HETATM   18  C   UNL     1     -42.870  58.030 -57.546  1.00  0.00     0.026 A 
HETATM   19  C   UNL     1     -43.197  57.155 -58.577  1.00  0.00     0.034 A 
HETATM   20 CL   UNL     1     -43.565  57.768 -60.141  1.00  0.00    -0.084 Cl
HETATM   21  C   UNL     1     -43.226  55.783 -58.346  1.00  0.00     0.026 A 
HETATM   22  C   UNL     1     -42.925  55.286 -57.073  1.00  0.00     0.031 A 
ENDBRANCH  13  16
ENDBRANCH  10  12
BRANCH   9  23
HETATM   23  C   UNL     1     -42.257  56.459 -51.557  1.00  0.00     0.005 A 
HETATM   24  C   UNL     1     -42.225  57.848 -51.784  1.00  0.00     0.076 A 
HETATM   25  C   UNL     1     -43.390  58.608 -51.635  1.00  0.00     0.037 A 
HETATM   26  C   UNL     1     -44.584  58.004 -51.235  1.00  0.00     0.003 A 
HETATM   27  C   UNL     1     -44.622  56.637 -50.984  1.00  0.00     0.001 A 
HETATM   28  C   UNL     1     -43.470  55.869 -51.143  1.00  0.00     0.012 A 
BRANCH  24  29
HETATM   29  O   UNL     1     -41.026  58.376 -52.182  1.00  0.00    -0.355 OA
HETATM   30  C   UNL     1     -41.049  59.167 -53.365  1.00  0.00     0.210 C 
ENDBRANCH  24  29
ENDBRANCH   9  23
TORSDOF 4
ENDMDL
MODEL 4
REMARK VINA RESULT:      -7.3      3.216      6.788
REMARK  4 active torsions:
REMARK  status: ('A' for Active; 'I' for Inactive)
REMARK    1  A    between atoms: C_9  and  C_10 
REMARK    2  A    between atoms: C_11  and  O_12 
REMARK    3  A    between atoms: C_18  and  C_19 
REMARK       I    between atoms: C_19  and  N_20 
REMARK    4  A    between atoms: N_20  and  C_21 
ROOT
HETATM    1  C   UNL     1     -42.752  59.582 -55.226  1.00  0.00     0.070 C 
HETATM    2  C   UNL     1     -42.685  59.156 -56.671  1.00  0.00     0.037 C 
HETATM    3  N   UNL     1     -42.608  60.189 -57.599  1.00  0.00    -0.192 N 
HETATM    4  C   UNL     1     -42.302  59.988 -58.895  1.00  0.00     0.725 A 
HETATM    5  N   UNL     1     -42.207  58.709 -59.377  1.00  0.00    -0.084 N 
HETATM    6  N   UNL     1     -41.811  58.702 -60.669  1.00  0.00    -0.149 NA
HETATM    7  C   UNL     1     -41.731  60.015 -60.909  1.00  0.00     0.275 A 
HETATM    8  N   UNL     1     -42.025  60.836 -59.852  1.00  0.00    -0.054 NA
HETATM    9  C   UNL     1     -42.456  57.506 -58.570  1.00  0.00     0.205 C 
HETATM   10  C   UNL     1     -42.636  57.869 -57.097  1.00  0.00     0.063 C 
HETATM   11  H   UNL     1     -42.551  61.140 -57.242  1.00  0.00     0.184 HD
ENDROOT
BRANCH  10  12
HETATM   12  C   UNL     1     -42.642  56.705 -56.175  1.00  0.00     0.256 C 
HETATM   13  N   UNL     1     -41.381  56.355 -55.741  1.00  0.00    -0.323 N 
HETATM   14  H   UNL     1     -40.610  56.919 -56.073  1.00  0.00     0.169 HD
HETATM   15  O   UNL     1     -43.709  56.182 -55.883  1.00  0.00    -0.267 OA
BRANCH  13  16
HETATM   16  C   UNL     1     -41.037  55.270 -54.907  1.00  0.00     0.035 A 
HETATM   17  C   UNL     1     -40.523  54.059 -55.375  1.00  0.00     0.031 A 
HETATM   18  C   UNL     1     -40.192  53.034 -54.481  1.00  0.00     0.026 A 
HETATM   19  C   UNL     1     -40.371  53.219 -53.114  1.00  0.00     0.034 A 
HETATM   20 CL   UNL     1     -39.955  51.963 -52.014  1.00  0.00    -0.084 Cl
HETATM   21  C   UNL     1     -40.885  54.419 -52.632  1.00  0.00     0.026 A 
HETATM   22  C   UNL     1     -41.222  55.440 -53.528  1.00  0.00     0.031 A 
ENDBRANCH  13  16
ENDBRANCH  10  12
BRANCH   9  23
HETATM   23  C   UNL     1     -43.664  56.758 -59.137  1.00  0.00     0.005 A 
HETATM   24  C   UNL     1     -44.939  57.354 -59.141  1.00  0.00     0.076 A 
HETATM   25  C   UNL     1     -46.034  56.656 -59.661  1.00  0.00     0.037 A 
HETATM   26  C   UNL     1     -45.880  55.358 -60.152  1.00  0.00     0.003 A 
HETATM   27  C   UNL     1     -44.629  54.750 -60.131  1.00  0.00     0.001 A 
HETATM   28  C   UNL     1     -43.529  55.443 -59.628  1.00  0.00     0.012 A 
BRANCH  24  29
HETATM   29  O   UNL     1     -45.021  58.631 -58.654  1.00  0.00    -0.355 OA
HETATM   30  C   UNL     1     -46.165  58.929 -57.861  1.00  0.00     0.210 C 
ENDBRANCH  24  29
ENDBRANCH   9  23
TORSDOF 4
ENDMDL
MODEL 5
REMARK VINA RESULT:      -7.1      3.111      6.430
REMARK  4 active torsions:
REMARK  status: ('A' for Active; 'I' for Inactive)
REMARK    1  A    between atoms: C_9  and  C_10 
REMARK    2  A    between atoms: C_11  and  O_12 
REMARK    3  A    between atoms: C_18  and  C_19 
REMARK       I    between atoms: C_19  and  N_20 
REMARK    4  A    between atoms: N_20  and  C_21 
ROOT
HETATM    1  C   UNL     1     -42.102  59.620 -53.510  1.00  0.00     0.070 C 
HETATM    2  C   UNL     1     -42.259  59.589 -55.010  1.00  0.00     0.037 C 
HETATM    3  N   UNL     1     -42.155  60.820 -55.651  1.00  0.00    -0.192 N 
HETATM    4  C   UNL     1     -42.031  60.941 -56.986  1.00  0.00     0.725 A 
HETATM    5  N   UNL     1     -42.159  59.833 -57.781  1.00  0.00    -0.084 N 
HETATM    6  N   UNL     1     -41.921  60.132 -59.077  1.00  0.00    -0.149 NA
HETATM    7  C   UNL     1     -41.698  61.448 -58.990  1.00  0.00     0.275 A 
HETATM    8  N   UNL     1     -41.758  61.983 -57.729  1.00  0.00    -0.054 NA
HETATM    9  C   UNL     1     -42.468  58.489 -57.274  1.00  0.00     0.205 C 
HETATM   10  C   UNL     1     -42.427  58.463 -55.747  1.00  0.00     0.063 C 
HETATM   11  H   UNL     1     -41.935  61.631 -55.079  1.00  0.00     0.184 HD
ENDROOT
BRANCH  10  12
HETATM   12  C   UNL     1     -42.478  57.102 -55.156  1.00  0.00     0.256 C 
HETATM   13  N   UNL     1     -41.229  56.582 -54.892  1.00  0.00    -0.323 N 
HETATM   14  H   UNL     1     -40.434  57.170 -55.107  1.00  0.00     0.169 HD
HETATM   15  O   UNL     1     -43.566  56.581 -54.953  1.00  0.00    -0.267 OA
BRANCH  13  16
HETATM   16  C   UNL     1     -40.928  55.301 -54.383  1.00  0.00     0.035 A 
HETATM   17  C   UNL     1     -40.509  54.227 -55.171  1.00  0.00     0.031 A 
HETATM   18  C   UNL     1     -40.216  52.989 -54.588  1.00  0.00     0.026 A 
HETATM   19  C   UNL     1     -40.337  52.822 -53.212  1.00  0.00     0.034 A 
HETATM   20 CL   UNL     1     -39.968  51.303 -52.495  1.00  0.00    -0.084 Cl
HETATM   21  C   UNL     1     -40.757  53.881 -52.414  1.00  0.00     0.026 A 
HETATM   22  C   UNL     1     -41.056  55.116 -52.999  1.00  0.00     0.031 A 
ENDBRANCH  13  16
ENDBRANCH  10  12
BRANCH   9  23
HETATM   23  C   UNL     1     -43.820  58.038 -57.828  1.00  0.00     0.005 A 
HETATM   24  C   UNL     1     -43.906  56.944 -58.710  1.00  0.00     0.076 A 
HETATM   25  C   UNL     1     -45.150  56.546 -59.210  1.00  0.00     0.037 A 
HETATM   26  C   UNL     1     -46.309  57.244 -58.865  1.00  0.00     0.003 A 
HETATM   27  C   UNL     1     -46.234  58.342 -58.015  1.00  0.00     0.001 A 
HETATM   28  C   UNL     1     -45.001  58.737 -57.499  1.00  0.00     0.012 A 
BRANCH  24  29
HETATM   29  O   UNL     1     -42.735  56.298 -59.000  1.00  0.00    -0.355 OA
HETATM   30  C   UNL     1     -42.111  56.650 -60.231  1.00  0.00     0.210 C 
ENDBRANCH  24  29
ENDBRANCH   9  23
TORSDOF 4
ENDMDL
MODEL 6
REMARK VINA RESULT:      -7.0      3.030      6.116
REMARK  4 active torsions:
REMARK  status: ('A' for Active; 'I' for Inactive)
REMARK    1  A    between atoms: C_9  and  C_10 
REMARK    2  A    between atoms: C_11  and  O_12 
REMARK    3  A    between atoms: C_18  and  C_19 
REMARK       I    between atoms: C_19  and  N_20 
REMARK    4  A    between atoms: N_20  and  C_21 
ROOT
HETATM    1  C   UNL     1     -44.411  58.384 -51.816  1.00  0.00     0.070 C 
HETATM    2  C   UNL     1     -44.205  58.941 -53.203  1.00  0.00     0.037 C 
HETATM    3  N   UNL     1     -44.408  60.311 -53.336  1.00  0.00    -0.192 N 
HETATM    4  C   UNL     1     -44.038  61.003 -54.431  1.00  0.00     0.725 A 
HETATM    5  N   UNL     1     -43.579  60.330 -55.532  1.00  0.00    -0.084 N 
HETATM    6  N   UNL     1     -43.178  61.189 -56.496  1.00  0.00    -0.149 NA
HETATM    7  C   UNL     1     -43.468  62.360 -55.919  1.00  0.00     0.275 A 
HETATM    8  N   UNL     1     -43.997  62.291 -54.656  1.00  0.00    -0.054 NA
HETATM    9  C   UNL     1     -43.492  58.866 -55.625  1.00  0.00     0.205 C 
HETATM   10  C   UNL     1     -43.789  58.219 -54.273  1.00  0.00     0.063 C 
HETATM   11  H   UNL     1     -44.627  60.838 -52.494  1.00  0.00     0.184 HD
ENDROOT
BRANCH  10  12
HETATM   12  C   UNL     1     -43.481  56.768 -54.208  1.00  0.00     0.256 C 
HETATM   13  N   UNL     1     -42.155  56.511 -53.927  1.00  0.00    -0.323 N 
HETATM   14  H   UNL     1     -41.554  57.312 -53.785  1.00  0.00     0.169 HD
HETATM   15  O   UNL     1     -44.380  55.959 -54.389  1.00  0.00    -0.267 OA
BRANCH  13  16
HETATM   16  C   UNL     1     -41.530  55.249 -53.849  1.00  0.00     0.035 A 
HETATM   17  C   UNL     1     -41.583  54.421 -52.726  1.00  0.00     0.031 A 
HETATM   18  C   UNL     1     -40.946  53.174 -52.731  1.00  0.00     0.026 A 
HETATM   19  C   UNL     1     -40.258  52.749 -53.863  1.00  0.00     0.034 A 
HETATM   20 CL   UNL     1     -39.484  51.213 -53.873  1.00  0.00    -0.084 Cl
HETATM   21  C   UNL     1     -40.194  53.564 -54.990  1.00  0.00     0.026 A 
HETATM   22  C   UNL     1     -40.824  54.813 -54.980  1.00  0.00     0.031 A 
ENDBRANCH  13  16
ENDBRANCH  10  12
BRANCH   9  23
HETATM   23  C   UNL     1     -44.431  58.373 -56.726  1.00  0.00     0.005 A 
HETATM   24  C   UNL     1     -43.920  57.753 -57.882  1.00  0.00     0.076 A 
HETATM   25  C   UNL     1     -44.792  57.310 -58.881  1.00  0.00     0.037 A 
HETATM   26  C   UNL     1     -46.170  57.502 -58.756  1.00  0.00     0.003 A 
HETATM   27  C   UNL     1     -46.685  58.135 -57.630  1.00  0.00     0.001 A 
HETATM   28  C   UNL     1     -45.825  58.567 -56.622  1.00  0.00     0.012 A 
BRANCH  24  29
HETATM   29  O   UNL     1     -42.562  57.588 -57.938  1.00  0.00    -0.355 OA
HETATM   30  C   UNL     1     -41.889  58.264 -58.995  1.00  0.00     0.210 C 
ENDBRANCH  24  29
ENDBRANCH   9  23
TORSDOF 4
ENDMDL
MODEL 7
REMARK VINA RESULT:      -6.8      3.476      5.475
REMARK  4 active torsions:
REMARK  status: ('A' for Active; 'I' for Inactive)
REMARK    1  A    between atoms: C_9  and  C_10 
REMARK    2  A    between atoms: C_11  and  O_12 
REMARK    3  A    between atoms: C_18  and  C_19 
REMARK       I    between atoms: C_19  and  N_20 
REMARK    4  A    between atoms: N_20  and  C_21 
ROOT
HETATM    1  C   UNL     1     -44.126  57.721 -56.254  1.00  0.00     0.070 C 
HETATM    2  C   UNL     1     -44.099  57.955 -54.763  1.00  0.00     0.037 C 
HETATM    3  N   UNL     1     -44.956  58.945 -54.295  1.00  0.00    -0.192 N 
HETATM    4  C   UNL     1     -45.233  59.116 -52.988  1.00  0.00     0.725 A 
HETATM    5  N   UNL     1     -44.540  58.397 -52.051  1.00  0.00    -0.084 N 
HETATM    6  N   UNL     1     -45.009  58.637 -50.807  1.00  0.00    -0.149 NA
HETATM    7  C   UNL     1     -45.956  59.544 -51.071  1.00  0.00     0.275 A 
HETATM    8  N   UNL     1     -46.124  59.867 -52.393  1.00  0.00    -0.054 NA
HETATM    9  C   UNL     1     -43.460  57.453 -52.372  1.00  0.00     0.205 C 
HETATM   10  C   UNL     1     -43.358  57.239 -53.881  1.00  0.00     0.063 C 
HETATM   11  H   UNL     1     -45.567  59.397 -54.972  1.00  0.00     0.184 HD
ENDROOT
BRANCH  10  12
HETATM   12  C   UNL     1     -42.470  56.119 -54.282  1.00  0.00     0.256 C 
HETATM   13  N   UNL     1     -42.511  55.057 -53.403  1.00  0.00    -0.323 N 
HETATM   14  H   UNL     1     -43.134  55.144 -52.611  1.00  0.00     0.169 HD
HETATM   15  O   UNL     1     -41.814  56.217 -55.311  1.00  0.00    -0.267 OA
BRANCH  13  16
HETATM   16  C   UNL     1     -41.753  53.869 -53.465  1.00  0.00     0.035 A 
HETATM   17  C   UNL     1     -41.817  52.958 -54.522  1.00  0.00     0.031 A 
HETATM   18  C   UNL     1     -41.021  51.806 -54.516  1.00  0.00     0.026 A 
HETATM   19  C   UNL     1     -40.154  51.565 -53.455  1.00  0.00     0.034 A 
HETATM   20 CL   UNL     1     -39.169  50.155 -53.454  1.00  0.00    -0.084 Cl
HETATM   21  C   UNL     1     -40.081  52.462 -52.394  1.00  0.00     0.026 A 
HETATM   22  C   UNL     1     -40.883  53.609 -52.398  1.00  0.00     0.031 A 
ENDBRANCH  13  16
ENDBRANCH  10  12
BRANCH   9  23
HETATM   23  C   UNL     1     -42.150  57.958 -51.765  1.00  0.00     0.005 A 
HETATM   24  C   UNL     1     -41.531  57.260 -50.712  1.00  0.00     0.076 A 
HETATM   25  C   UNL     1     -40.335  57.736 -50.166  1.00  0.00     0.037 A 
HETATM   26  C   UNL     1     -39.761  58.918 -50.639  1.00  0.00     0.003 A 
HETATM   27  C   UNL     1     -40.376  59.630 -51.662  1.00  0.00     0.001 A 
HETATM   28  C   UNL     1     -41.561  59.155 -52.223  1.00  0.00     0.012 A 
BRANCH  24  29
HETATM   29  O   UNL     1     -42.140  56.104 -50.301  1.00  0.00    -0.355 OA
HETATM   30  C   UNL     1     -41.450  55.347 -49.312  1.00  0.00     0.210 C 
ENDBRANCH  24  29
ENDBRANCH   9  23
TORSDOF 4
ENDMDL
MODEL 8
REMARK VINA RESULT:      -6.8      3.035      6.107
REMARK  4 active torsions:
REMARK  status: ('A' for Active; 'I' for Inactive)
REMARK    1  A    between atoms: C_9  and  C_10 
REMARK    2  A    between atoms: C_11  and  O_12 
REMARK    3  A    between atoms: C_18  and  C_19 
REMARK       I    between atoms: C_19  and  N_20 
REMARK    4  A    between atoms: N_20  and  C_21 
ROOT
HETATM    1  C   UNL     1     -43.966  58.199 -52.855  1.00  0.00     0.070 C 
HETATM    2  C   UNL     1     -43.454  58.472 -54.247  1.00  0.00     0.037 C 
HETATM    3  N   UNL     1     -43.495  59.803 -54.652  1.00  0.00    -0.192 N 
HETATM    4  C   UNL     1     -42.864  60.252 -55.754  1.00  0.00     0.725 A 
HETATM    5  N   UNL     1     -42.277  59.358 -56.609  1.00  0.00    -0.084 N 
HETATM    6  N   UNL     1     -41.624  59.993 -57.607  1.00  0.00    -0.149 NA
HETATM    7  C   UNL     1     -41.900  61.268 -57.310  1.00  0.00     0.275 A 
HETATM    8  N   UNL     1     -42.657  61.470 -56.185  1.00  0.00    -0.054 NA
HETATM    9  C   UNL     1     -42.317  57.900 -56.429  1.00  0.00     0.205 C 
HETATM   10  C   UNL     1     -42.920  57.538 -55.072  1.00  0.00     0.063 C 
HETATM   11  H   UNL     1     -43.814  60.491 -53.974  1.00  0.00     0.184 HD
ENDROOT
BRANCH  10  12
HETATM   12  C   UNL     1     -42.771  56.109 -54.698  1.00  0.00     0.256 C 
HETATM   13  N   UNL     1     -41.508  55.801 -54.237  1.00  0.00    -0.323 N 
HETATM   14  H   UNL     1     -40.841  56.560 -54.190  1.00  0.00     0.169 HD
HETATM   15  O   UNL     1     -43.732  55.359 -54.813  1.00  0.00    -0.267 OA
BRANCH  13  16
HETATM   16  C   UNL     1     -41.027  54.532 -53.854  1.00  0.00     0.035 A 
HETATM   17  C   UNL     1     -40.592  53.557 -54.755  1.00  0.00     0.031 A 
HETATM   18  C   UNL     1     -40.114  52.325 -54.294  1.00  0.00     0.026 A 
HETATM   19  C   UNL     1     -40.064  52.065 -52.928  1.00  0.00     0.034 A 
HETATM   20 CL   UNL     1     -39.467  50.555 -52.361  1.00  0.00    -0.084 Cl
HETATM   21  C   UNL     1     -40.496  53.025 -52.017  1.00  0.00     0.026 A 
HETATM   22  C   UNL     1     -40.981  54.253 -52.480  1.00  0.00     0.031 A 
ENDBRANCH  13  16
ENDBRANCH  10  12
BRANCH   9  23
HETATM   23  C   UNL     1     -43.080  57.267 -57.593  1.00  0.00     0.005 A 
HETATM   24  C   UNL     1     -44.442  57.559 -57.801  1.00  0.00     0.076 A 
HETATM   25  C   UNL     1     -45.126  56.969 -58.869  1.00  0.00     0.037 A 
HETATM   26  C   UNL     1     -44.478  56.070 -59.717  1.00  0.00     0.003 A 
HETATM   27  C   UNL     1     -43.140  55.755 -59.507  1.00  0.00     0.001 A 
HETATM   28  C   UNL     1     -42.445  56.348 -58.454  1.00  0.00     0.012 A 
BRANCH  24  29
HETATM   29  O   UNL     1     -45.015  58.455 -56.940  1.00  0.00    -0.355 OA
HETATM   30  C   UNL     1     -46.192  59.108 -57.404  1.00  0.00     0.210 C 
ENDBRANCH  24  29
ENDBRANCH   9  23
TORSDOF 4
ENDMDL
MODEL 9
REMARK VINA RESULT:      -6.7      2.592      4.616
REMARK  4 active torsions:
REMARK  status: ('A' for Active; 'I' for Inactive)
REMARK    1  A    between atoms: C_9  and  C_10 
REMARK    2  A    between atoms: C_11  and  O_12 
REMARK    3  A    between atoms: C_18  and  C_19 
REMARK       I    between atoms: C_19  and  N_20 
REMARK    4  A    between atoms: N_20  and  C_21 
ROOT
HETATM    1  C   UNL     1     -43.481  54.036 -55.050  1.00  0.00     0.070 C 
HETATM    2  C   UNL     1     -43.026  54.927 -53.920  1.00  0.00     0.037 C 
HETATM    3  N   UNL     1     -42.595  54.268 -52.773  1.00  0.00    -0.192 N 
HETATM    4  C   UNL     1     -41.939  54.891 -51.775  1.00  0.00     0.725 A 
HETATM    5  N   UNL     1     -41.811  56.255 -51.797  1.00  0.00    -0.084 N 
HETATM    6  N   UNL     1     -41.055  56.690 -50.766  1.00  0.00    -0.149 NA
HETATM    7  C   UNL     1     -40.800  55.536 -50.141  1.00  0.00     0.275 A 
HETATM    8  N   UNL     1     -41.324  54.411 -50.724  1.00  0.00    -0.054 NA
HETATM    9  C   UNL     1     -42.384  57.117 -52.840  1.00  0.00     0.205 C 
HETATM   10  C   UNL     1     -42.959  56.279 -53.980  1.00  0.00     0.063 C 
HETATM   11  H   UNL     1     -42.569  53.252 -52.795  1.00  0.00     0.184 HD
ENDROOT
BRANCH  10  12
HETATM   12  C   UNL     1     -43.331  57.061 -55.187  1.00  0.00     0.256 C 
HETATM   13  N   UNL     1     -42.284  57.220 -56.071  1.00  0.00    -0.323 N 
HETATM   14  H   UNL     1     -41.404  56.787 -55.819  1.00  0.00     0.169 HD
HETATM   15  O   UNL     1     -44.477  57.473 -55.300  1.00  0.00    -0.267 OA
BRANCH  13  16
HETATM   16  C   UNL     1     -42.290  57.949 -57.277  1.00  0.00     0.035 A 
HETATM   17  C   UNL     1     -42.050  59.323 -57.360  1.00  0.00     0.031 A 
HETATM   18  C   UNL     1     -42.059  59.973 -58.599  1.00  0.00     0.026 A 
HETATM   19  C   UNL     1     -42.305  59.250 -59.762  1.00  0.00     0.034 A 
HETATM   20 CL   UNL     1     -42.306  60.048 -61.286  1.00  0.00    -0.084 Cl
HETATM   21  C   UNL     1     -42.548  57.882 -59.697  1.00  0.00     0.026 A 
HETATM   22  C   UNL     1     -42.546  57.234 -58.456  1.00  0.00     0.031 A 
ENDBRANCH  13  16
ENDBRANCH  10  12
BRANCH   9  23
HETATM   23  C   UNL     1     -43.428  58.042 -52.213  1.00  0.00     0.005 A 
HETATM   24  C   UNL     1     -43.230  59.436 -52.189  1.00  0.00     0.076 A 
HETATM   25  C   UNL     1     -44.193  60.268 -51.609  1.00  0.00     0.037 A 
HETATM   26  C   UNL     1     -45.340  59.726 -51.025  1.00  0.00     0.003 A 
HETATM   27  C   UNL     1     -45.534  58.349 -51.020  1.00  0.00     0.001 A 
HETATM   28  C   UNL     1     -44.587  57.512 -51.609  1.00  0.00     0.012 A 
BRANCH  24  29
HETATM   29  O   UNL     1     -42.090  59.904 -52.786  1.00  0.00    -0.355 OA
HETATM   30  C   UNL     1     -42.252  60.507 -54.065  1.00  0.00     0.210 C 
ENDBRANCH  24  29
ENDBRANCH   9  23
TORSDOF 4
ENDMDL
MODEL 10
REMARK VINA RESULT:      -6.6      3.659      7.439
REMARK  4 active torsions:
REMARK  status: ('A' for Active; 'I' for Inactive)
REMARK    1  A    between atoms: C_9  and  C_10 
REMARK    2  A    between atoms: C_11  and  O_12 
REMARK    3  A    between atoms: C_18  and  C_19 
REMARK       I    between atoms: C_19  and  N_20 
REMARK    4  A    between atoms: N_20  and  C_21 
ROOT
HETATM    1  C   UNL     1     -44.651  54.670 -60.106  1.00  0.00     0.070 C 
HETATM    2  C   UNL     1     -44.897  56.122 -59.782  1.00  0.00     0.037 C 
HETATM    3  N   UNL     1     -45.912  56.736 -60.510  1.00  0.00    -0.192 N 
HETATM    4  C   UNL     1     -46.420  57.940 -60.185  1.00  0.00     0.725 A 
HETATM    5  N   UNL     1     -45.829  58.678 -59.194  1.00  0.00    -0.084 N 
HETATM    6  N   UNL     1     -46.522  59.812 -58.951  1.00  0.00    -0.149 NA
HETATM    7  C   UNL     1     -47.493  59.709 -59.865  1.00  0.00     0.275 A 
HETATM    8  N   UNL     1     -47.466  58.580 -60.642  1.00  0.00    -0.054 NA
HETATM    9  C   UNL     1     -44.626  58.258 -58.462  1.00  0.00     0.205 C 
HETATM   10  C   UNL     1     -44.251  56.820 -58.815  1.00  0.00     0.063 C 
HETATM   11  H   UNL     1     -46.440  56.159 -61.160  1.00  0.00     0.184 HD
ENDROOT
BRANCH  10  12
HETATM   12  C   UNL     1     -43.205  56.228 -57.943  1.00  0.00     0.256 C 
HETATM   13  N   UNL     1     -43.699  55.782 -56.735  1.00  0.00    -0.323 N 
HETATM   14  H   UNL     1     -44.694  55.888 -56.581  1.00  0.00     0.169 HD
HETATM   15  O   UNL     1     -42.051  56.177 -58.347  1.00  0.00    -0.267 OA
BRANCH  13  16
HETATM   16  C   UNL     1     -42.966  55.222 -55.669  1.00  0.00     0.035 A 
HETATM   17  C   UNL     1     -41.643  54.787 -55.776  1.00  0.00     0.031 A 
HETATM   18  C   UNL     1     -40.978  54.254 -54.665  1.00  0.00     0.026 A 
HETATM   19  C   UNL     1     -41.633  54.159 -53.442  1.00  0.00     0.034 A 
HETATM   20 CL   UNL     1     -40.812  53.513 -52.075  1.00  0.00    -0.084 Cl
HETATM   21  C   UNL     1     -42.952  54.586 -53.320  1.00  0.00     0.026 A 
HETATM   22  C   UNL     1     -43.618  55.111 -54.433  1.00  0.00     0.031 A 
ENDBRANCH  13  16
ENDBRANCH  10  12
BRANCH   9  23
HETATM   23  C   UNL     1     -43.491  59.243 -58.748  1.00  0.00     0.005 A 
HETATM   24  C   UNL     1     -42.842  59.915 -57.695  1.00  0.00     0.076 A 
HETATM   25  C   UNL     1     -41.808  60.815 -57.974  1.00  0.00     0.037 A 
HETATM   26  C   UNL     1     -41.431  61.075 -59.292  1.00  0.00     0.003 A 
HETATM   27  C   UNL     1     -42.082  60.436 -60.342  1.00  0.00     0.001 A 
HETATM   28  C   UNL     1     -43.104  59.527 -60.074  1.00  0.00     0.012 A 
BRANCH  24  29
HETATM   29  O   UNL     1     -43.253  59.608 -56.426  1.00  0.00    -0.355 OA
HETATM   30  C   UNL     1     -42.287  58.987 -55.584  1.00  0.00     0.210 C 
ENDBRANCH  24  29
ENDBRANCH   9  23
TORSDOF 4
ENDMDL
