MODEL 1
REMARK VINA RESULT:      -7.2      0.000      0.000
REMARK  5 active torsions:
REMARK  status: ('A' for Active; 'I' for Inactive)
REMARK    1  A    between atoms: C_3  and  N_4 
REMARK       I    between atoms: N_4  and  C_5 
REMARK       I    between atoms: C_5  and  N_6 
REMARK    2  A    between atoms: N_6  and  C_7 
REMARK    3  A    between atoms: C_7  and  C_8 
REMARK    4  A    between atoms: C_8  and  O_9 
REMARK    5  A    between atoms: O_9  and  C_10 
ROOT
HETATM    1  N   UNL     1     -42.130  56.491 -52.154  1.00  0.00    -0.307 N 
HETATM    2  C   UNL     1     -42.648  55.350 -51.608  1.00  0.00     0.320 C 
HETATM    3  N   UNL     1     -42.670  54.266 -52.437  1.00  0.00    -0.340 N 
HETATM    4  O   UNL     1     -43.045  55.205 -50.458  1.00  0.00    -0.247 OA
HETATM    5  H   UNL     1     -41.426  56.302 -52.849  1.00  0.00     0.170 HD
HETATM    6  H   UNL     1     -43.134  53.476 -51.999  1.00  0.00     0.164 HD
ENDROOT
BRANCH   3   7
HETATM    7  C   UNL     1     -42.515  54.195 -53.885  1.00  0.00     0.156 C 
BRANCH   7   8
HETATM    8  C   UNL     1     -41.089  53.799 -54.318  1.00  0.00     0.142 C 
HETATM    9  C   UNL     1     -40.369  54.951 -55.016  1.00  0.00     0.042 C 
BRANCH   8  10
HETATM   10  O   UNL     1     -40.294  53.443 -53.176  1.00  0.00    -0.343 OA
BRANCH  10  11
HETATM   11  C   UNL     1     -40.079  52.110 -52.941  1.00  0.00     0.091 A 
HETATM   12  C   UNL     1     -39.921  51.704 -51.607  1.00  0.00     0.067 A 
HETATM   13 CL   UNL     1     -40.073  52.829 -50.304  1.00  0.00    -0.081 Cl
HETATM   14  C   UNL     1     -39.648  50.369 -51.298  1.00  0.00     0.026 A 
HETATM   15  C   UNL     1     -39.521  49.429 -52.320  1.00  0.00     0.002 A 
HETATM   16  C   UNL     1     -39.654  49.828 -53.648  1.00  0.00     0.003 A 
HETATM   17  C   UNL     1     -39.920  51.166 -53.959  1.00  0.00     0.038 A 
ENDBRANCH  10  11
ENDBRANCH   8  10
ENDBRANCH   7   8
ENDBRANCH   3   7
BRANCH   1  18
HETATM   18  C   UNL     1     -42.078  57.793 -51.597  1.00  0.00     0.059 A 
HETATM   19  C   UNL     1     -42.966  58.853 -51.829  1.00  0.00    -0.032 A 
HETATM   20  C   UNL     1     -44.132  58.815 -52.773  1.00  0.00     0.050 C 
HETATM   21  C   UNL     1     -42.749  60.063 -51.141  1.00  0.00     0.028 A 
HETATM   22  C   UNL     1     -41.647  60.202 -50.314  1.00  0.00     0.117 A 
HETATM   23  N   UNL     1     -40.743  59.228 -50.119  1.00  0.00    -0.271 NA
HETATM   24  C   UNL     1     -40.983  58.060 -50.761  1.00  0.00     0.146 A 
ENDBRANCH   1  18
TORSDOF 5
ENDMDL
MODEL 2
REMARK VINA RESULT:      -7.2      2.419      2.908
REMARK  5 active torsions:
REMARK  status: ('A' for Active; 'I' for Inactive)
REMARK    1  A    between atoms: C_3  and  N_4 
REMARK       I    between atoms: N_4  and  C_5 
REMARK       I    between atoms: C_5  and  N_6 
REMARK    2  A    between atoms: N_6  and  C_7 
REMARK    3  A    between atoms: C_7  and  C_8 
REMARK    4  A    between atoms: C_8  and  O_9 
REMARK    5  A    between atoms: O_9  and  C_10 
ROOT
HETATM    1  N   UNL     1     -44.525  57.130 -52.681  1.00  0.00    -0.307 N 
HETATM    2  C   UNL     1     -44.766  57.091 -54.026  1.00  0.00     0.320 C 
HETATM    3  N   UNL     1     -44.511  55.894 -54.629  1.00  0.00    -0.340 N 
HETATM    4  O   UNL     1     -45.219  57.999 -54.713  1.00  0.00    -0.247 OA
HETATM    5  H   UNL     1     -44.667  56.237 -52.237  1.00  0.00     0.170 HD
HETATM    6  H   UNL     1     -44.637  55.953 -55.635  1.00  0.00     0.164 HD
ENDROOT
BRANCH   3   7
HETATM    7  C   UNL     1     -43.749  54.749 -54.146  1.00  0.00     0.156 C 
BRANCH   7   8
HETATM    8  C   UNL     1     -42.627  54.322 -55.115  1.00  0.00     0.142 C 
HETATM    9  C   UNL     1     -42.687  55.101 -56.428  1.00  0.00     0.042 C 
BRANCH   8  10
HETATM   10  O   UNL     1     -41.337  54.577 -54.539  1.00  0.00    -0.343 OA
BRANCH  10  11
HETATM   11  C   UNL     1     -40.768  53.582 -53.788  1.00  0.00     0.091 A 
HETATM   12  C   UNL     1     -40.598  53.821 -52.415  1.00  0.00     0.067 A 
HETATM   13 CL   UNL     1     -41.158  55.283 -51.685  1.00  0.00    -0.081 Cl
HETATM   14  C   UNL     1     -39.978  52.870 -51.600  1.00  0.00     0.026 A 
HETATM   15  C   UNL     1     -39.514  51.676 -52.149  1.00  0.00     0.002 A 
HETATM   16  C   UNL     1     -39.659  51.440 -53.514  1.00  0.00     0.003 A 
HETATM   17  C   UNL     1     -40.273  52.394 -54.334  1.00  0.00     0.038 A 
ENDBRANCH  10  11
ENDBRANCH   8  10
ENDBRANCH   7   8
ENDBRANCH   3   7
BRANCH   1  18
HETATM   18  C   UNL     1     -44.579  58.242 -51.804  1.00  0.00     0.059 A 
HETATM   19  C   UNL     1     -43.604  59.234 -51.630  1.00  0.00    -0.032 A 
HETATM   20  C   UNL     1     -42.271  59.270 -52.318  1.00  0.00     0.050 C 
HETATM   21  C   UNL     1     -43.875  60.279 -50.724  1.00  0.00     0.028 A 
HETATM   22  C   UNL     1     -45.050  60.272 -49.990  1.00  0.00     0.117 A 
HETATM   23  N   UNL     1     -45.976  59.303 -50.088  1.00  0.00    -0.271 NA
HETATM   24  C   UNL     1     -45.715  58.324 -50.986  1.00  0.00     0.146 A 
ENDBRANCH   1  18
TORSDOF 5
ENDMDL
MODEL 3
REMARK VINA RESULT:      -7.2      1.766      2.327
REMARK  5 active torsions:
REMARK  status: ('A' for Active; 'I' for Inactive)
REMARK    1  A    between atoms: C_3  and  N_4 
REMARK       I    between atoms: N_4  and  C_5 
REMARK       I    between atoms: C_5  and  N_6 
REMARK    2  A    between atoms: N_6  and  C_7 
REMARK    3  A    between atoms: C_7  and  C_8 
REMARK    4  A    between atoms: C_8  and  O_9 
REMARK    5  A    between atoms: O_9  and  C_10 
ROOT
HETATM    1  N   UNL     1     -42.647  56.446 -51.527  1.00  0.00    -0.307 N 
HETATM    2  C   UNL     1     -42.944  55.387 -52.339  1.00  0.00     0.320 C 
HETATM    3  N   UNL     1     -42.696  54.156 -51.805  1.00  0.00    -0.340 N 
HETATM    4  O   UNL     1     -43.440  55.441 -53.458  1.00  0.00    -0.247 OA
HETATM    5  H   UNL     1     -42.756  56.226 -50.550  1.00  0.00     0.170 HD
HETATM    6  H   UNL     1     -42.865  53.418 -52.483  1.00  0.00     0.164 HD
ENDROOT
BRANCH   3   7
HETATM    7  C   UNL     1     -41.896  53.786 -50.644  1.00  0.00     0.156 C 
BRANCH   7   8
HETATM    8  C   UNL     1     -40.380  53.811 -50.926  1.00  0.00     0.142 C 
HETATM    9  C   UNL     1     -39.618  54.591 -49.855  1.00  0.00     0.042 C 
BRANCH   8  10
HETATM   10  O   UNL     1     -39.844  52.479 -50.930  1.00  0.00    -0.343 OA
BRANCH  10  11
HETATM   11  C   UNL     1     -39.892  51.778 -52.106  1.00  0.00     0.091 A 
HETATM   12  C   UNL     1     -39.661  50.394 -52.046  1.00  0.00     0.067 A 
HETATM   13 CL   UNL     1     -39.405  49.593 -50.536  1.00  0.00    -0.081 Cl
HETATM   14  C   UNL     1     -39.646  49.625 -53.213  1.00  0.00     0.026 A 
HETATM   15  C   UNL     1     -39.851  50.232 -54.450  1.00  0.00     0.002 A 
HETATM   16  C   UNL     1     -40.059  51.608 -54.521  1.00  0.00     0.003 A 
HETATM   17  C   UNL     1     -40.067  52.380 -53.355  1.00  0.00     0.038 A 
ENDBRANCH  10  11
ENDBRANCH   8  10
ENDBRANCH   7   8
ENDBRANCH   3   7
BRANCH   1  18
HETATM   18  C   UNL     1     -42.682  57.829 -51.830  1.00  0.00     0.059 A 
HETATM   19  C   UNL     1     -43.763  58.708 -51.669  1.00  0.00    -0.032 A 
HETATM   20  C   UNL     1     -45.129  58.320 -51.185  1.00  0.00     0.050 C 
HETATM   21  C   UNL     1     -43.572  60.063 -52.003  1.00  0.00     0.028 A 
HETATM   22  C   UNL     1     -42.363  60.483 -52.532  1.00  0.00     0.117 A 
HETATM   23  N   UNL     1     -41.329  59.655 -52.757  1.00  0.00    -0.271 NA
HETATM   24  C   UNL     1     -41.517  58.362 -52.401  1.00  0.00     0.146 A 
ENDBRANCH   1  18
TORSDOF 5
ENDMDL
MODEL 4
REMARK VINA RESULT:      -7.0      2.451      3.508
REMARK  5 active torsions:
REMARK  status: ('A' for Active; 'I' for Inactive)
REMARK    1  A    between atoms: C_3  and  N_4 
REMARK       I    between atoms: N_4  and  C_5 
REMARK       I    between atoms: C_5  and  N_6 
REMARK    2  A    between atoms: N_6  and  C_7 
REMARK    3  A    between atoms: C_7  and  C_8 
REMARK    4  A    between atoms: C_8  and  O_9 
REMARK    5  A    between atoms: O_9  and  C_10 
ROOT
HETATM    1  N   UNL     1     -42.139  57.439 -52.718  1.00  0.00    -0.307 N 
HETATM    2  C   UNL     1     -43.134  57.211 -51.809  1.00  0.00     0.320 C 
HETATM    3  N   UNL     1     -42.742  56.583 -50.663  1.00  0.00    -0.340 N 
HETATM    4  O   UNL     1     -44.307  57.548 -51.910  1.00  0.00    -0.247 OA
HETATM    5  H   UNL     1     -41.242  57.577 -52.283  1.00  0.00     0.170 HD
HETATM    6  H   UNL     1     -43.536  56.375 -50.064  1.00  0.00     0.164 HD
ENDROOT
BRANCH   3   7
HETATM    7  C   UNL     1     -41.514  55.853 -50.371  1.00  0.00     0.156 C 
BRANCH   7   8
HETATM    8  C   UNL     1     -41.552  54.393 -50.865  1.00  0.00     0.142 C 
HETATM    9  C   UNL     1     -42.933  54.009 -51.395  1.00  0.00     0.042 C 
BRANCH   8  10
HETATM   10  O   UNL     1     -40.624  54.199 -51.943  1.00  0.00    -0.343 OA
BRANCH  10  11
HETATM   11  C   UNL     1     -40.240  52.916 -52.229  1.00  0.00     0.091 A 
HETATM   12  C   UNL     1     -40.248  52.520 -53.576  1.00  0.00     0.067 A 
HETATM   13 CL   UNL     1     -40.651  53.635 -54.834  1.00  0.00    -0.081 Cl
HETATM   14  C   UNL     1     -39.916  51.211 -53.935  1.00  0.00     0.026 A 
HETATM   15  C   UNL     1     -39.582  50.282 -52.951  1.00  0.00     0.002 A 
HETATM   16  C   UNL     1     -39.593  50.660 -51.610  1.00  0.00     0.003 A 
HETATM   17  C   UNL     1     -39.932  51.968 -51.249  1.00  0.00     0.038 A 
ENDBRANCH  10  11
ENDBRANCH   8  10
ENDBRANCH   7   8
ENDBRANCH   3   7
BRANCH   1  18
HETATM   18  C   UNL     1     -42.245  57.957 -54.033  1.00  0.00     0.059 A 
HETATM   19  C   UNL     1     -42.805  57.326 -55.153  1.00  0.00    -0.032 A 
HETATM   20  C   UNL     1     -43.361  55.932 -55.173  1.00  0.00     0.050 C 
HETATM   21  C   UNL     1     -42.840  58.038 -56.368  1.00  0.00     0.028 A 
HETATM   22  C   UNL     1     -42.273  59.300 -56.448  1.00  0.00     0.117 A 
HETATM   23  N   UNL     1     -41.673  59.907 -55.411  1.00  0.00    -0.271 NA
HETATM   24  C   UNL     1     -41.678  59.223 -54.242  1.00  0.00     0.146 A 
ENDBRANCH   1  18
TORSDOF 5
ENDMDL
MODEL 5
REMARK VINA RESULT:      -7.0      5.121      6.611
REMARK  5 active torsions:
REMARK  status: ('A' for Active; 'I' for Inactive)
REMARK    1  A    between atoms: C_3  and  N_4 
REMARK       I    between atoms: N_4  and  C_5 
REMARK       I    between atoms: C_5  and  N_6 
REMARK    2  A    between atoms: N_6  and  C_7 
REMARK    3  A    between atoms: C_7  and  C_8 
REMARK    4  A    between atoms: C_8  and  O_9 
REMARK    5  A    between atoms: O_9  and  C_10 
ROOT
HETATM    1  N   UNL     1     -44.144  56.073 -58.265  1.00  0.00    -0.307 N 
HETATM    2  C   UNL     1     -42.949  56.722 -58.127  1.00  0.00     0.320 C 
HETATM    3  N   UNL     1     -42.243  56.409 -57.003  1.00  0.00    -0.340 N 
HETATM    4  O   UNL     1     -42.449  57.508 -58.923  1.00  0.00    -0.247 OA
HETATM    5  H   UNL     1     -44.139  55.159 -57.844  1.00  0.00     0.170 HD
HETATM    6  H   UNL     1     -41.405  56.977 -56.922  1.00  0.00     0.164 HD
ENDROOT
BRANCH   3   7
HETATM    7  C   UNL     1     -42.676  55.732 -55.786  1.00  0.00     0.156 C 
BRANCH   7   8
HETATM    8  C   UNL     1     -41.531  54.984 -55.074  1.00  0.00     0.142 C 
HETATM    9  C   UNL     1     -40.595  55.946 -54.342  1.00  0.00     0.042 C 
BRANCH   8  10
HETATM   10  O   UNL     1     -42.053  54.081 -54.087  1.00  0.00    -0.343 OA
BRANCH  10  11
HETATM   11  C   UNL     1     -41.184  53.184 -53.524  1.00  0.00     0.091 A 
HETATM   12  C   UNL     1     -40.955  53.282 -52.142  1.00  0.00     0.067 A 
HETATM   13 CL   UNL     1     -41.797  54.440 -51.175  1.00  0.00    -0.081 Cl
HETATM   14  C   UNL     1     -40.043  52.432 -51.511  1.00  0.00     0.026 A 
HETATM   15  C   UNL     1     -39.344  51.483 -52.255  1.00  0.00     0.002 A 
HETATM   16  C   UNL     1     -39.549  51.393 -53.630  1.00  0.00     0.003 A 
HETATM   17  C   UNL     1     -40.456  52.248 -54.265  1.00  0.00     0.038 A 
ENDBRANCH  10  11
ENDBRANCH   8  10
ENDBRANCH   7   8
ENDBRANCH   3   7
BRANCH   1  18
HETATM   18  C   UNL     1     -45.147  56.266 -59.248  1.00  0.00     0.059 A 
HETATM   19  C   UNL     1     -46.232  57.153 -59.193  1.00  0.00    -0.032 A 
HETATM   20  C   UNL     1     -46.564  58.043 -58.032  1.00  0.00     0.050 C 
HETATM   21  C   UNL     1     -47.098  57.211 -60.303  1.00  0.00     0.028 A 
HETATM   22  C   UNL     1     -46.903  56.362 -61.379  1.00  0.00     0.117 A 
HETATM   23  N   UNL     1     -45.911  55.457 -61.436  1.00  0.00    -0.271 NA
HETATM   24  C   UNL     1     -45.068  55.437 -60.376  1.00  0.00     0.146 A 
ENDBRANCH   1  18
TORSDOF 5
ENDMDL
MODEL 6
REMARK VINA RESULT:      -7.0      2.148      3.634
REMARK  5 active torsions:
REMARK  status: ('A' for Active; 'I' for Inactive)
REMARK    1  A    between atoms: C_3  and  N_4 
REMARK       I    between atoms: N_4  and  C_5 
REMARK       I    between atoms: C_5  and  N_6 
REMARK    2  A    between atoms: N_6  and  C_7 
REMARK    3  A    between atoms: C_7  and  C_8 
REMARK    4  A    between atoms: C_8  and  O_9 
REMARK    5  A    between atoms: O_9  and  C_10 
ROOT
HETATM    1  N   UNL     1     -42.972  57.283 -51.978  1.00  0.00    -0.307 N 
HETATM    2  C   UNL     1     -43.392  56.548 -50.905  1.00  0.00     0.320 C 
HETATM    3  N   UNL     1     -42.402  56.123 -50.067  1.00  0.00    -0.340 N 
HETATM    4  O   UNL     1     -44.551  56.280 -50.611  1.00  0.00    -0.247 OA
HETATM    5  H   UNL     1     -42.138  57.812 -51.783  1.00  0.00     0.170 HD
HETATM    6  H   UNL     1     -42.769  55.522 -49.335  1.00  0.00     0.164 HD
ENDROOT
BRANCH   3   7
HETATM    7  C   UNL     1     -40.960  56.063 -50.280  1.00  0.00     0.156 C 
BRANCH   7   8
HETATM    8  C   UNL     1     -40.386  54.643 -50.103  1.00  0.00     0.142 C 
HETATM    9  C   UNL     1     -40.322  54.237 -48.631  1.00  0.00     0.042 C 
BRANCH   8  10
HETATM   10  O   UNL     1     -41.215  53.676 -50.765  1.00  0.00    -0.343 OA
BRANCH  10  11
HETATM   11  C   UNL     1     -40.826  53.248 -52.008  1.00  0.00     0.091 A 
HETATM   12  C   UNL     1     -40.163  52.014 -52.091  1.00  0.00     0.067 A 
HETATM   13 CL   UNL     1     -39.918  51.032 -50.690  1.00  0.00    -0.081 Cl
HETATM   14  C   UNL     1     -39.694  51.541 -53.320  1.00  0.00     0.026 A 
HETATM   15  C   UNL     1     -39.874  52.300 -54.474  1.00  0.00     0.002 A 
HETATM   16  C   UNL     1     -40.512  53.537 -54.397  1.00  0.00     0.003 A 
HETATM   17  C   UNL     1     -40.975  54.015 -53.166  1.00  0.00     0.038 A 
ENDBRANCH  10  11
ENDBRANCH   8  10
ENDBRANCH   7   8
ENDBRANCH   3   7
BRANCH   1  18
HETATM   18  C   UNL     1     -43.733  57.761 -53.074  1.00  0.00     0.059 A 
HETATM   19  C   UNL     1     -44.192  57.024 -54.175  1.00  0.00    -0.032 A 
HETATM   20  C   UNL     1     -43.910  55.572 -54.424  1.00  0.00     0.050 C 
HETATM   21  C   UNL     1     -44.967  57.692 -55.144  1.00  0.00     0.028 A 
HETATM   22  C   UNL     1     -45.203  59.052 -55.025  1.00  0.00     0.117 A 
HETATM   23  N   UNL     1     -44.724  59.799 -54.016  1.00  0.00    -0.271 NA
HETATM   24  C   UNL     1     -44.009  59.136 -53.076  1.00  0.00     0.146 A 
ENDBRANCH   1  18
TORSDOF 5
ENDMDL
MODEL 7
REMARK VINA RESULT:      -6.9      3.829      7.078
REMARK  5 active torsions:
REMARK  status: ('A' for Active; 'I' for Inactive)
REMARK    1  A    between atoms: C_3  and  N_4 
REMARK       I    between atoms: N_4  and  C_5 
REMARK       I    between atoms: C_5  and  N_6 
REMARK    2  A    between atoms: N_6  and  C_7 
REMARK    3  A    between atoms: C_7  and  C_8 
REMARK    4  A    between atoms: C_8  and  O_9 
REMARK    5  A    between atoms: O_9  and  C_10 
ROOT
HETATM    1  N   UNL     1     -42.050  54.394 -53.202  1.00  0.00    -0.307 N 
HETATM    2  C   UNL     1     -43.195  54.621 -52.491  1.00  0.00     0.320 C 
HETATM    3  N   UNL     1     -43.810  55.814 -52.743  1.00  0.00    -0.340 N 
HETATM    4  O   UNL     1     -43.728  53.853 -51.700  1.00  0.00    -0.247 OA
HETATM    5  H   UNL     1     -42.061  54.839 -54.106  1.00  0.00     0.170 HD
HETATM    6  H   UNL     1     -44.608  55.955 -52.131  1.00  0.00     0.164 HD
ENDROOT
BRANCH   3   7
HETATM    7  C   UNL     1     -43.300  57.004 -53.412  1.00  0.00     0.156 C 
BRANCH   7   8
HETATM    8  C   UNL     1     -43.711  57.083 -54.896  1.00  0.00     0.142 C 
HETATM    9  C   UNL     1     -44.813  58.117 -55.124  1.00  0.00     0.042 C 
BRANCH   8  10
HETATM   10  O   UNL     1     -42.597  57.477 -55.710  1.00  0.00    -0.343 OA
BRANCH  10  11
HETATM   11  C   UNL     1     -42.620  57.124 -57.034  1.00  0.00     0.091 A 
HETATM   12  C   UNL     1     -42.285  58.111 -57.975  1.00  0.00     0.067 A 
HETATM   13 CL   UNL     1     -41.783  59.688 -57.478  1.00  0.00    -0.081 Cl
HETATM   14  C   UNL     1     -42.336  57.835 -59.344  1.00  0.00     0.026 A 
HETATM   15  C   UNL     1     -42.733  56.575 -59.786  1.00  0.00     0.002 A 
HETATM   16  C   UNL     1     -43.089  55.596 -58.861  1.00  0.00     0.003 A 
HETATM   17  C   UNL     1     -43.045  55.873 -57.490  1.00  0.00     0.038 A 
ENDBRANCH  10  11
ENDBRANCH   8  10
ENDBRANCH   7   8
ENDBRANCH   3   7
BRANCH   1  18
HETATM   18  C   UNL     1     -41.134  53.319 -53.083  1.00  0.00     0.059 A 
HETATM   19  C   UNL     1     -40.309  53.024 -51.989  1.00  0.00    -0.032 A 
HETATM   20  C   UNL     1     -40.206  53.842 -50.736  1.00  0.00     0.050 C 
HETATM   21  C   UNL     1     -39.491  51.879 -52.065  1.00  0.00     0.028 A 
HETATM   22  C   UNL     1     -39.471  51.117 -53.222  1.00  0.00     0.117 A 
HETATM   23  N   UNL     1     -40.202  51.409 -54.310  1.00  0.00    -0.271 NA
HETATM   24  C   UNL     1     -41.007  52.493 -54.209  1.00  0.00     0.146 A 
ENDBRANCH   1  18
TORSDOF 5
ENDMDL
MODEL 8
REMARK VINA RESULT:      -6.9      2.026      2.681
REMARK  5 active torsions:
REMARK  status: ('A' for Active; 'I' for Inactive)
REMARK    1  A    between atoms: C_3  and  N_4 
REMARK       I    between atoms: N_4  and  C_5 
REMARK       I    between atoms: C_5  and  N_6 
REMARK    2  A    between atoms: N_6  and  C_7 
REMARK    3  A    between atoms: C_7  and  C_8 
REMARK    4  A    between atoms: C_8  and  O_9 
REMARK    5  A    between atoms: O_9  and  C_10 
ROOT
HETATM    1  N   UNL     1     -43.599  58.508 -52.102  1.00  0.00    -0.307 N 
HETATM    2  C   UNL     1     -44.287  57.401 -51.693  1.00  0.00     0.320 C 
HETATM    3  N   UNL     1     -44.121  56.291 -52.470  1.00  0.00    -0.340 N 
HETATM    4  O   UNL     1     -44.988  57.304 -50.693  1.00  0.00    -0.247 OA
HETATM    5  H   UNL     1     -42.738  58.277 -52.572  1.00  0.00     0.170 HD
HETATM    6  H   UNL     1     -44.714  55.529 -52.159  1.00  0.00     0.164 HD
ENDROOT
BRANCH   3   7
HETATM    7  C   UNL     1     -43.578  56.168 -53.818  1.00  0.00     0.156 C 
BRANCH   7   8
HETATM    8  C   UNL     1     -42.200  55.476 -53.850  1.00  0.00     0.142 C 
HETATM    9  C   UNL     1     -41.058  56.480 -53.699  1.00  0.00     0.042 C 
BRANCH   8  10
HETATM   10  O   UNL     1     -42.078  54.542 -52.767  1.00  0.00    -0.343 OA
BRANCH  10  11
HETATM   11  C   UNL     1     -41.289  53.439 -52.964  1.00  0.00     0.091 A 
HETATM   12  C   UNL     1     -40.406  53.080 -51.933  1.00  0.00     0.067 A 
HETATM   13 CL   UNL     1     -40.371  53.950 -50.440  1.00  0.00    -0.081 Cl
HETATM   14  C   UNL     1     -39.537  51.997 -52.087  1.00  0.00     0.026 A 
HETATM   15  C   UNL     1     -39.535  51.268 -53.275  1.00  0.00     0.002 A 
HETATM   16  C   UNL     1     -40.393  51.630 -54.311  1.00  0.00     0.003 A 
HETATM   17  C   UNL     1     -41.258  52.719 -54.161  1.00  0.00     0.038 A 
ENDBRANCH  10  11
ENDBRANCH   8  10
ENDBRANCH   7   8
ENDBRANCH   3   7
BRANCH   1  18
HETATM   18  C   UNL     1     -43.654  59.825 -51.583  1.00  0.00     0.059 A 
HETATM   19  C   UNL     1     -42.689  60.469 -50.794  1.00  0.00    -0.032 A 
HETATM   20  C   UNL     1     -41.417  59.845 -50.302  1.00  0.00     0.050 C 
HETATM   21  C   UNL     1     -42.929  61.804 -50.411  1.00  0.00     0.028 A 
HETATM   22  C   UNL     1     -44.119  62.422 -50.760  1.00  0.00     0.117 A 
HETATM   23  N   UNL     1     -45.089  61.813 -51.460  1.00  0.00    -0.271 NA
HETATM   24  C   UNL     1     -44.830  60.542 -51.850  1.00  0.00     0.146 A 
ENDBRANCH   1  18
TORSDOF 5
ENDMDL
MODEL 9
REMARK VINA RESULT:      -6.8      2.147      6.714
REMARK  5 active torsions:
REMARK  status: ('A' for Active; 'I' for Inactive)
REMARK    1  A    between atoms: C_3  and  N_4 
REMARK       I    between atoms: N_4  and  C_5 
REMARK       I    between atoms: C_5  and  N_6 
REMARK    2  A    between atoms: N_6  and  C_7 
REMARK    3  A    between atoms: C_7  and  C_8 
REMARK    4  A    between atoms: C_8  and  O_9 
REMARK    5  A    between atoms: O_9  and  C_10 
ROOT
HETATM    1  N   UNL     1     -41.346  53.750 -53.767  1.00  0.00    -0.307 N 
HETATM    2  C   UNL     1     -40.894  54.721 -54.616  1.00  0.00     0.320 C 
HETATM    3  N   UNL     1     -41.799  55.696 -54.921  1.00  0.00    -0.340 N 
HETATM    4  O   UNL     1     -39.765  54.817 -55.081  1.00  0.00    -0.247 OA
HETATM    5  H   UNL     1     -42.040  54.092 -53.122  1.00  0.00     0.170 HD
HETATM    6  H   UNL     1     -41.428  56.342 -55.611  1.00  0.00     0.164 HD
ENDROOT
BRANCH   3   7
HETATM    7  C   UNL     1     -43.246  55.717 -54.738  1.00  0.00     0.156 C 
BRANCH   7   8
HETATM    8  C   UNL     1     -43.769  57.084 -54.252  1.00  0.00     0.142 C 
HETATM    9  C   UNL     1     -45.125  57.423 -54.871  1.00  0.00     0.042 C 
BRANCH   8  10
HETATM   10  O   UNL     1     -43.953  57.078 -52.828  1.00  0.00    -0.343 OA
BRANCH  10  11
HETATM   11  C   UNL     1     -42.871  57.391 -52.047  1.00  0.00     0.091 A 
HETATM   12  C   UNL     1     -42.433  56.424 -51.128  1.00  0.00     0.067 A 
HETATM   13 CL   UNL     1     -43.178  54.867 -51.043  1.00  0.00    -0.081 Cl
HETATM   14  C   UNL     1     -41.368  56.696 -50.265  1.00  0.00     0.026 A 
HETATM   15  C   UNL     1     -40.738  57.938 -50.304  1.00  0.00     0.002 A 
HETATM   16  C   UNL     1     -41.181  58.911 -51.197  1.00  0.00     0.003 A 
HETATM   17  C   UNL     1     -42.252  58.644 -52.057  1.00  0.00     0.038 A 
ENDBRANCH  10  11
ENDBRANCH   8  10
ENDBRANCH   7   8
ENDBRANCH   3   7
BRANCH   1  18
HETATM   18  C   UNL     1     -40.696  52.559 -53.359  1.00  0.00     0.059 A 
HETATM   19  C   UNL     1     -40.036  52.325 -52.144  1.00  0.00    -0.032 A 
HETATM   20  C   UNL     1     -39.849  53.335 -51.051  1.00  0.00     0.050 C 
HETATM   21  C   UNL     1     -39.483  51.047 -51.925  1.00  0.00     0.028 A 
HETATM   22  C   UNL     1     -39.545  50.086 -52.921  1.00  0.00     0.117 A 
HETATM   23  N   UNL     1     -40.114  50.299 -54.119  1.00  0.00    -0.271 NA
HETATM   24  C   UNL     1     -40.670  51.520 -54.301  1.00  0.00     0.146 A 
ENDBRANCH   1  18
TORSDOF 5
ENDMDL
MODEL 10
REMARK VINA RESULT:      -6.8      3.764      5.459
REMARK  5 active torsions:
REMARK  status: ('A' for Active; 'I' for Inactive)
REMARK    1  A    between atoms: C_3  and  N_4 
REMARK       I    between atoms: N_4  and  C_5 
REMARK       I    between atoms: C_5  and  N_6 
REMARK    2  A    between atoms: N_6  and  C_7 
REMARK    3  A    between atoms: C_7  and  C_8 
REMARK    4  A    between atoms: C_8  and  O_9 
REMARK    5  A    between atoms: O_9  and  C_10 
ROOT
HETATM    1  N   UNL     1     -42.230  57.205 -56.011  1.00  0.00    -0.307 N 
HETATM    2  C   UNL     1     -43.098  57.475 -54.991  1.00  0.00     0.320 C 
HETATM    3  N   UNL     1     -42.574  57.365 -53.736  1.00  0.00    -0.340 N 
HETATM    4  O   UNL     1     -44.263  57.838 -55.100  1.00  0.00    -0.247 OA
HETATM    5  H   UNL     1     -41.277  57.436 -55.779  1.00  0.00     0.170 HD
HETATM    6  H   UNL     1     -43.286  57.503 -53.024  1.00  0.00     0.164 HD
ENDROOT
BRANCH   3   7
HETATM    7  C   UNL     1     -41.342  56.725 -53.290  1.00  0.00     0.156 C 
BRANCH   7   8
HETATM    8  C   UNL     1     -41.515  55.936 -51.977  1.00  0.00     0.142 C 
HETATM    9  C   UNL     1     -42.445  56.657 -51.002  1.00  0.00     0.042 C 
BRANCH   8  10
HETATM   10  O   UNL     1     -42.098  54.650 -52.233  1.00  0.00    -0.343 OA
BRANCH  10  11
HETATM   11  C   UNL     1     -41.253  53.621 -52.558  1.00  0.00     0.091 A 
HETATM   12  C   UNL     1     -41.349  53.087 -53.853  1.00  0.00     0.067 A 
HETATM   13 CL   UNL     1     -42.436  53.754 -55.019  1.00  0.00    -0.081 Cl
HETATM   14  C   UNL     1     -40.552  52.005 -54.236  1.00  0.00     0.026 A 
HETATM   15  C   UNL     1     -39.660  51.440 -53.327  1.00  0.00     0.002 A 
HETATM   16  C   UNL     1     -39.574  51.949 -52.033  1.00  0.00     0.003 A 
HETATM   17  C   UNL     1     -40.376  53.028 -51.646  1.00  0.00     0.038 A 
ENDBRANCH  10  11
ENDBRANCH   8  10
ENDBRANCH   7   8
ENDBRANCH   3   7
BRANCH   1  18
HETATM   18  C   UNL     1     -42.496  57.119 -57.400  1.00  0.00     0.059 A 
HETATM   19  C   UNL     1     -42.302  58.117 -58.366  1.00  0.00    -0.032 A 
HETATM   20  C   UNL     1     -41.814  59.508 -58.088  1.00  0.00     0.050 C 
HETATM   21  C   UNL     1     -42.602  57.809 -59.708  1.00  0.00     0.028 A 
HETATM   22  C   UNL     1     -43.133  56.571 -60.032  1.00  0.00     0.117 A 
HETATM   23  N   UNL     1     -43.390  55.617 -59.123  1.00  0.00    -0.271 NA
HETATM   24  C   UNL     1     -43.065  55.916 -57.843  1.00  0.00     0.146 A 
ENDBRANCH   1  18
TORSDOF 5
ENDMDL
