MODEL 1
REMARK VINA RESULT:      -9.0      0.000      0.000
REMARK  3 active torsions:
REMARK  status: ('A' for Active; 'I' for Inactive)
REMARK    1  A    between atoms: C_9  and  C_10 
REMARK       I    between atoms: C_10  and  N_11 
REMARK    2  A    between atoms: N_11  and  C_12 
REMARK    3  A    between atoms: C_20  and  N_21 
ROOT
HETATM    1  C   UNL     1     -42.676  55.196 -54.947  1.00  0.00     0.258 C 
HETATM    2  N   UNL     1     -41.443  55.331 -54.339  1.00  0.00    -0.305 N 
HETATM    3  O   UNL     1     -43.654  54.595 -54.523  1.00  0.00    -0.267 OA
HETATM    4  H   UNL     1     -40.679  55.750 -54.842  1.00  0.00     0.170 HD
ENDROOT
BRANCH   2   5
HETATM    5  C   UNL     1     -41.132  54.870 -53.071  1.00  0.00     0.163 A 
HETATM    6  N   UNL     1     -41.209  55.591 -51.954  1.00  0.00    -0.155 NA
HETATM    7  N   UNL     1     -40.817  54.762 -50.980  1.00  0.00    -0.275 N 
HETATM    8  H   UNL     1     -40.809  55.116 -50.029  1.00  0.00     0.189 HD
HETATM    9  C   UNL     1     -40.463  53.516 -51.417  1.00  0.00     0.064 A 
HETATM   10  C   UNL     1     -40.661  53.549 -52.794  1.00  0.00     0.042 A 
HETATM   11  C   UNL     1     -39.994  52.391 -50.728  1.00  0.00     0.034 A 
HETATM   12  C   UNL     1     -40.377  52.394 -53.550  1.00  0.00     0.053 A 
HETATM   13  C   UNL     1     -39.899  51.254 -52.874  1.00  0.00     0.103 A 
HETATM   14  C   UNL     1     -39.711  51.250 -51.486  1.00  0.00     0.038 A 
BRANCH  13  15
HETATM   15  N   UNL     1     -39.587  50.045 -53.650  1.00  0.00    -0.116 N 
HETATM   16  O   UNL     1     -39.548  50.144 -54.885  1.00  0.00    -0.532 OA
HETATM   17  O   UNL     1     -39.386  48.996 -53.021  1.00  0.00    -0.532 OA
ENDBRANCH  13  15
ENDBRANCH   2   5
BRANCH   1  18
HETATM   18  C   UNL     1     -42.800  55.837 -56.284  1.00  0.00     0.051 A 
HETATM   19  C   UNL     1     -42.251  57.109 -56.459  1.00  0.00     0.136 A 
HETATM   20  N   UNL     1     -42.270  57.835 -57.605  1.00  0.00    -0.233 NA
HETATM   21  C   UNL     1     -42.874  57.191 -58.623  1.00  0.00     0.206 A 
HETATM   22  O   UNL     1     -43.016  57.705 -59.876  1.00  0.00    -0.192 OA
HETATM   23  C   UNL     1     -43.443  55.925 -58.590  1.00  0.00     0.047 A 
HETATM   24  N   UNL     1     -43.675  56.791 -60.686  1.00  0.00    -0.130 NA
HETATM   25  C   UNL     1     -43.922  55.729 -59.908  1.00  0.00     0.073 A 
HETATM   26  C   UNL     1     -44.627  54.549 -60.461  1.00  0.00     0.074 C 
HETATM   27  C   UNL     1     -43.405  55.208 -57.381  1.00  0.00     0.036 A 
ENDBRANCH   1  18
TORSDOF 3
ENDMDL
MODEL 2
REMARK VINA RESULT:      -8.6      1.896      7.694
REMARK  3 active torsions:
REMARK  status: ('A' for Active; 'I' for Inactive)
REMARK    1  A    between atoms: C_9  and  C_10 
REMARK       I    between atoms: C_10  and  N_11 
REMARK    2  A    between atoms: N_11  and  C_12 
REMARK    3  A    between atoms: C_20  and  N_21 
ROOT
HETATM    1  C   UNL     1     -41.387  55.410 -53.818  1.00  0.00     0.258 C 
HETATM    2  N   UNL     1     -42.709  55.354 -54.214  1.00  0.00    -0.305 N 
HETATM    3  O   UNL     1     -40.609  56.346 -53.946  1.00  0.00    -0.267 OA
HETATM    4  H   UNL     1     -43.212  54.484 -54.161  1.00  0.00     0.170 HD
ENDROOT
BRANCH   2   5
HETATM    5  C   UNL     1     -43.418  56.413 -54.757  1.00  0.00     0.163 A 
HETATM    6  N   UNL     1     -44.083  57.328 -54.054  1.00  0.00    -0.155 NA
HETATM    7  N   UNL     1     -44.614  58.146 -54.968  1.00  0.00    -0.275 N 
HETATM    8  H   UNL     1     -45.165  58.932 -54.641  1.00  0.00     0.189 HD
HETATM    9  C   UNL     1     -44.338  57.794 -56.261  1.00  0.00     0.064 A 
HETATM   10  C   UNL     1     -43.546  56.654 -56.160  1.00  0.00     0.042 A 
HETATM   11  C   UNL     1     -44.713  58.371 -57.479  1.00  0.00     0.034 A 
HETATM   12  C   UNL     1     -43.091  56.035 -57.341  1.00  0.00     0.053 A 
HETATM   13  C   UNL     1     -43.463  56.599 -58.577  1.00  0.00     0.103 A 
HETATM   14  C   UNL     1     -44.261  57.749 -58.647  1.00  0.00     0.038 A 
BRANCH  13  15
HETATM   15  N   UNL     1     -43.006  55.958 -59.818  1.00  0.00    -0.116 N 
HETATM   16  O   UNL     1     -43.731  55.089 -60.322  1.00  0.00    -0.532 OA
HETATM   17  O   UNL     1     -41.918  56.325 -60.285  1.00  0.00    -0.532 OA
ENDBRANCH  13  15
ENDBRANCH   2   5
BRANCH   1  18
HETATM   18  C   UNL     1     -40.857  54.168 -53.193  1.00  0.00     0.051 A 
HETATM   19  C   UNL     1     -40.610  54.176 -51.819  1.00  0.00     0.136 A 
HETATM   20  N   UNL     1     -40.131  53.137 -51.088  1.00  0.00    -0.233 NA
HETATM   21  C   UNL     1     -39.921  52.030 -51.827  1.00  0.00     0.206 A 
HETATM   22  O   UNL     1     -39.450  50.854 -51.327  1.00  0.00    -0.192 OA
HETATM   23  C   UNL     1     -40.140  51.883 -53.190  1.00  0.00     0.047 A 
HETATM   24  N   UNL     1     -39.353  49.916 -52.346  1.00  0.00    -0.130 NA
HETATM   25  C   UNL     1     -39.772  50.540 -53.455  1.00  0.00     0.073 A 
HETATM   26  C   UNL     1     -39.796  49.821 -54.749  1.00  0.00     0.074 C 
HETATM   27  C   UNL     1     -40.632  52.985 -53.911  1.00  0.00     0.036 A 
ENDBRANCH   1  18
TORSDOF 3
ENDMDL
MODEL 3
REMARK VINA RESULT:      -8.4      1.823      7.653
REMARK  3 active torsions:
REMARK  status: ('A' for Active; 'I' for Inactive)
REMARK    1  A    between atoms: C_9  and  C_10 
REMARK       I    between atoms: C_10  and  N_11 
REMARK    2  A    between atoms: N_11  and  C_12 
REMARK    3  A    between atoms: C_20  and  N_21 
ROOT
HETATM    1  C   UNL     1     -42.239  55.826 -54.151  1.00  0.00     0.258 C 
HETATM    2  N   UNL     1     -41.718  56.201 -55.375  1.00  0.00    -0.305 N 
HETATM    3  O   UNL     1     -43.205  56.307 -53.574  1.00  0.00    -0.267 OA
HETATM    4  H   UNL     1     -40.847  55.807 -55.690  1.00  0.00     0.170 HD
ENDROOT
BRANCH   2   5
HETATM    5  C   UNL     1     -42.273  57.153 -56.213  1.00  0.00     0.163 A 
HETATM    6  N   UNL     1     -42.232  58.468 -56.009  1.00  0.00    -0.155 NA
HETATM    7  N   UNL     1     -42.886  58.999 -57.047  1.00  0.00    -0.275 N 
HETATM    8  H   UNL     1     -42.967  60.009 -57.093  1.00  0.00     0.189 HD
HETATM    9  C   UNL     1     -43.379  58.075 -57.928  1.00  0.00     0.064 A 
HETATM   10  C   UNL     1     -42.990  56.844 -57.410  1.00  0.00     0.042 A 
HETATM   11  C   UNL     1     -44.118  58.222 -59.107  1.00  0.00     0.034 A 
HETATM   12  C   UNL     1     -43.354  55.670 -58.100  1.00  0.00     0.053 A 
HETATM   13  C   UNL     1     -44.103  55.797 -59.286  1.00  0.00     0.103 A 
HETATM   14  C   UNL     1     -44.479  57.052 -59.784  1.00  0.00     0.038 A 
BRANCH  13  15
HETATM   15  N   UNL     1     -44.501  54.582 -60.010  1.00  0.00    -0.116 N 
HETATM   16  O   UNL     1     -44.682  54.670 -61.233  1.00  0.00    -0.532 OA
HETATM   17  O   UNL     1     -44.636  53.540 -59.352  1.00  0.00    -0.532 OA
ENDBRANCH  13  15
ENDBRANCH   2   5
BRANCH   1  18
HETATM   18  C   UNL     1     -41.512  54.729 -53.459  1.00  0.00     0.051 A 
HETATM   19  C   UNL     1     -41.173  54.907 -52.116  1.00  0.00     0.136 A 
HETATM   20  N   UNL     1     -40.516  54.014 -51.333  1.00  0.00    -0.233 NA
HETATM   21  C   UNL     1     -40.218  52.871 -51.980  1.00  0.00     0.206 A 
HETATM   22  O   UNL     1     -39.567  51.818 -51.412  1.00  0.00    -0.192 OA
HETATM   23  C   UNL     1     -40.511  52.558 -53.300  1.00  0.00     0.047 A 
HETATM   24  N   UNL     1     -39.422  50.798 -52.343  1.00  0.00    -0.130 NA
HETATM   25  C   UNL     1     -39.994  51.249 -53.467  1.00  0.00     0.073 A 
HETATM   26  C   UNL     1     -40.017  50.403 -54.682  1.00  0.00     0.074 C 
HETATM   27  C   UNL     1     -41.190  53.513 -54.078  1.00  0.00     0.036 A 
ENDBRANCH   1  18
TORSDOF 3
ENDMDL
MODEL 4
REMARK VINA RESULT:      -8.2      1.619      1.966
REMARK  3 active torsions:
REMARK  status: ('A' for Active; 'I' for Inactive)
REMARK    1  A    between atoms: C_9  and  C_10 
REMARK       I    between atoms: C_10  and  N_11 
REMARK    2  A    between atoms: N_11  and  C_12 
REMARK    3  A    between atoms: C_20  and  N_21 
ROOT
HETATM    1  C   UNL     1     -42.978  56.641 -54.364  1.00  0.00     0.258 C 
HETATM    2  N   UNL     1     -41.765  56.540 -53.710  1.00  0.00    -0.305 N 
HETATM    3  O   UNL     1     -44.098  56.564 -53.875  1.00  0.00    -0.267 OA
HETATM    4  H   UNL     1     -40.911  56.502 -54.241  1.00  0.00     0.170 HD
ENDROOT
BRANCH   2   5
HETATM    5  C   UNL     1     -41.614  56.420 -52.339  1.00  0.00     0.163 A 
HETATM    6  N   UNL     1     -41.869  57.382 -51.454  1.00  0.00    -0.155 NA
HETATM    7  N   UNL     1     -41.585  56.841 -50.265  1.00  0.00    -0.275 N 
HETATM    8  H   UNL     1     -41.719  57.413 -49.438  1.00  0.00     0.189 HD
HETATM    9  C   UNL     1     -41.129  55.553 -50.332  1.00  0.00     0.064 A 
HETATM   10  C   UNL     1     -41.139  55.240 -51.687  1.00  0.00     0.042 A 
HETATM   11  C   UNL     1     -40.719  54.663 -49.333  1.00  0.00     0.034 A 
HETATM   12  C   UNL     1     -40.712  53.959 -52.092  1.00  0.00     0.053 A 
HETATM   13  C   UNL     1     -40.290  53.051 -51.102  1.00  0.00     0.103 A 
HETATM   14  C   UNL     1     -40.294  53.395 -49.744  1.00  0.00     0.038 A 
BRANCH  13  15
HETATM   15  N   UNL     1     -39.832  51.715 -51.509  1.00  0.00    -0.116 N 
HETATM   16  O   UNL     1     -39.856  50.812 -50.662  1.00  0.00    -0.532 OA
HETATM   17  O   UNL     1     -39.444  51.575 -52.678  1.00  0.00    -0.532 OA
ENDBRANCH  13  15
ENDBRANCH   2   5
BRANCH   1  18
HETATM   18  C   UNL     1     -42.893  56.837 -55.836  1.00  0.00     0.051 A 
HETATM   19  C   UNL     1     -42.242  57.977 -56.313  1.00  0.00     0.136 A 
HETATM   20  N   UNL     1     -42.071  58.311 -57.618  1.00  0.00    -0.233 NA
HETATM   21  C   UNL     1     -42.587  57.398 -58.464  1.00  0.00     0.206 A 
HETATM   22  O   UNL     1     -42.538  57.500 -59.821  1.00  0.00    -0.192 OA
HETATM   23  C   UNL     1     -43.240  56.221 -58.125  1.00  0.00     0.047 A 
HETATM   24  N   UNL     1     -43.154  56.396 -60.397  1.00  0.00    -0.130 NA
HETATM   25  C   UNL     1     -43.565  55.636 -59.374  1.00  0.00     0.073 A 
HETATM   26  C   UNL     1     -44.275  54.362 -59.631  1.00  0.00     0.074 C 
HETATM   27  C   UNL     1     -43.400  55.914 -56.762  1.00  0.00     0.036 A 
ENDBRANCH   1  18
TORSDOF 3
ENDMDL
MODEL 5
REMARK VINA RESULT:      -8.2      2.004      8.154
REMARK  3 active torsions:
REMARK  status: ('A' for Active; 'I' for Inactive)
REMARK    1  A    between atoms: C_9  and  C_10 
REMARK       I    between atoms: C_10  and  N_11 
REMARK    2  A    between atoms: N_11  and  C_12 
REMARK    3  A    between atoms: C_20  and  N_21 
ROOT
HETATM    1  C   UNL     1     -41.246  55.917 -54.649  1.00  0.00     0.258 C 
HETATM    2  N   UNL     1     -41.828  55.778 -55.894  1.00  0.00    -0.305 N 
HETATM    3  O   UNL     1     -40.999  56.957 -54.054  1.00  0.00    -0.267 OA
HETATM    4  H   UNL     1     -41.871  54.871 -56.329  1.00  0.00     0.170 HD
ENDROOT
BRANCH   2   5
HETATM    5  C   UNL     1     -42.323  56.822 -56.657  1.00  0.00     0.163 A 
HETATM    6  N   UNL     1     -42.169  58.115 -56.374  1.00  0.00    -0.155 NA
HETATM    7  N   UNL     1     -42.801  58.760 -57.360  1.00  0.00    -0.275 N 
HETATM    8  H   UNL     1     -42.800  59.775 -57.342  1.00  0.00     0.189 HD
HETATM    9  C   UNL     1     -43.388  57.937 -58.281  1.00  0.00     0.064 A 
HETATM   10  C   UNL     1     -43.089  56.648 -57.851  1.00  0.00     0.042 A 
HETATM   11  C   UNL     1     -44.139  58.217 -59.428  1.00  0.00     0.034 A 
HETATM   12  C   UNL     1     -43.564  55.553 -58.600  1.00  0.00     0.053 A 
HETATM   13  C   UNL     1     -44.327  55.815 -59.755  1.00  0.00     0.103 A 
HETATM   14  C   UNL     1     -44.610  57.125 -60.165  1.00  0.00     0.038 A 
BRANCH  13  15
HETATM   15  N   UNL     1     -44.840  54.684 -60.541  1.00  0.00    -0.116 N 
HETATM   16  O   UNL     1     -45.216  53.676 -59.927  1.00  0.00    -0.532 OA
HETATM   17  O   UNL     1     -44.861  54.806 -61.775  1.00  0.00    -0.532 OA
ENDBRANCH  13  15
ENDBRANCH   2   5
BRANCH   1  18
HETATM   18  C   UNL     1     -40.855  54.645 -53.983  1.00  0.00     0.051 A 
HETATM   19  C   UNL     1     -40.435  53.583 -54.786  1.00  0.00     0.136 A 
HETATM   20  N   UNL     1     -40.042  52.359 -54.349  1.00  0.00    -0.233 NA
HETATM   21  C   UNL     1     -40.069  52.249 -53.007  1.00  0.00     0.206 A 
HETATM   22  O   UNL     1     -39.716  51.125 -52.324  1.00  0.00    -0.192 OA
HETATM   23  C   UNL     1     -40.447  53.226 -52.096  1.00  0.00     0.047 A 
HETATM   24  N   UNL     1     -39.852  51.341 -50.960  1.00  0.00    -0.130 NA
HETATM   25  C   UNL     1     -40.286  52.603 -50.835  1.00  0.00     0.073 A 
HETATM   26  C   UNL     1     -40.543  53.172 -49.492  1.00  0.00     0.074 C 
HETATM   27  C   UNL     1     -40.852  54.479 -52.591  1.00  0.00     0.036 A 
ENDBRANCH   1  18
TORSDOF 3
ENDMDL
MODEL 6
REMARK VINA RESULT:      -8.2      2.264      8.403
REMARK  3 active torsions:
REMARK  status: ('A' for Active; 'I' for Inactive)
REMARK    1  A    between atoms: C_9  and  C_10 
REMARK       I    between atoms: C_10  and  N_11 
REMARK    2  A    between atoms: N_11  and  C_12 
REMARK    3  A    between atoms: C_20  and  N_21 
ROOT
HETATM    1  C   UNL     1     -42.715  55.433 -55.404  1.00  0.00     0.258 C 
HETATM    2  N   UNL     1     -42.263  55.391 -56.709  1.00  0.00    -0.305 N 
HETATM    3  O   UNL     1     -43.686  56.039 -54.970  1.00  0.00    -0.267 OA
HETATM    4  H   UNL     1     -41.383  54.952 -56.921  1.00  0.00     0.170 HD
ENDROOT
BRANCH   2   5
HETATM    5  C   UNL     1     -42.907  55.973 -57.787  1.00  0.00     0.163 A 
HETATM    6  N   UNL     1     -43.633  55.317 -58.690  1.00  0.00    -0.155 NA
HETATM    7  N   UNL     1     -44.057  56.257 -59.542  1.00  0.00    -0.275 N 
HETATM    8  H   UNL     1     -44.643  55.968 -60.317  1.00  0.00     0.189 HD
HETATM    9  C   UNL     1     -43.618  57.518 -59.244  1.00  0.00     0.064 A 
HETATM   10  C   UNL     1     -42.858  57.370 -58.088  1.00  0.00     0.042 A 
HETATM   11  C   UNL     1     -43.824  58.745 -59.885  1.00  0.00     0.034 A 
HETATM   12  C   UNL     1     -42.254  58.510 -57.521  1.00  0.00     0.053 A 
HETATM   13  C   UNL     1     -42.445  59.753 -58.155  1.00  0.00     0.103 A 
HETATM   14  C   UNL     1     -43.218  59.871 -59.317  1.00  0.00     0.038 A 
BRANCH  13  15
HETATM   15  N   UNL     1     -41.812  60.949 -57.581  1.00  0.00    -0.116 N 
HETATM   16  O   UNL     1     -42.487  61.650 -56.815  1.00  0.00    -0.532 OA
HETATM   17  O   UNL     1     -40.639  61.187 -57.903  1.00  0.00    -0.532 OA
ENDBRANCH  13  15
ENDBRANCH   2   5
BRANCH   1  18
HETATM   18  C   UNL     1     -41.897  54.672 -54.422  1.00  0.00     0.051 A 
HETATM   19  C   UNL     1     -41.639  55.260 -53.182  1.00  0.00     0.136 A 
HETATM   20  N   UNL     1     -40.917  54.709 -52.172  1.00  0.00    -0.233 NA
HETATM   21  C   UNL     1     -40.462  53.476 -52.466  1.00  0.00     0.206 A 
HETATM   22  O   UNL     1     -39.719  52.713 -51.617  1.00  0.00    -0.192 OA
HETATM   23  C   UNL     1     -40.659  52.772 -53.647  1.00  0.00     0.047 A 
HETATM   24  N   UNL     1     -39.417  51.499 -52.220  1.00  0.00    -0.130 NA
HETATM   25  C   UNL     1     -39.988  51.543 -53.431  1.00  0.00     0.073 A 
HETATM   26  C   UNL     1     -39.861  50.394 -54.357  1.00  0.00     0.074 C 
HETATM   27  C   UNL     1     -41.409  53.380 -54.669  1.00  0.00     0.036 A 
ENDBRANCH   1  18
TORSDOF 3
ENDMDL
MODEL 7
REMARK VINA RESULT:      -8.1      3.150      8.064
REMARK  3 active torsions:
REMARK  status: ('A' for Active; 'I' for Inactive)
REMARK    1  A    between atoms: C_9  and  C_10 
REMARK       I    between atoms: C_10  and  N_11 
REMARK    2  A    between atoms: N_11  and  C_12 
REMARK    3  A    between atoms: C_20  and  N_21 
ROOT
HETATM    1  C   UNL     1     -41.349  55.394 -53.732  1.00  0.00     0.258 C 
HETATM    2  N   UNL     1     -42.561  55.275 -54.384  1.00  0.00    -0.305 N 
HETATM    3  O   UNL     1     -40.655  56.396 -53.624  1.00  0.00    -0.267 OA
HETATM    4  H   UNL     1     -42.978  54.368 -54.505  1.00  0.00     0.170 HD
ENDROOT
BRANCH   2   5
HETATM    5  C   UNL     1     -43.252  56.325 -54.965  1.00  0.00     0.163 A 
HETATM    6  N   UNL     1     -43.350  56.544 -56.275  1.00  0.00    -0.155 NA
HETATM    7  N   UNL     1     -44.092  57.651 -56.385  1.00  0.00    -0.275 N 
HETATM    8  H   UNL     1     -44.299  57.995 -57.316  1.00  0.00     0.189 HD
HETATM    9  C   UNL     1     -44.475  58.188 -55.186  1.00  0.00     0.064 A 
HETATM   10  C   UNL     1     -43.941  57.336 -54.225  1.00  0.00     0.042 A 
HETATM   11  C   UNL     1     -45.229  59.326 -54.880  1.00  0.00     0.034 A 
HETATM   12  C   UNL     1     -44.161  57.624 -52.863  1.00  0.00     0.053 A 
HETATM   13  C   UNL     1     -44.912  58.769 -52.535  1.00  0.00     0.103 A 
HETATM   14  C   UNL     1     -45.440  59.607 -53.526  1.00  0.00     0.038 A 
BRANCH  13  15
HETATM   15  N   UNL     1     -45.141  59.089 -51.119  1.00  0.00    -0.116 N 
HETATM   16  O   UNL     1     -46.152  58.623 -50.576  1.00  0.00    -0.532 OA
HETATM   17  O   UNL     1     -44.307  59.811 -50.553  1.00  0.00    -0.532 OA
ENDBRANCH  13  15
ENDBRANCH   2   5
BRANCH   1  18
HETATM   18  C   UNL     1     -40.830  54.141 -53.121  1.00  0.00     0.051 A 
HETATM   19  C   UNL     1     -40.587  54.128 -51.746  1.00  0.00     0.136 A 
HETATM   20  N   UNL     1     -40.119  53.077 -51.027  1.00  0.00    -0.233 NA
HETATM   21  C   UNL     1     -39.914  51.978 -51.780  1.00  0.00     0.206 A 
HETATM   22  O   UNL     1     -39.454  50.793 -51.293  1.00  0.00    -0.192 OA
HETATM   23  C   UNL     1     -40.129  51.850 -53.145  1.00  0.00     0.047 A 
HETATM   24  N   UNL     1     -39.359  49.867 -52.323  1.00  0.00    -0.130 NA
HETATM   25  C   UNL     1     -39.770  50.508 -53.426  1.00  0.00     0.073 A 
HETATM   26  C   UNL     1     -39.796  49.806 -54.729  1.00  0.00     0.074 C 
HETATM   27  C   UNL     1     -40.612  52.965 -53.853  1.00  0.00     0.036 A 
ENDBRANCH   1  18
TORSDOF 3
ENDMDL
MODEL 8
REMARK VINA RESULT:      -8.0      1.753      7.590
REMARK  3 active torsions:
REMARK  status: ('A' for Active; 'I' for Inactive)
REMARK    1  A    between atoms: C_9  and  C_10 
REMARK       I    between atoms: C_10  and  N_11 
REMARK    2  A    between atoms: N_11  and  C_12 
REMARK    3  A    between atoms: C_20  and  N_21 
ROOT
HETATM    1  C   UNL     1     -41.704  55.233 -53.063  1.00  0.00     0.258 C 
HETATM    2  N   UNL     1     -41.218  55.781 -54.234  1.00  0.00    -0.305 N 
HETATM    3  O   UNL     1     -42.583  55.682 -52.338  1.00  0.00    -0.267 OA
HETATM    4  H   UNL     1     -40.410  55.378 -54.678  1.00  0.00     0.170 HD
ENDROOT
BRANCH   2   5
HETATM    5  C   UNL     1     -41.722  56.917 -54.844  1.00  0.00     0.163 A 
HETATM    6  N   UNL     1     -41.694  58.142 -54.321  1.00  0.00    -0.155 NA
HETATM    7  N   UNL     1     -42.284  58.920 -55.235  1.00  0.00    -0.275 N 
HETATM    8  H   UNL     1     -42.363  59.911 -55.036  1.00  0.00     0.189 HD
HETATM    9  C   UNL     1     -42.721  58.247 -56.343  1.00  0.00     0.064 A 
HETATM   10  C   UNL     1     -42.363  56.921 -56.121  1.00  0.00     0.042 A 
HETATM   11  C   UNL     1     -43.387  58.689 -57.492  1.00  0.00     0.034 A 
HETATM   12  C   UNL     1     -42.684  55.957 -57.098  1.00  0.00     0.053 A 
HETATM   13  C   UNL     1     -43.360  56.382 -58.259  1.00  0.00     0.103 A 
HETATM   14  C   UNL     1     -43.705  57.726 -58.455  1.00  0.00     0.038 A 
BRANCH  13  15
HETATM   15  N   UNL     1     -43.711  55.387 -59.282  1.00  0.00    -0.116 N 
HETATM   16  O   UNL     1     -43.455  55.657 -60.464  1.00  0.00    -0.532 OA
HETATM   17  O   UNL     1     -44.249  54.338 -58.900  1.00  0.00    -0.532 OA
ENDBRANCH  13  15
ENDBRANCH   2   5
BRANCH   1  18
HETATM   18  C   UNL     1     -41.053  53.966 -52.633  1.00  0.00     0.051 A 
HETATM   19  C   UNL     1     -40.711  53.824 -51.287  1.00  0.00     0.136 A 
HETATM   20  N   UNL     1     -40.116  52.741 -50.725  1.00  0.00    -0.233 NA
HETATM   21  C   UNL     1     -39.888  51.751 -51.609  1.00  0.00     0.206 A 
HETATM   22  O   UNL     1     -39.309  50.560 -51.292  1.00  0.00    -0.192 OA
HETATM   23  C   UNL     1     -40.192  51.755 -52.964  1.00  0.00     0.047 A 
HETATM   24  N   UNL     1     -39.223  49.763 -52.425  1.00  0.00    -0.130 NA
HETATM   25  C   UNL     1     -39.759  50.485 -53.418  1.00  0.00     0.073 A 
HETATM   26  C   UNL     1     -39.828  49.929 -54.789  1.00  0.00     0.074 C 
HETATM   27  C   UNL     1     -40.804  52.898 -53.507  1.00  0.00     0.036 A 
ENDBRANCH   1  18
TORSDOF 3
ENDMDL
MODEL 9
REMARK VINA RESULT:      -7.8      4.804      6.724
REMARK  3 active torsions:
REMARK  status: ('A' for Active; 'I' for Inactive)
REMARK    1  A    between atoms: C_9  and  C_10 
REMARK       I    between atoms: C_10  and  N_11 
REMARK    2  A    between atoms: N_11  and  C_12 
REMARK    3  A    between atoms: C_20  and  N_21 
ROOT
HETATM    1  C   UNL     1     -42.517  57.905 -52.679  1.00  0.00     0.258 C 
HETATM    2  N   UNL     1     -42.913  56.635 -53.053  1.00  0.00    -0.305 N 
HETATM    3  O   UNL     1     -41.471  58.474 -52.962  1.00  0.00    -0.267 OA
HETATM    4  H   UNL     1     -43.746  56.233 -52.657  1.00  0.00     0.170 HD
ENDROOT
BRANCH   2   5
HETATM    5  C   UNL     1     -42.207  55.807 -53.908  1.00  0.00     0.163 A 
HETATM    6  N   UNL     1     -42.125  55.962 -55.229  1.00  0.00    -0.155 NA
HETATM    7  N   UNL     1     -41.359  54.950 -55.648  1.00  0.00    -0.275 N 
HETATM    8  H   UNL     1     -41.160  54.884 -56.641  1.00  0.00     0.189 HD
HETATM    9  C   UNL     1     -40.943  54.114 -54.650  1.00  0.00     0.064 A 
HETATM   10  C   UNL     1     -41.481  54.651 -53.485  1.00  0.00     0.042 A 
HETATM   11  C   UNL     1     -40.157  52.956 -54.679  1.00  0.00     0.034 A 
HETATM   12  C   UNL     1     -41.232  54.003 -52.258  1.00  0.00     0.053 A 
HETATM   13  C   UNL     1     -40.447  52.833 -52.268  1.00  0.00     0.103 A 
HETATM   14  C   UNL     1     -39.917  52.317 -53.458  1.00  0.00     0.038 A 
BRANCH  13  15
HETATM   15  N   UNL     1     -40.187  52.139 -50.999  1.00  0.00    -0.116 N 
HETATM   16  O   UNL     1     -39.651  51.024 -51.048  1.00  0.00    -0.532 OA
HETATM   17  O   UNL     1     -40.525  52.713 -49.953  1.00  0.00    -0.532 OA
ENDBRANCH  13  15
ENDBRANCH   2   5
BRANCH   1  18
HETATM   18  C   UNL     1     -43.473  58.640 -51.808  1.00  0.00     0.051 A 
HETATM   19  C   UNL     1     -44.618  57.968 -51.372  1.00  0.00     0.136 A 
HETATM   20  N   UNL     1     -45.589  58.481 -50.575  1.00  0.00    -0.233 NA
HETATM   21  C   UNL     1     -45.340  59.750 -50.197  1.00  0.00     0.206 A 
HETATM   22  O   UNL     1     -46.159  60.484 -49.393  1.00  0.00    -0.192 OA
HETATM   23  C   UNL     1     -44.240  60.523 -50.542  1.00  0.00     0.047 A 
HETATM   24  N   UNL     1     -45.615  61.745 -49.193  1.00  0.00    -0.130 NA
HETATM   25  C   UNL     1     -44.465  61.756 -49.881  1.00  0.00     0.073 A 
HETATM   26  C   UNL     1     -43.614  62.969 -49.888  1.00  0.00     0.074 C 
HETATM   27  C   UNL     1     -43.258  59.955 -51.373  1.00  0.00     0.036 A 
ENDBRANCH   1  18
TORSDOF 3
ENDMDL
MODEL 10
REMARK VINA RESULT:      -7.7      4.382      7.667
REMARK  3 active torsions:
REMARK  status: ('A' for Active; 'I' for Inactive)
REMARK    1  A    between atoms: C_9  and  C_10 
REMARK       I    between atoms: C_10  and  N_11 
REMARK    2  A    between atoms: N_11  and  C_12 
REMARK    3  A    between atoms: C_20  and  N_21 
ROOT
HETATM    1  C   UNL     1     -41.374  54.678 -51.835  1.00  0.00     0.258 C 
HETATM    2  N   UNL     1     -42.163  55.529 -52.584  1.00  0.00    -0.305 N 
HETATM    3  O   UNL     1     -40.997  54.834 -50.680  1.00  0.00    -0.267 OA
HETATM    4  H   UNL     1     -42.307  55.346 -53.563  1.00  0.00     0.170 HD
ENDROOT
BRANCH   2   5
HETATM    5  C   UNL     1     -42.747  56.691 -52.108  1.00  0.00     0.163 A 
HETATM    6  N   UNL     1     -44.057  56.929 -52.072  1.00  0.00    -0.155 NA
HETATM    7  N   UNL     1     -44.170  58.155 -51.550  1.00  0.00    -0.275 N 
HETATM    8  H   UNL     1     -45.102  58.535 -51.425  1.00  0.00     0.189 HD
HETATM    9  C   UNL     1     -42.974  58.748 -51.254  1.00  0.00     0.064 A 
HETATM   10  C   UNL     1     -42.010  57.808 -51.607  1.00  0.00     0.042 A 
HETATM   11  C   UNL     1     -42.671  60.005 -50.719  1.00  0.00     0.034 A 
HETATM   12  C   UNL     1     -40.650  58.127 -51.423  1.00  0.00     0.053 A 
HETATM   13  C   UNL     1     -40.325  59.390 -50.891  1.00  0.00     0.103 A 
HETATM   14  C   UNL     1     -41.318  60.315 -50.543  1.00  0.00     0.038 A 
BRANCH  13  15
HETATM   15  N   UNL     1     -38.911  59.741 -50.703  1.00  0.00    -0.116 N 
HETATM   16  O   UNL     1     -38.113  59.427 -51.598  1.00  0.00    -0.532 OA
HETATM   17  O   UNL     1     -38.600  60.329 -49.657  1.00  0.00    -0.532 OA
ENDBRANCH  13  15
ENDBRANCH   2   5
BRANCH   1  18
HETATM   18  C   UNL     1     -40.916  53.450 -52.537  1.00  0.00     0.051 A 
HETATM   19  C   UNL     1     -40.871  53.467 -53.933  1.00  0.00     0.136 A 
HETATM   20  N   UNL     1     -40.478  52.442 -54.731  1.00  0.00    -0.233 NA
HETATM   21  C   UNL     1     -40.093  51.354 -54.035  1.00  0.00     0.206 A 
HETATM   22  O   UNL     1     -39.651  50.199 -54.605  1.00  0.00    -0.192 OA
HETATM   23  C   UNL     1     -40.072  51.211 -52.655  1.00  0.00     0.047 A 
HETATM   24  N   UNL     1     -39.331  49.280 -53.615  1.00  0.00    -0.130 NA
HETATM   25  C   UNL     1     -39.582  49.897 -52.452  1.00  0.00     0.073 A 
HETATM   26  C   UNL     1     -39.350  49.193 -51.170  1.00  0.00     0.074 C 
HETATM   27  C   UNL     1     -40.491  52.295 -51.864  1.00  0.00     0.036 A 
ENDBRANCH   1  18
TORSDOF 3
ENDMDL
