MODEL 1
REMARK VINA RESULT:      -9.2      0.000      0.000
REMARK  6 active torsions:
REMARK  status: ('A' for Active; 'I' for Inactive)
REMARK    1  A    between atoms: C_2  and  O_3 
REMARK    2  A    between atoms: O_3  and  C_4 
REMARK    3  A    between atoms: C_5  and  C_6 
REMARK    4  A    between atoms: N_7  and  N_8 
REMARK       I    between atoms: N_8  and  C_9 
REMARK    5  A    between atoms: C_9  and  C_10 
REMARK    6  A    between atoms: C_14  and  C_15 
ROOT
HETATM    1  C   UNL     1     -43.117  57.766 -51.123  1.00  0.00     0.121 A 
HETATM    2  N   UNL     1     -41.905  58.059 -50.560  1.00  0.00    -0.272 N 
HETATM    3  H   UNL     1     -41.596  58.967 -50.223  1.00  0.00     0.189 HD
HETATM    4  N   UNL     1     -41.061  57.018 -50.492  1.00  0.00    -0.174 NA
HETATM    5  C   UNL     1     -41.739  56.000 -51.044  1.00  0.00     0.090 A 
HETATM    6  C   UNL     1     -43.054  56.413 -51.394  1.00  0.00     0.071 A 
ENDROOT
BRANCH   1   7
HETATM    7  C   UNL     1     -44.117  58.787 -51.338  1.00  0.00     0.289 C 
HETATM    8  N   UNL     1     -44.571  59.381 -50.168  1.00  0.00    -0.242 N 
HETATM    9  H   UNL     1     -44.152  59.089 -49.293  1.00  0.00     0.192 HD
HETATM   10  O   UNL     1     -44.506  59.038 -52.472  1.00  0.00    -0.264 OA
BRANCH   8  11
HETATM   11  N   UNL     1     -45.625  60.232 -49.971  1.00  0.00    -0.183 NA
HETATM   12  C   UNL     1     -45.443  61.493 -49.739  1.00  0.00     0.153 C 
BRANCH  12  13
HETATM   13  C   UNL     1     -46.603  62.410 -49.589  1.00  0.00     0.016 A 
HETATM   14  C   UNL     1     -47.038  62.808 -48.313  1.00  0.00     0.080 A 
HETATM   15  C   UNL     1     -48.115  63.698 -48.214  1.00  0.00     0.037 A 
HETATM   16  C   UNL     1     -48.751  64.177 -49.364  1.00  0.00     0.003 A 
HETATM   17  C   UNL     1     -48.320  63.773 -50.624  1.00  0.00     0.001 A 
HETATM   18  C   UNL     1     -47.248  62.892 -50.739  1.00  0.00     0.016 A 
BRANCH  14  19
HETATM   19  O   UNL     1     -46.360  62.296 -47.238  1.00  0.00    -0.351 OA
BRANCH  19  20
HETATM   20  C   UNL     1     -47.063  61.418 -46.359  1.00  0.00     0.171 C 
HETATM   21  C   UNL     1     -46.241  60.152 -46.211  1.00  0.00     0.034 C 
ENDBRANCH  19  20
ENDBRANCH  14  19
ENDBRANCH  12  13
ENDBRANCH   8  11
ENDBRANCH   1   7
BRANCH   5  22
HETATM   22  C   UNL     1     -41.146  54.671 -51.199  1.00  0.00     0.005 A 
HETATM   23  C   UNL     1     -40.826  54.128 -52.481  1.00  0.00    -0.012 A 
HETATM   24  C   UNL     1     -40.336  52.845 -52.479  1.00  0.00    -0.012 A 
HETATM   25  C   UNL     1     -40.918  54.727 -53.766  1.00  0.00     0.013 A 
HETATM   26  C   UNL     1     -39.982  52.142 -53.617  1.00  0.00    -0.046 A 
HETATM   27  C   UNL     1     -40.116  52.094 -51.340  1.00  0.00    -0.046 A 
HETATM   28  C   UNL     1     -40.093  52.703 -54.880  1.00  0.00     0.008 A 
HETATM   29  C   UNL     1     -39.486  50.786 -53.256  1.00  0.00     0.044 A 
HETATM   30  C   UNL     1     -40.565  54.021 -54.934  1.00  0.00     0.001 A 
HETATM   31  C   UNL     1     -39.564  50.757 -51.698  1.00  0.00     0.044 A 
HETATM   32  C   UNL     1     -40.383  52.601 -50.078  1.00  0.00     0.009 A 
HETATM   33  C   UNL     1     -40.904  53.904 -50.030  1.00  0.00     0.015 A 
ENDBRANCH   5  22
TORSDOF 6
ENDMDL
MODEL 2
REMARK VINA RESULT:      -9.2      1.825      2.718
REMARK  6 active torsions:
REMARK  status: ('A' for Active; 'I' for Inactive)
REMARK    1  A    between atoms: C_2  and  O_3 
REMARK    2  A    between atoms: O_3  and  C_4 
REMARK    3  A    between atoms: C_5  and  C_6 
REMARK    4  A    between atoms: N_7  and  N_8 
REMARK       I    between atoms: N_8  and  C_9 
REMARK    5  A    between atoms: C_9  and  C_10 
REMARK    6  A    between atoms: C_14  and  C_15 
ROOT
HETATM    1  C   UNL     1     -43.887  57.983 -51.425  1.00  0.00     0.121 A 
HETATM    2  N   UNL     1     -42.800  58.544 -52.038  1.00  0.00    -0.272 N 
HETATM    3  H   UNL     1     -42.580  59.534 -52.097  1.00  0.00     0.189 HD
HETATM    4  N   UNL     1     -41.983  57.660 -52.631  1.00  0.00    -0.174 NA
HETATM    5  C   UNL     1     -42.562  56.469 -52.413  1.00  0.00     0.090 A 
HETATM    6  C   UNL     1     -43.723  56.624 -51.606  1.00  0.00     0.071 A 
ENDROOT
BRANCH   1   7
HETATM    7  C   UNL     1     -44.905  58.797 -50.800  1.00  0.00     0.289 C 
HETATM    8  N   UNL     1     -44.458  60.053 -50.414  1.00  0.00    -0.242 N 
HETATM    9  H   UNL     1     -43.501  60.304 -50.630  1.00  0.00     0.192 HD
HETATM   10  O   UNL     1     -46.032  58.349 -50.629  1.00  0.00    -0.264 OA
BRANCH   8  11
HETATM   11  N   UNL     1     -45.074  61.002 -49.642  1.00  0.00    -0.183 NA
HETATM   12  C   UNL     1     -44.780  61.152 -48.390  1.00  0.00     0.153 C 
BRANCH  12  13
HETATM   13  C   UNL     1     -45.417  62.227 -47.586  1.00  0.00     0.016 A 
HETATM   14  C   UNL     1     -46.517  61.942 -46.758  1.00  0.00     0.080 A 
HETATM   15  C   UNL     1     -47.071  62.976 -45.993  1.00  0.00     0.037 A 
HETATM   16  C   UNL     1     -46.543  64.271 -46.056  1.00  0.00     0.003 A 
HETATM   17  C   UNL     1     -45.459  64.547 -46.883  1.00  0.00     0.001 A 
HETATM   18  C   UNL     1     -44.895  63.528 -47.647  1.00  0.00     0.016 A 
BRANCH  14  19
HETATM   19  O   UNL     1     -46.972  60.650 -46.752  1.00  0.00    -0.351 OA
BRANCH  19  20
HETATM   20  C   UNL     1     -46.421  59.750 -45.792  1.00  0.00     0.171 C 
HETATM   21  C   UNL     1     -47.482  58.718 -45.458  1.00  0.00     0.034 C 
ENDBRANCH  19  20
ENDBRANCH  14  19
ENDBRANCH  12  13
ENDBRANCH   8  11
ENDBRANCH   1   7
BRANCH   5  22
HETATM   22  C   UNL     1     -41.996  55.226 -52.938  1.00  0.00     0.005 A 
HETATM   23  C   UNL     1     -41.317  54.288 -52.102  1.00  0.00    -0.012 A 
HETATM   24  C   UNL     1     -40.780  53.198 -52.742  1.00  0.00    -0.012 A 
HETATM   25  C   UNL     1     -41.131  54.301 -50.693  1.00  0.00     0.013 A 
HETATM   26  C   UNL     1     -40.076  52.189 -52.109  1.00  0.00    -0.046 A 
HETATM   27  C   UNL     1     -40.887  52.958 -54.099  1.00  0.00    -0.046 A 
HETATM   28  C   UNL     1     -39.863  52.202 -50.739  1.00  0.00     0.008 A 
HETATM   29  C   UNL     1     -39.641  51.163 -53.096  1.00  0.00     0.044 A 
HETATM   30  C   UNL     1     -40.413  53.282 -50.036  1.00  0.00     0.001 A 
HETATM   31  C   UNL     1     -40.206  51.681 -54.454  1.00  0.00     0.044 A 
HETATM   32  C   UNL     1     -41.566  53.829 -54.935  1.00  0.00     0.009 A 
HETATM   33  C   UNL     1     -42.118  54.969 -54.328  1.00  0.00     0.015 A 
ENDBRANCH   5  22
TORSDOF 6
ENDMDL
MODEL 3
REMARK VINA RESULT:      -8.9      1.641      2.758
REMARK  6 active torsions:
REMARK  status: ('A' for Active; 'I' for Inactive)
REMARK    1  A    between atoms: C_2  and  O_3 
REMARK    2  A    between atoms: O_3  and  C_4 
REMARK    3  A    between atoms: C_5  and  C_6 
REMARK    4  A    between atoms: N_7  and  N_8 
REMARK       I    between atoms: N_8  and  C_9 
REMARK    5  A    between atoms: C_9  and  C_10 
REMARK    6  A    between atoms: C_14  and  C_15 
ROOT
HETATM    1  C   UNL     1     -41.364  57.447 -51.507  1.00  0.00     0.121 A 
HETATM    2  N   UNL     1     -41.367  56.664 -50.386  1.00  0.00    -0.272 N 
HETATM    3  H   UNL     1     -41.493  56.976 -49.427  1.00  0.00     0.189 HD
HETATM    4  N   UNL     1     -41.150  55.361 -50.622  1.00  0.00    -0.174 NA
HETATM    5  C   UNL     1     -40.984  55.283 -51.951  1.00  0.00     0.090 A 
HETATM    6  C   UNL     1     -41.174  56.560 -52.548  1.00  0.00     0.071 A 
ENDROOT
BRANCH   1   7
HETATM    7  C   UNL     1     -41.512  58.883 -51.426  1.00  0.00     0.289 C 
HETATM    8  N   UNL     1     -42.415  59.298 -50.456  1.00  0.00    -0.242 N 
HETATM    9  H   UNL     1     -42.851  58.590 -49.879  1.00  0.00     0.192 HD
HETATM   10  O   UNL     1     -40.890  59.610 -52.191  1.00  0.00    -0.264 OA
BRANCH   8  11
HETATM   11  N   UNL     1     -42.939  60.542 -50.226  1.00  0.00    -0.183 NA
HETATM   12  C   UNL     1     -44.218  60.738 -50.169  1.00  0.00     0.153 C 
BRANCH  12  13
HETATM   13  C   UNL     1     -44.764  62.085 -49.858  1.00  0.00     0.016 A 
HETATM   14  C   UNL     1     -45.762  62.242 -48.880  1.00  0.00     0.080 A 
HETATM   15  C   UNL     1     -46.229  63.530 -48.594  1.00  0.00     0.037 A 
HETATM   16  C   UNL     1     -45.716  64.642 -49.272  1.00  0.00     0.003 A 
HETATM   17  C   UNL     1     -44.733  64.479 -50.243  1.00  0.00     0.001 A 
HETATM   18  C   UNL     1     -44.256  63.203 -50.537  1.00  0.00     0.016 A 
BRANCH  14  19
HETATM   19  O   UNL     1     -46.209  61.104 -48.261  1.00  0.00    -0.351 OA
BRANCH  19  20
HETATM   20  C   UNL     1     -46.210  61.074 -46.835  1.00  0.00     0.171 C 
HETATM   21  C   UNL     1     -44.767  61.082 -46.368  1.00  0.00     0.034 C 
ENDBRANCH  19  20
ENDBRANCH  14  19
ENDBRANCH  12  13
ENDBRANCH   8  11
ENDBRANCH   1   7
BRANCH   5  22
HETATM   22  C   UNL     1     -40.683  54.017 -52.620  1.00  0.00     0.005 A 
HETATM   23  C   UNL     1     -40.432  52.815 -51.891  1.00  0.00    -0.012 A 
HETATM   24  C   UNL     1     -40.099  51.718 -52.646  1.00  0.00    -0.012 A 
HETATM   25  C   UNL     1     -40.498  52.575 -50.492  1.00  0.00     0.013 A 
HETATM   26  C   UNL     1     -39.809  50.469 -52.125  1.00  0.00    -0.046 A 
HETATM   27  C   UNL     1     -40.028  51.712 -54.026  1.00  0.00    -0.046 A 
HETATM   28  C   UNL     1     -39.841  50.227 -50.761  1.00  0.00     0.008 A 
HETATM   29  C   UNL     1     -39.495  49.511 -53.220  1.00  0.00     0.044 A 
HETATM   30  C   UNL     1     -40.201  51.310 -49.947  1.00  0.00     0.001 A 
HETATM   31  C   UNL     1     -39.658  50.356 -54.521  1.00  0.00     0.044 A 
HETATM   32  C   UNL     1     -40.297  52.851 -54.768  1.00  0.00     0.009 A 
HETATM   33  C   UNL     1     -40.624  54.004 -54.038  1.00  0.00     0.015 A 
ENDBRANCH   5  22
TORSDOF 6
ENDMDL
MODEL 4
REMARK VINA RESULT:      -8.7      6.832      8.903
REMARK  6 active torsions:
REMARK  status: ('A' for Active; 'I' for Inactive)
REMARK    1  A    between atoms: C_2  and  O_3 
REMARK    2  A    between atoms: O_3  and  C_4 
REMARK    3  A    between atoms: C_5  and  C_6 
REMARK    4  A    between atoms: N_7  and  N_8 
REMARK       I    between atoms: N_8  and  C_9 
REMARK    5  A    between atoms: C_9  and  C_10 
REMARK    6  A    between atoms: C_14  and  C_15 
ROOT
HETATM    1  C   UNL     1     -43.062  55.711 -57.096  1.00  0.00     0.121 A 
HETATM    2  N   UNL     1     -43.520  54.473 -56.736  1.00  0.00    -0.272 N 
HETATM    3  H   UNL     1     -44.088  53.848 -57.302  1.00  0.00     0.189 HD
HETATM    4  N   UNL     1     -43.185  54.100 -55.492  1.00  0.00    -0.174 NA
HETATM    5  C   UNL     1     -42.488  55.139 -55.005  1.00  0.00     0.090 A 
HETATM    6  C   UNL     1     -42.335  56.141 -56.003  1.00  0.00     0.071 A 
ENDROOT
BRANCH   1   7
HETATM    7  C   UNL     1     -43.392  56.297 -58.375  1.00  0.00     0.289 C 
HETATM    8  N   UNL     1     -44.752  56.502 -58.561  1.00  0.00    -0.242 N 
HETATM    9  H   UNL     1     -45.377  56.271 -57.799  1.00  0.00     0.192 HD
HETATM   10  O   UNL     1     -42.508  56.539 -59.188  1.00  0.00    -0.264 OA
BRANCH   8  11
HETATM   11  N   UNL     1     -45.436  56.854 -59.694  1.00  0.00    -0.183 NA
HETATM   12  C   UNL     1     -46.708  57.099 -59.670  1.00  0.00     0.153 C 
BRANCH  12  13
HETATM   13  C   UNL     1     -47.418  57.538 -60.899  1.00  0.00     0.016 A 
HETATM   14  C   UNL     1     -47.503  58.903 -61.225  1.00  0.00     0.080 A 
HETATM   15  C   UNL     1     -48.154  59.275 -62.408  1.00  0.00     0.037 A 
HETATM   16  C   UNL     1     -48.716  58.306 -63.247  1.00  0.00     0.003 A 
HETATM   17  C   UNL     1     -48.634  56.957 -62.914  1.00  0.00     0.001 A 
HETATM   18  C   UNL     1     -47.986  56.572 -61.743  1.00  0.00     0.016 A 
BRANCH  14  19
HETATM   19  O   UNL     1     -46.925  59.787 -60.352  1.00  0.00    -0.351 OA
BRANCH  19  20
HETATM   20  C   UNL     1     -46.023  60.757 -60.880  1.00  0.00     0.171 C 
HETATM   21  C   UNL     1     -44.610  60.280 -60.601  1.00  0.00     0.034 C 
ENDBRANCH  19  20
ENDBRANCH  14  19
ENDBRANCH  12  13
ENDBRANCH   8  11
ENDBRANCH   1   7
BRANCH   5  22
HETATM   22  C   UNL     1     -41.965  55.147 -53.639  1.00  0.00     0.005 A 
HETATM   23  C   UNL     1     -41.177  54.075 -53.122  1.00  0.00    -0.012 A 
HETATM   24  C   UNL     1     -40.809  54.186 -51.804  1.00  0.00    -0.012 A 
HETATM   25  C   UNL     1     -40.692  52.911 -53.778  1.00  0.00     0.013 A 
HETATM   26  C   UNL     1     -40.058  53.247 -51.120  1.00  0.00    -0.046 A 
HETATM   27  C   UNL     1     -41.126  55.259 -50.993  1.00  0.00    -0.046 A 
HETATM   28  C   UNL     1     -39.602  52.093 -51.738  1.00  0.00     0.008 A 
HETATM   29  C   UNL     1     -39.838  53.683 -49.713  1.00  0.00     0.044 A 
HETATM   30  C   UNL     1     -39.929  51.944 -53.092  1.00  0.00     0.001 A 
HETATM   31  C   UNL     1     -40.556  55.065 -49.629  1.00  0.00     0.044 A 
HETATM   32  C   UNL     1     -41.861  56.332 -51.469  1.00  0.00     0.009 A 
HETATM   33  C   UNL     1     -42.276  56.255 -52.808  1.00  0.00     0.015 A 
ENDBRANCH   5  22
TORSDOF 6
ENDMDL
MODEL 5
REMARK VINA RESULT:      -8.7      5.334      7.479
REMARK  6 active torsions:
REMARK  status: ('A' for Active; 'I' for Inactive)
REMARK    1  A    between atoms: C_2  and  O_3 
REMARK    2  A    between atoms: O_3  and  C_4 
REMARK    3  A    between atoms: C_5  and  C_6 
REMARK    4  A    between atoms: N_7  and  N_8 
REMARK       I    between atoms: N_8  and  C_9 
REMARK    5  A    between atoms: C_9  and  C_10 
REMARK    6  A    between atoms: C_14  and  C_15 
ROOT
HETATM    1  C   UNL     1     -41.909  58.056 -53.431  1.00  0.00     0.121 A 
HETATM    2  N   UNL     1     -43.065  57.675 -52.806  1.00  0.00    -0.272 N 
HETATM    3  H   UNL     1     -43.929  58.206 -52.752  1.00  0.00     0.189 HD
HETATM    4  N   UNL     1     -42.994  56.483 -52.192  1.00  0.00    -0.174 NA
HETATM    5  C   UNL     1     -41.736  56.068 -52.410  1.00  0.00     0.090 A 
HETATM    6  C   UNL     1     -41.045  56.996 -53.237  1.00  0.00     0.071 A 
ENDROOT
BRANCH   1   7
HETATM    7  C   UNL     1     -41.790  59.342 -54.080  1.00  0.00     0.289 C 
HETATM    8  N   UNL     1     -41.941  59.289 -55.459  1.00  0.00    -0.242 N 
HETATM    9  H   UNL     1     -42.155  58.393 -55.880  1.00  0.00     0.192 HD
HETATM   10  O   UNL     1     -41.549  60.344 -53.419  1.00  0.00    -0.264 OA
BRANCH   8  11
HETATM   11  N   UNL     1     -41.711  60.255 -56.402  1.00  0.00    -0.183 NA
HETATM   12  C   UNL     1     -41.737  59.986 -57.668  1.00  0.00     0.153 C 
BRANCH  12  13
HETATM   13  C   UNL     1     -41.544  61.063 -58.674  1.00  0.00     0.016 A 
HETATM   14  C   UNL     1     -42.465  61.233 -59.723  1.00  0.00     0.080 A 
HETATM   15  C   UNL     1     -42.265  62.278 -60.633  1.00  0.00     0.037 A 
HETATM   16  C   UNL     1     -41.165  63.133 -60.506  1.00  0.00     0.003 A 
HETATM   17  C   UNL     1     -40.253  62.954 -59.471  1.00  0.00     0.001 A 
HETATM   18  C   UNL     1     -40.441  61.922 -58.555  1.00  0.00     0.016 A 
BRANCH  14  19
HETATM   19  O   UNL     1     -43.516  60.355 -59.775  1.00  0.00    -0.351 OA
BRANCH  19  20
HETATM   20  C   UNL     1     -43.574  59.444 -60.870  1.00  0.00     0.171 C 
HETATM   21  C   UNL     1     -43.837  58.058 -60.310  1.00  0.00     0.034 C 
ENDBRANCH  19  20
ENDBRANCH  14  19
ENDBRANCH  12  13
ENDBRANCH   8  11
ENDBRANCH   1   7
BRANCH   5  22
HETATM   22  C   UNL     1     -41.234  54.806 -51.865  1.00  0.00     0.005 A 
HETATM   23  C   UNL     1     -40.754  53.755 -52.704  1.00  0.00    -0.012 A 
HETATM   24  C   UNL     1     -40.374  52.603 -52.059  1.00  0.00    -0.012 A 
HETATM   25  C   UNL     1     -40.587  53.728 -54.115  1.00  0.00     0.013 A 
HETATM   26  C   UNL     1     -39.896  51.472 -52.696  1.00  0.00    -0.046 A 
HETATM   27  C   UNL     1     -40.404  52.430 -50.688  1.00  0.00    -0.046 A 
HETATM   28  C   UNL     1     -39.755  51.421 -54.074  1.00  0.00     0.008 A 
HETATM   29  C   UNL     1     -39.575  50.413 -51.701  1.00  0.00     0.044 A 
HETATM   30  C   UNL     1     -40.105  52.581 -54.777  1.00  0.00     0.001 A 
HETATM   31  C   UNL     1     -39.909  51.072 -50.327  1.00  0.00     0.044 A 
HETATM   32  C   UNL     1     -40.832  53.440 -49.842  1.00  0.00     0.009 A 
HETATM   33  C   UNL     1     -41.248  54.631 -50.457  1.00  0.00     0.015 A 
ENDBRANCH   5  22
TORSDOF 6
ENDMDL
MODEL 6
REMARK VINA RESULT:      -8.7      1.508      2.554
REMARK  6 active torsions:
REMARK  status: ('A' for Active; 'I' for Inactive)
REMARK    1  A    between atoms: C_2  and  O_3 
REMARK    2  A    between atoms: O_3  and  C_4 
REMARK    3  A    between atoms: C_5  and  C_6 
REMARK    4  A    between atoms: N_7  and  N_8 
REMARK       I    between atoms: N_8  and  C_9 
REMARK    5  A    between atoms: C_9  and  C_10 
REMARK    6  A    between atoms: C_14  and  C_15 
ROOT
HETATM    1  C   UNL     1     -42.572  58.804 -52.987  1.00  0.00     0.121 A 
HETATM    2  N   UNL     1     -41.243  59.031 -53.216  1.00  0.00    -0.272 N 
HETATM    3  H   UNL     1     -40.780  59.935 -53.259  1.00  0.00     0.189 HD
HETATM    4  N   UNL     1     -40.521  57.920 -53.427  1.00  0.00    -0.174 NA
HETATM    5  C   UNL     1     -41.412  56.920 -53.347  1.00  0.00     0.090 A 
HETATM    6  C   UNL     1     -42.696  57.428 -53.009  1.00  0.00     0.071 A 
ENDROOT
BRANCH   1   7
HETATM    7  C   UNL     1     -43.505  59.893 -52.811  1.00  0.00     0.289 C 
HETATM    8  N   UNL     1     -43.615  60.330 -51.498  1.00  0.00    -0.242 N 
HETATM    9  H   UNL     1     -43.025  59.893 -50.801  1.00  0.00     0.192 HD
HETATM   10  O   UNL     1     -44.132  60.327 -53.770  1.00  0.00    -0.264 OA
BRANCH   8  11
HETATM   11  N   UNL     1     -44.517  61.194 -50.936  1.00  0.00    -0.183 NA
HETATM   12  C   UNL     1     -44.629  61.316 -49.652  1.00  0.00     0.153 C 
BRANCH  12  13
HETATM   13  C   UNL     1     -45.572  62.304 -49.065  1.00  0.00     0.016 A 
HETATM   14  C   UNL     1     -46.399  61.947 -47.985  1.00  0.00     0.080 A 
HETATM   15  C   UNL     1     -47.251  62.914 -47.440  1.00  0.00     0.037 A 
HETATM   16  C   UNL     1     -47.285  64.212 -47.964  1.00  0.00     0.003 A 
HETATM   17  C   UNL     1     -46.469  64.556 -49.038  1.00  0.00     0.001 A 
HETATM   18  C   UNL     1     -45.612  63.606 -49.588  1.00  0.00     0.016 A 
BRANCH  14  19
HETATM   19  O   UNL     1     -46.304  60.658 -47.530  1.00  0.00    -0.351 OA
BRANCH  19  20
HETATM   20  C   UNL     1     -46.123  60.453 -46.130  1.00  0.00     0.171 C 
HETATM   21  C   UNL     1     -44.759  60.997 -45.752  1.00  0.00     0.034 C 
ENDBRANCH  19  20
ENDBRANCH  14  19
ENDBRANCH  12  13
ENDBRANCH   8  11
ENDBRANCH   1   7
BRANCH   5  22
HETATM   22  C   UNL     1     -41.028  55.524 -53.558  1.00  0.00     0.005 A 
HETATM   23  C   UNL     1     -40.838  54.616 -52.472  1.00  0.00    -0.012 A 
HETATM   24  C   UNL     1     -40.416  53.355 -52.815  1.00  0.00    -0.012 A 
HETATM   25  C   UNL     1     -41.043  54.815 -51.080  1.00  0.00     0.013 A 
HETATM   26  C   UNL     1     -40.163  52.342 -51.908  1.00  0.00    -0.046 A 
HETATM   27  C   UNL     1     -40.204  52.929 -54.113  1.00  0.00    -0.046 A 
HETATM   28  C   UNL     1     -40.331  52.530 -50.545  1.00  0.00     0.008 A 
HETATM   29  C   UNL     1     -39.727  51.107 -52.617  1.00  0.00     0.044 A 
HETATM   30  C   UNL     1     -40.786  53.793 -50.145  1.00  0.00     0.001 A 
HETATM   31  C   UNL     1     -39.768  51.504 -54.125  1.00  0.00     0.044 A 
HETATM   32  C   UNL     1     -40.411  53.771 -55.193  1.00  0.00     0.009 A 
HETATM   33  C   UNL     1     -40.826  55.078 -54.890  1.00  0.00     0.015 A 
ENDBRANCH   5  22
TORSDOF 6
ENDMDL
MODEL 7
REMARK VINA RESULT:      -8.7      5.403      7.421
REMARK  6 active torsions:
REMARK  status: ('A' for Active; 'I' for Inactive)
REMARK    1  A    between atoms: C_2  and  O_3 
REMARK    2  A    between atoms: O_3  and  C_4 
REMARK    3  A    between atoms: C_5  and  C_6 
REMARK    4  A    between atoms: N_7  and  N_8 
REMARK       I    between atoms: N_8  and  C_9 
REMARK    5  A    between atoms: C_9  and  C_10 
REMARK    6  A    between atoms: C_14  and  C_15 
ROOT
HETATM    1  C   UNL     1     -41.420  57.414 -53.217  1.00  0.00     0.121 A 
HETATM    2  N   UNL     1     -41.404  57.667 -51.873  1.00  0.00    -0.272 N 
HETATM    3  H   UNL     1     -41.532  58.569 -51.423  1.00  0.00     0.189 HD
HETATM    4  N   UNL     1     -41.163  56.588 -51.112  1.00  0.00    -0.174 NA
HETATM    5  C   UNL     1     -41.000  55.586 -51.989  1.00  0.00     0.090 A 
HETATM    6  C   UNL     1     -41.217  56.051 -53.315  1.00  0.00     0.071 A 
ENDROOT
BRANCH   1   7
HETATM    7  C   UNL     1     -41.595  58.475 -54.183  1.00  0.00     0.289 C 
HETATM    8  N   UNL     1     -42.434  58.139 -55.237  1.00  0.00    -0.242 N 
HETATM    9  H   UNL     1     -42.872  57.227 -55.224  1.00  0.00     0.192 HD
HETATM   10  O   UNL     1     -41.005  59.539 -54.042  1.00  0.00    -0.264 OA
BRANCH   8  11
HETATM   11  N   UNL     1     -42.678  58.807 -56.407  1.00  0.00    -0.183 NA
HETATM   12  C   UNL     1     -42.304  58.329 -57.551  1.00  0.00     0.153 C 
BRANCH  12  13
HETATM   13  C   UNL     1     -42.632  59.042 -58.813  1.00  0.00     0.016 A 
HETATM   14  C   UNL     1     -43.692  58.602 -59.626  1.00  0.00     0.080 A 
HETATM   15  C   UNL     1     -43.990  59.318 -60.792  1.00  0.00     0.037 A 
HETATM   16  C   UNL     1     -43.242  60.447 -61.146  1.00  0.00     0.003 A 
HETATM   17  C   UNL     1     -42.189  60.872 -60.341  1.00  0.00     0.001 A 
HETATM   18  C   UNL     1     -41.884  60.172 -59.176  1.00  0.00     0.016 A 
BRANCH  14  19
HETATM   19  O   UNL     1     -44.375  57.491 -59.208  1.00  0.00    -0.351 OA
BRANCH  19  20
HETATM   20  C   UNL     1     -45.217  56.828 -60.149  1.00  0.00     0.171 C 
HETATM   21  C   UNL     1     -46.649  56.953 -59.663  1.00  0.00     0.034 C 
ENDBRANCH  19  20
ENDBRANCH  14  19
ENDBRANCH  12  13
ENDBRANCH   8  11
ENDBRANCH   1   7
BRANCH   5  22
HETATM   22  C   UNL     1     -40.678  54.226 -51.558  1.00  0.00     0.005 A 
HETATM   23  C   UNL     1     -40.389  53.183 -52.490  1.00  0.00    -0.012 A 
HETATM   24  C   UNL     1     -40.168  51.941 -51.947  1.00  0.00    -0.012 A 
HETATM   25  C   UNL     1     -40.273  53.241 -53.905  1.00  0.00     0.013 A 
HETATM   26  C   UNL     1     -39.888  50.805 -52.683  1.00  0.00    -0.046 A 
HETATM   27  C   UNL     1     -40.181  51.669 -50.592  1.00  0.00    -0.046 A 
HETATM   28  C   UNL     1     -39.799  50.840 -54.066  1.00  0.00     0.008 A 
HETATM   29  C   UNL     1     -39.700  49.635 -51.781  1.00  0.00     0.044 A 
HETATM   30  C   UNL     1     -39.991  52.090 -54.668  1.00  0.00     0.001 A 
HETATM   31  C   UNL     1     -39.886  50.228 -50.350  1.00  0.00     0.044 A 
HETATM   32  C   UNL     1     -40.424  52.662 -49.657  1.00  0.00     0.009 A 
HETATM   33  C   UNL     1     -40.674  53.946 -50.167  1.00  0.00     0.015 A 
ENDBRANCH   5  22
TORSDOF 6
ENDMDL
MODEL 8
REMARK VINA RESULT:      -8.7      1.453      3.144
REMARK  6 active torsions:
REMARK  status: ('A' for Active; 'I' for Inactive)
REMARK    1  A    between atoms: C_2  and  O_3 
REMARK    2  A    between atoms: O_3  and  C_4 
REMARK    3  A    between atoms: C_5  and  C_6 
REMARK    4  A    between atoms: N_7  and  N_8 
REMARK       I    between atoms: N_8  and  C_9 
REMARK    5  A    between atoms: C_9  and  C_10 
REMARK    6  A    between atoms: C_14  and  C_15 
ROOT
HETATM    1  C   UNL     1     -42.811  59.022 -51.597  1.00  0.00     0.121 A 
HETATM    2  N   UNL     1     -41.496  59.317 -51.834  1.00  0.00    -0.272 N 
HETATM    3  H   UNL     1     -41.044  60.218 -51.706  1.00  0.00     0.189 HD
HETATM    4  N   UNL     1     -40.776  58.289 -52.308  1.00  0.00    -0.174 NA
HETATM    5  C   UNL     1     -41.653  57.278 -52.401  1.00  0.00     0.090 A 
HETATM    6  C   UNL     1     -42.924  57.680 -51.904  1.00  0.00     0.071 A 
ENDROOT
BRANCH   1   7
HETATM    7  C   UNL     1     -43.744  60.032 -51.152  1.00  0.00     0.289 C 
HETATM    8  N   UNL     1     -43.360  60.670 -49.980  1.00  0.00    -0.242 N 
HETATM    9  H   UNL     1     -42.471  60.414 -49.568  1.00  0.00     0.192 HD
HETATM   10  O   UNL     1     -44.774  60.238 -51.782  1.00  0.00    -0.264 OA
BRANCH   8  11
HETATM   11  N   UNL     1     -44.068  61.527 -49.180  1.00  0.00    -0.183 NA
HETATM   12  C   UNL     1     -44.865  61.090 -48.257  1.00  0.00     0.153 C 
BRANCH  12  13
HETATM   13  C   UNL     1     -45.576  62.038 -47.361  1.00  0.00     0.016 A 
HETATM   14  C   UNL     1     -46.769  62.655 -47.776  1.00  0.00     0.080 A 
HETATM   15  C   UNL     1     -47.426  63.518 -46.891  1.00  0.00     0.037 A 
HETATM   16  C   UNL     1     -46.902  63.767 -45.618  1.00  0.00     0.003 A 
HETATM   17  C   UNL     1     -45.716  63.159 -45.216  1.00  0.00     0.001 A 
HETATM   18  C   UNL     1     -45.054  62.295 -46.084  1.00  0.00     0.016 A 
BRANCH  14  19
HETATM   19  O   UNL     1     -47.217  62.356 -49.036  1.00  0.00    -0.351 OA
BRANCH  19  20
HETATM   20  C   UNL     1     -47.442  63.435 -49.941  1.00  0.00     0.171 C 
HETATM   21  C   UNL     1     -46.851  63.048 -51.284  1.00  0.00     0.034 C 
ENDBRANCH  19  20
ENDBRANCH  14  19
ENDBRANCH  12  13
ENDBRANCH   8  11
ENDBRANCH   1   7
BRANCH   5  22
HETATM   22  C   UNL     1     -41.269  55.966 -52.921  1.00  0.00     0.005 A 
HETATM   23  C   UNL     1     -40.974  54.865 -52.060  1.00  0.00    -0.012 A 
HETATM   24  C   UNL     1     -40.563  53.713 -52.684  1.00  0.00    -0.012 A 
HETATM   25  C   UNL     1     -41.063  54.775 -50.644  1.00  0.00     0.013 A 
HETATM   26  C   UNL     1     -40.220  52.546 -52.024  1.00  0.00    -0.046 A 
HETATM   27  C   UNL     1     -40.456  53.562 -54.053  1.00  0.00    -0.046 A 
HETATM   28  C   UNL     1     -40.275  52.452 -50.642  1.00  0.00     0.008 A 
HETATM   29  C   UNL     1     -39.827  51.494 -53.001  1.00  0.00     0.044 A 
HETATM   30  C   UNL     1     -40.713  53.594 -49.959  1.00  0.00     0.001 A 
HETATM   31  C   UNL     1     -40.001  52.183 -54.389  1.00  0.00     0.044 A 
HETATM   32  C   UNL     1     -40.766  54.597 -54.920  1.00  0.00     0.009 A 
HETATM   33  C   UNL     1     -41.173  55.803 -54.327  1.00  0.00     0.015 A 
ENDBRANCH   5  22
TORSDOF 6
ENDMDL
MODEL 9
REMARK VINA RESULT:      -8.7      6.223      8.616
REMARK  6 active torsions:
REMARK  status: ('A' for Active; 'I' for Inactive)
REMARK    1  A    between atoms: C_2  and  O_3 
REMARK    2  A    between atoms: O_3  and  C_4 
REMARK    3  A    between atoms: C_5  and  C_6 
REMARK    4  A    between atoms: N_7  and  N_8 
REMARK       I    between atoms: N_8  and  C_9 
REMARK    5  A    between atoms: C_9  and  C_10 
REMARK    6  A    between atoms: C_14  and  C_15 
ROOT
HETATM    1  C   UNL     1     -42.834  55.674 -57.002  1.00  0.00     0.121 A 
HETATM    2  N   UNL     1     -43.533  54.526 -56.750  1.00  0.00    -0.272 N 
HETATM    3  H   UNL     1     -44.132  54.024 -57.399  1.00  0.00     0.189 HD
HETATM    4  N   UNL     1     -43.405  54.066 -55.495  1.00  0.00    -0.174 NA
HETATM    5  C   UNL     1     -42.601  54.955 -54.892  1.00  0.00     0.090 A 
HETATM    6  C   UNL     1     -42.170  55.942 -55.821  1.00  0.00     0.071 A 
ENDROOT
BRANCH   1   7
HETATM    7  C   UNL     1     -42.917  56.343 -58.281  1.00  0.00     0.289 C 
HETATM    8  N   UNL     1     -41.920  57.288 -58.483  1.00  0.00    -0.242 N 
HETATM    9  H   UNL     1     -41.218  57.401 -57.762  1.00  0.00     0.192 HD
HETATM   10  O   UNL     1     -43.825  56.075 -59.058  1.00  0.00    -0.264 OA
BRANCH   8  11
HETATM   11  N   UNL     1     -41.794  58.228 -59.471  1.00  0.00    -0.183 NA
HETATM   12  C   UNL     1     -42.402  59.369 -59.403  1.00  0.00     0.153 C 
BRANCH  12  13
HETATM   13  C   UNL     1     -42.203  60.397 -60.458  1.00  0.00     0.016 A 
HETATM   14  C   UNL     1     -41.379  61.511 -60.221  1.00  0.00     0.080 A 
HETATM   15  C   UNL     1     -41.192  62.442 -61.250  1.00  0.00     0.037 A 
HETATM   16  C   UNL     1     -41.818  62.270 -62.490  1.00  0.00     0.003 A 
HETATM   17  C   UNL     1     -42.638  61.168 -62.715  1.00  0.00     0.001 A 
HETATM   18  C   UNL     1     -42.831  60.232 -61.702  1.00  0.00     0.016 A 
BRANCH  14  19
HETATM   19  O   UNL     1     -40.801  61.605 -58.983  1.00  0.00    -0.351 OA
BRANCH  19  20
HETATM   20  C   UNL     1     -40.751  62.888 -58.361  1.00  0.00     0.171 C 
HETATM   21  C   UNL     1     -42.120  63.174 -57.773  1.00  0.00     0.034 C 
ENDBRANCH  19  20
ENDBRANCH  14  19
ENDBRANCH  12  13
ENDBRANCH   8  11
ENDBRANCH   1   7
BRANCH   5  22
HETATM   22  C   UNL     1     -42.238  54.835 -53.479  1.00  0.00     0.005 A 
HETATM   23  C   UNL     1     -41.357  53.815 -53.006  1.00  0.00    -0.012 A 
HETATM   24  C   UNL     1     -41.158  53.782 -51.648  1.00  0.00    -0.012 A 
HETATM   25  C   UNL     1     -40.632  52.835 -53.736  1.00  0.00     0.013 A 
HETATM   26  C   UNL     1     -40.353  52.865 -50.998  1.00  0.00    -0.046 A 
HETATM   27  C   UNL     1     -41.721  54.673 -50.754  1.00  0.00    -0.046 A 
HETATM   28  C   UNL     1     -39.662  51.885 -51.694  1.00  0.00     0.008 A 
HETATM   29  C   UNL     1     -40.357  53.117 -49.531  1.00  0.00     0.044 A 
HETATM   30  C   UNL     1     -39.812  51.891 -53.087  1.00  0.00     0.001 A 
HETATM   31  C   UNL     1     -41.282  54.362 -49.365  1.00  0.00     0.044 A 
HETATM   32  C   UNL     1     -42.554  55.695 -51.181  1.00  0.00     0.009 A 
HETATM   33  C   UNL     1     -42.803  55.758 -52.561  1.00  0.00     0.015 A 
ENDBRANCH   5  22
TORSDOF 6
ENDMDL
MODEL 10
REMARK VINA RESULT:      -8.4      4.936      7.017
REMARK  6 active torsions:
REMARK  status: ('A' for Active; 'I' for Inactive)
REMARK    1  A    between atoms: C_2  and  O_3 
REMARK    2  A    between atoms: O_3  and  C_4 
REMARK    3  A    between atoms: C_5  and  C_6 
REMARK    4  A    between atoms: N_7  and  N_8 
REMARK       I    between atoms: N_8  and  C_9 
REMARK    5  A    between atoms: C_9  and  C_10 
REMARK    6  A    between atoms: C_14  and  C_15 
ROOT
HETATM    1  C   UNL     1     -42.660  57.118 -53.223  1.00  0.00     0.121 A 
HETATM    2  N   UNL     1     -41.679  57.604 -52.403  1.00  0.00    -0.272 N 
HETATM    3  H   UNL     1     -41.421  58.579 -52.276  1.00  0.00     0.189 HD
HETATM    4  N   UNL     1     -40.996  56.659 -51.738  1.00  0.00    -0.174 NA
HETATM    5  C   UNL     1     -41.540  55.502 -52.147  1.00  0.00     0.090 A 
HETATM    6  C   UNL     1     -42.627  55.751 -53.028  1.00  0.00     0.071 A 
ENDROOT
BRANCH   1   7
HETATM    7  C   UNL     1     -43.443  57.994 -54.065  1.00  0.00     0.289 C 
HETATM    8  N   UNL     1     -44.488  57.355 -54.717  1.00  0.00    -0.242 N 
HETATM    9  H   UNL     1     -44.637  56.371 -54.527  1.00  0.00     0.192 HD
HETATM   10  O   UNL     1     -43.141  59.176 -54.171  1.00  0.00    -0.264 OA
BRANCH   8  11
HETATM   11  N   UNL     1     -45.305  57.812 -55.717  1.00  0.00    -0.183 NA
HETATM   12  C   UNL     1     -44.860  58.014 -56.916  1.00  0.00     0.153 C 
BRANCH  12  13
HETATM   13  C   UNL     1     -45.777  58.453 -58.000  1.00  0.00     0.016 A 
HETATM   14  C   UNL     1     -45.937  57.674 -59.159  1.00  0.00     0.080 A 
HETATM   15  C   UNL     1     -46.833  58.105 -60.144  1.00  0.00     0.037 A 
HETATM   16  C   UNL     1     -47.553  59.295 -59.981  1.00  0.00     0.003 A 
HETATM   17  C   UNL     1     -47.384  60.065 -58.835  1.00  0.00     0.001 A 
HETATM   18  C   UNL     1     -46.499  59.646 -57.844  1.00  0.00     0.016 A 
BRANCH  14  19
HETATM   19  O   UNL     1     -45.198  56.523 -59.240  1.00  0.00    -0.351 OA
BRANCH  19  20
HETATM   20  C   UNL     1     -44.450  56.290 -60.432  1.00  0.00     0.171 C 
HETATM   21  C   UNL     1     -45.058  55.092 -61.137  1.00  0.00     0.034 C 
ENDBRANCH  19  20
ENDBRANCH  14  19
ENDBRANCH  12  13
ENDBRANCH   8  11
ENDBRANCH   1   7
BRANCH   5  22
HETATM   22  C   UNL     1     -41.045  54.207 -51.678  1.00  0.00     0.005 A 
HETATM   23  C   UNL     1     -40.626  53.183 -52.580  1.00  0.00    -0.012 A 
HETATM   24  C   UNL     1     -40.246  51.997 -52.002  1.00  0.00    -0.012 A 
HETATM   25  C   UNL     1     -40.519  53.213 -53.997  1.00  0.00     0.013 A 
HETATM   26  C   UNL     1     -39.823  50.884 -52.706  1.00  0.00    -0.046 A 
HETATM   27  C   UNL     1     -40.222  51.765 -50.640  1.00  0.00    -0.046 A 
HETATM   28  C   UNL     1     -39.741  50.889 -54.090  1.00  0.00     0.008 A 
HETATM   29  C   UNL     1     -39.485  49.776 -51.771  1.00  0.00     0.044 A 
HETATM   30  C   UNL     1     -40.093  52.086 -54.728  1.00  0.00     0.001 A 
HETATM   31  C   UNL     1     -39.744  50.382 -50.358  1.00  0.00     0.044 A 
HETATM   32  C   UNL     1     -40.589  52.746 -49.733  1.00  0.00     0.009 A 
HETATM   33  C   UNL     1     -41.003  53.972 -50.279  1.00  0.00     0.015 A 
ENDBRANCH   5  22
TORSDOF 6
ENDMDL
