MODEL 1
REMARK VINA RESULT:      -8.5      0.000      0.000
REMARK  3 active torsions:
REMARK  status: ('A' for Active; 'I' for Inactive)
REMARK    1  A    between atoms: N_7  and  N_8 
REMARK       I    between atoms: N_8  and  C_9 
REMARK    2  A    between atoms: C_9  and  C_10 
REMARK    3  A    between atoms: C_14  and  C_15 
ROOT
HETATM    1  N   UNL     1     -43.712  56.501 -57.411  1.00  0.00    -0.241 N 
HETATM    2  C   UNL     1     -43.659  56.510 -56.028  1.00  0.00     0.289 C 
HETATM    3  O   UNL     1     -44.412  57.163 -55.310  1.00  0.00    -0.264 OA
HETATM    4  H   UNL     1     -43.045  55.948 -57.948  1.00  0.00     0.192 HD
ENDROOT
BRANCH   2   5
HETATM    5  C   UNL     1     -42.620  55.684 -55.464  1.00  0.00     0.121 A 
HETATM    6  N   UNL     1     -41.306  55.874 -55.786  1.00  0.00    -0.272 N 
HETATM    7  H   UNL     1     -40.932  56.580 -56.415  1.00  0.00     0.189 HD
HETATM    8  N   UNL     1     -40.465  55.010 -55.200  1.00  0.00    -0.174 NA
HETATM    9  C   UNL     1     -41.251  54.231 -54.440  1.00  0.00     0.089 A 
HETATM   10  C   UNL     1     -42.613  54.623 -54.581  1.00  0.00     0.071 A 
BRANCH   9  11
HETATM   11  C   UNL     1     -40.700  53.145 -53.624  1.00  0.00    -0.006 A 
HETATM   12  C   UNL     1     -40.543  53.287 -52.236  1.00  0.00     0.015 A 
HETATM   13  C   UNL     1     -40.023  52.240 -51.466  1.00  0.00     0.024 A 
HETATM   14  C   UNL     1     -39.656  51.045 -52.078  1.00  0.00     0.034 A 
HETATM   15 CL   UNL     1     -39.020  49.759 -51.128  1.00  0.00    -0.084 Cl
HETATM   16  C   UNL     1     -39.799  50.886 -53.454  1.00  0.00     0.024 A 
HETATM   17  C   UNL     1     -40.317  51.933 -54.222  1.00  0.00     0.015 A 
ENDBRANCH   9  11
ENDBRANCH   2   5
BRANCH   1  18
HETATM   18  N   UNL     1     -44.628  57.260 -58.087  1.00  0.00    -0.165 NA
HETATM   19  C   UNL     1     -45.227  56.686 -59.080  1.00  0.00     0.157 A 
HETATM   20  C   UNL     1     -46.228  57.297 -59.944  1.00  0.00     0.027 A 
HETATM   21  C   UNL     1     -45.042  55.256 -59.601  1.00  0.00     0.277 A 
HETATM   22  C   UNL     1     -46.775  58.564 -59.935  1.00  0.00     0.016 A 
HETATM   23  C   UNL     1     -46.593  56.329 -60.879  1.00  0.00     0.048 A 
HETATM   24  C   UNL     1     -47.727  58.847 -60.916  1.00  0.00     0.001 A 
HETATM   25  C   UNL     1     -48.100  57.872 -61.866  1.00  0.00     0.002 A 
HETATM   26  C   UNL     1     -47.530  56.593 -61.854  1.00  0.00     0.030 A 
HETATM   27  N   UNL     1     -45.897  55.139 -60.675  1.00  0.00    -0.321 N 
HETATM   28  H   UNL     1     -45.991  54.297 -61.224  1.00  0.00     0.169 HD
HETATM   29  O   UNL     1     -44.281  54.440 -59.123  1.00  0.00    -0.266 OA
ENDBRANCH   1  18
TORSDOF 3
ENDMDL
MODEL 2
REMARK VINA RESULT:      -8.4      6.521      9.944
REMARK  3 active torsions:
REMARK  status: ('A' for Active; 'I' for Inactive)
REMARK    1  A    between atoms: N_7  and  N_8 
REMARK       I    between atoms: N_8  and  C_9 
REMARK    2  A    between atoms: C_9  and  C_10 
REMARK    3  A    between atoms: C_14  and  C_15 
ROOT
HETATM    1  N   UNL     1     -41.178  55.665 -53.016  1.00  0.00    -0.241 N 
HETATM    2  C   UNL     1     -42.461  56.182 -52.977  1.00  0.00     0.289 C 
HETATM    3  O   UNL     1     -43.456  55.600 -53.402  1.00  0.00    -0.264 OA
HETATM    4  H   UNL     1     -40.393  56.208 -52.660  1.00  0.00     0.192 HD
ENDROOT
BRANCH   2   5
HETATM    5  C   UNL     1     -42.557  57.499 -52.397  1.00  0.00     0.121 A 
HETATM    6  N   UNL     1     -41.514  58.378 -52.450  1.00  0.00    -0.272 N 
HETATM    7  H   UNL     1     -40.609  58.219 -52.884  1.00  0.00     0.189 HD
HETATM    8  N   UNL     1     -41.750  59.550 -51.843  1.00  0.00    -0.174 NA
HETATM    9  C   UNL     1     -43.010  59.452 -51.390  1.00  0.00     0.089 A 
HETATM   10  C   UNL     1     -43.551  58.176 -51.717  1.00  0.00     0.071 A 
BRANCH   9  11
HETATM   11  C   UNL     1     -43.652  60.549 -50.659  1.00  0.00    -0.006 A 
HETATM   12  C   UNL     1     -44.914  60.384 -50.067  1.00  0.00     0.015 A 
HETATM   13  C   UNL     1     -45.515  61.436 -49.366  1.00  0.00     0.024 A 
HETATM   14  C   UNL     1     -44.858  62.659 -49.251  1.00  0.00     0.034 A 
HETATM   15 CL   UNL     1     -45.598  63.948 -48.385  1.00  0.00    -0.084 Cl
HETATM   16  C   UNL     1     -43.608  62.843 -49.835  1.00  0.00     0.024 A 
HETATM   17  C   UNL     1     -43.011  61.792 -50.537  1.00  0.00     0.015 A 
ENDBRANCH   9  11
ENDBRANCH   2   5
BRANCH   1  18
HETATM   18  N   UNL     1     -40.929  54.437 -53.566  1.00  0.00    -0.165 NA
HETATM   19  C   UNL     1     -40.551  53.508 -52.747  1.00  0.00     0.157 A 
HETATM   20  C   UNL     1     -40.224  52.135 -53.105  1.00  0.00     0.027 A 
HETATM   21  C   UNL     1     -40.343  53.607 -51.232  1.00  0.00     0.277 A 
HETATM   22  C   UNL     1     -40.234  51.493 -54.326  1.00  0.00     0.016 A 
HETATM   23  C   UNL     1     -39.859  51.491 -51.923  1.00  0.00     0.048 A 
HETATM   24  C   UNL     1     -39.858  50.149 -54.336  1.00  0.00     0.001 A 
HETATM   25  C   UNL     1     -39.487  49.492 -53.144  1.00  0.00     0.002 A 
HETATM   26  C   UNL     1     -39.485  50.165 -51.916  1.00  0.00     0.030 A 
HETATM   27  N   UNL     1     -39.930  52.355 -50.832  1.00  0.00    -0.321 N 
HETATM   28  H   UNL     1     -39.714  52.119 -49.875  1.00  0.00     0.169 HD
HETATM   29  O   UNL     1     -40.523  54.611 -50.574  1.00  0.00    -0.266 OA
ENDBRANCH   1  18
TORSDOF 3
ENDMDL
MODEL 3
REMARK VINA RESULT:      -8.2      6.866     10.301
REMARK  3 active torsions:
REMARK  status: ('A' for Active; 'I' for Inactive)
REMARK    1  A    between atoms: N_7  and  N_8 
REMARK       I    between atoms: N_8  and  C_9 
REMARK    2  A    between atoms: C_9  and  C_10 
REMARK    3  A    between atoms: C_14  and  C_15 
ROOT
HETATM    1  N   UNL     1     -43.546  56.233 -51.951  1.00  0.00    -0.241 N 
HETATM    2  C   UNL     1     -43.536  57.559 -52.350  1.00  0.00     0.289 C 
HETATM    3  O   UNL     1     -43.037  57.964 -53.397  1.00  0.00    -0.264 OA
HETATM    4  H   UNL     1     -43.963  55.967 -51.061  1.00  0.00     0.192 HD
ENDROOT
BRANCH   2   5
HETATM    5  C   UNL     1     -44.159  58.467 -51.420  1.00  0.00     0.121 A 
HETATM    6  N   UNL     1     -45.464  58.321 -51.047  1.00  0.00    -0.272 N 
HETATM    7  H   UNL     1     -46.105  57.595 -51.357  1.00  0.00     0.189 HD
HETATM    8  N   UNL     1     -45.904  59.260 -50.196  1.00  0.00    -0.174 NA
HETATM    9  C   UNL     1     -44.838  60.047 -49.977  1.00  0.00     0.089 A 
HETATM   10  C   UNL     1     -43.722  59.582 -50.731  1.00  0.00     0.071 A 
BRANCH   9  11
HETATM   11  C   UNL     1     -44.909  61.207 -49.085  1.00  0.00    -0.006 A 
HETATM   12  C   UNL     1     -44.655  62.504 -49.559  1.00  0.00     0.015 A 
HETATM   13  C   UNL     1     -44.733  63.606 -48.699  1.00  0.00     0.024 A 
HETATM   14  C   UNL     1     -45.066  63.419 -47.360  1.00  0.00     0.034 A 
HETATM   15 CL   UNL     1     -45.164  64.776 -46.307  1.00  0.00    -0.084 Cl
HETATM   16  C   UNL     1     -45.318  62.141 -46.870  1.00  0.00     0.024 A 
HETATM   17  C   UNL     1     -45.237  61.041 -47.729  1.00  0.00     0.015 A 
ENDBRANCH   9  11
ENDBRANCH   2   5
BRANCH   1  18
HETATM   18  N   UNL     1     -42.965  55.262 -52.720  1.00  0.00    -0.165 NA
HETATM   19  C   UNL     1     -42.030  54.567 -52.155  1.00  0.00     0.157 A 
HETATM   20  C   UNL     1     -41.268  53.493 -52.777  1.00  0.00     0.027 A 
HETATM   21  C   UNL     1     -41.486  54.693 -50.727  1.00  0.00     0.277 A 
HETATM   22  C   UNL     1     -41.336  52.957 -54.047  1.00  0.00     0.016 A 
HETATM   23  C   UNL     1     -40.367  53.035 -51.816  1.00  0.00     0.048 A 
HETATM   24  C   UNL     1     -40.450  51.918 -54.341  1.00  0.00     0.001 A 
HETATM   25  C   UNL     1     -39.535  51.451 -53.374  1.00  0.00     0.002 A 
HETATM   26  C   UNL     1     -39.486  52.011 -52.092  1.00  0.00     0.030 A 
HETATM   27  N   UNL     1     -40.498  53.739 -50.621  1.00  0.00    -0.321 N 
HETATM   28  H   UNL     1     -39.956  53.588 -49.783  1.00  0.00     0.169 HD
HETATM   29  O   UNL     1     -41.885  55.490 -49.904  1.00  0.00    -0.266 OA
ENDBRANCH   1  18
TORSDOF 3
ENDMDL
MODEL 4
REMARK VINA RESULT:      -8.2      6.899     10.191
REMARK  3 active torsions:
REMARK  status: ('A' for Active; 'I' for Inactive)
REMARK    1  A    between atoms: N_7  and  N_8 
REMARK       I    between atoms: N_8  and  C_9 
REMARK    2  A    between atoms: C_9  and  C_10 
REMARK    3  A    between atoms: C_14  and  C_15 
ROOT
HETATM    1  N   UNL     1     -42.335  57.962 -52.993  1.00  0.00    -0.241 N 
HETATM    2  C   UNL     1     -41.653  59.164 -53.061  1.00  0.00     0.289 C 
HETATM    3  O   UNL     1     -40.593  59.327 -53.662  1.00  0.00    -0.264 OA
HETATM    4  H   UNL     1     -43.202  57.892 -52.463  1.00  0.00     0.192 HD
ENDROOT
BRANCH   2   5
HETATM    5  C   UNL     1     -42.280  60.248 -52.347  1.00  0.00     0.121 A 
HETATM    6  N   UNL     1     -42.658  61.396 -52.984  1.00  0.00    -0.272 N 
HETATM    7  H   UNL     1     -42.554  61.602 -53.973  1.00  0.00     0.189 HD
HETATM    8  N   UNL     1     -43.203  62.319 -52.178  1.00  0.00    -0.174 NA
HETATM    9  C   UNL     1     -43.209  61.750 -50.962  1.00  0.00     0.089 A 
HETATM   10  C   UNL     1     -42.634  60.448 -51.027  1.00  0.00     0.071 A 
BRANCH   9  11
HETATM   11  C   UNL     1     -43.738  62.450 -49.788  1.00  0.00    -0.006 A 
HETATM   12  C   UNL     1     -44.478  61.768 -48.809  1.00  0.00     0.015 A 
HETATM   13  C   UNL     1     -44.972  62.446 -47.688  1.00  0.00     0.024 A 
HETATM   14  C   UNL     1     -44.729  63.808 -47.538  1.00  0.00     0.034 A 
HETATM   15 CL   UNL     1     -45.335  64.637 -46.157  1.00  0.00    -0.084 Cl
HETATM   16  C   UNL     1     -44.001  64.503 -48.500  1.00  0.00     0.024 A 
HETATM   17  C   UNL     1     -43.511  63.826 -49.620  1.00  0.00     0.015 A 
ENDBRANCH   9  11
ENDBRANCH   2   5
BRANCH   1  18
HETATM   18  N   UNL     1     -41.843  56.837 -53.598  1.00  0.00    -0.165 NA
HETATM   19  C   UNL     1     -41.488  55.872 -52.812  1.00  0.00     0.157 A 
HETATM   20  C   UNL     1     -40.932  54.592 -53.228  1.00  0.00     0.027 A 
HETATM   21  C   UNL     1     -41.546  55.826 -51.281  1.00  0.00     0.277 A 
HETATM   22  C   UNL     1     -40.659  54.092 -54.484  1.00  0.00     0.016 A 
HETATM   23  C   UNL     1     -40.686  53.866 -52.062  1.00  0.00     0.048 A 
HETATM   24  C   UNL     1     -40.116  52.807 -54.548  1.00  0.00     0.001 A 
HETATM   25  C   UNL     1     -39.864  52.068 -53.373  1.00  0.00     0.002 A 
HETATM   26  C   UNL     1     -40.150  52.598 -52.108  1.00  0.00     0.030 A 
HETATM   27  N   UNL     1     -41.046  54.592 -50.928  1.00  0.00    -0.321 N 
HETATM   28  H   UNL     1     -40.961  54.277 -49.973  1.00  0.00     0.169 HD
HETATM   29  O   UNL     1     -41.959  56.725 -50.578  1.00  0.00    -0.266 OA
ENDBRANCH   1  18
TORSDOF 3
ENDMDL
MODEL 5
REMARK VINA RESULT:      -8.2      3.797      4.811
REMARK  3 active torsions:
REMARK  status: ('A' for Active; 'I' for Inactive)
REMARK    1  A    between atoms: N_7  and  N_8 
REMARK       I    between atoms: N_8  and  C_9 
REMARK    2  A    between atoms: C_9  and  C_10 
REMARK    3  A    between atoms: C_14  and  C_15 
ROOT
HETATM    1  N   UNL     1     -42.174  57.381 -57.110  1.00  0.00    -0.241 N 
HETATM    2  C   UNL     1     -42.728  56.121 -56.966  1.00  0.00     0.289 C 
HETATM    3  O   UNL     1     -43.213  55.468 -57.887  1.00  0.00    -0.264 OA
HETATM    4  H   UNL     1     -41.803  57.875 -56.300  1.00  0.00     0.192 HD
ENDROOT
BRANCH   2   5
HETATM    5  C   UNL     1     -42.709  55.610 -55.618  1.00  0.00     0.121 A 
HETATM    6  N   UNL     1     -43.773  54.927 -55.101  1.00  0.00    -0.272 N 
HETATM    7  H   UNL     1     -44.642  54.707 -55.579  1.00  0.00     0.189 HD
HETATM    8  N   UNL     1     -43.613  54.539 -53.827  1.00  0.00    -0.174 NA
HETATM    9  C   UNL     1     -42.383  54.962 -53.495  1.00  0.00     0.089 A 
HETATM   10  C   UNL     1     -41.783  55.642 -54.594  1.00  0.00     0.071 A 
BRANCH   9  11
HETATM   11  C   UNL     1     -41.822  54.727 -52.161  1.00  0.00    -0.006 A 
HETATM   12  C   UNL     1     -42.399  55.304 -51.019  1.00  0.00     0.015 A 
HETATM   13  C   UNL     1     -41.860  55.066 -49.749  1.00  0.00     0.024 A 
HETATM   14  C   UNL     1     -40.740  54.249 -49.613  1.00  0.00     0.034 A 
HETATM   15 CL   UNL     1     -40.082  53.956 -48.051  1.00  0.00    -0.084 Cl
HETATM   16  C   UNL     1     -40.151  53.671 -50.734  1.00  0.00     0.024 A 
HETATM   17  C   UNL     1     -40.689  53.911 -52.001  1.00  0.00     0.015 A 
ENDBRANCH   9  11
ENDBRANCH   2   5
BRANCH   1  18
HETATM   18  N   UNL     1     -42.148  58.006 -58.327  1.00  0.00    -0.165 NA
HETATM   19  C   UNL     1     -41.935  59.282 -58.311  1.00  0.00     0.157 A 
HETATM   20  C   UNL     1     -41.874  60.153 -59.478  1.00  0.00     0.027 A 
HETATM   21  C   UNL     1     -41.705  60.191 -57.099  1.00  0.00     0.277 A 
HETATM   22  C   UNL     1     -42.012  59.872 -60.822  1.00  0.00     0.016 A 
HETATM   23  C   UNL     1     -41.636  61.442 -59.001  1.00  0.00     0.048 A 
HETATM   24  C   UNL     1     -41.902  60.948 -61.705  1.00  0.00     0.001 A 
HETATM   25  C   UNL     1     -41.662  62.254 -61.230  1.00  0.00     0.002 A 
HETATM   26  C   UNL     1     -41.526  62.514 -59.860  1.00  0.00     0.030 A 
HETATM   27  N   UNL     1     -41.539  61.459 -57.611  1.00  0.00    -0.321 N 
HETATM   28  H   UNL     1     -41.370  62.274 -57.040  1.00  0.00     0.169 HD
HETATM   29  O   UNL     1     -41.686  59.812 -55.946  1.00  0.00    -0.266 OA
ENDBRANCH   1  18
TORSDOF 3
ENDMDL
MODEL 6
REMARK VINA RESULT:      -8.1      5.537      6.531
REMARK  3 active torsions:
REMARK  status: ('A' for Active; 'I' for Inactive)
REMARK    1  A    between atoms: N_7  and  N_8 
REMARK       I    between atoms: N_8  and  C_9 
REMARK    2  A    between atoms: C_9  and  C_10 
REMARK    3  A    between atoms: C_14  and  C_15 
ROOT
HETATM    1  N   UNL     1     -43.523  58.566 -50.952  1.00  0.00    -0.241 N 
HETATM    2  C   UNL     1     -42.155  58.384 -51.049  1.00  0.00     0.289 C 
HETATM    3  O   UNL     1     -41.334  59.298 -51.082  1.00  0.00    -0.264 OA
HETATM    4  H   UNL     1     -44.150  57.762 -50.946  1.00  0.00     0.192 HD
ENDROOT
BRANCH   2   5
HETATM    5  C   UNL     1     -41.738  57.005 -51.123  1.00  0.00     0.121 A 
HETATM    6  N   UNL     1     -41.587  56.246 -49.998  1.00  0.00    -0.272 N 
HETATM    7  H   UNL     1     -41.748  56.544 -49.040  1.00  0.00     0.189 HD
HETATM    8  N   UNL     1     -41.170  54.993 -50.231  1.00  0.00    -0.174 NA
HETATM    9  C   UNL     1     -41.064  54.911 -51.567  1.00  0.00     0.089 A 
HETATM   10  C   UNL     1     -41.411  56.158 -52.163  1.00  0.00     0.071 A 
BRANCH   9  11
HETATM   11  C   UNL     1     -40.631  53.679 -52.231  1.00  0.00    -0.006 A 
HETATM   12  C   UNL     1     -39.916  52.692 -51.535  1.00  0.00     0.015 A 
HETATM   13  C   UNL     1     -39.514  51.515 -52.178  1.00  0.00     0.024 A 
HETATM   14  C   UNL     1     -39.823  51.318 -53.521  1.00  0.00     0.034 A 
HETATM   15 CL   UNL     1     -39.330  49.869 -54.307  1.00  0.00    -0.084 Cl
HETATM   16  C   UNL     1     -40.528  52.286 -54.230  1.00  0.00     0.024 A 
HETATM   17  C   UNL     1     -40.927  53.462 -53.587  1.00  0.00     0.015 A 
ENDBRANCH   9  11
ENDBRANCH   2   5
BRANCH   1  18
HETATM   18  N   UNL     1     -44.066  59.821 -50.903  1.00  0.00    -0.165 NA
HETATM   19  C   UNL     1     -44.810  60.162 -51.906  1.00  0.00     0.157 A 
HETATM   20  C   UNL     1     -45.482  61.444 -52.075  1.00  0.00     0.027 A 
HETATM   21  C   UNL     1     -45.165  59.338 -53.149  1.00  0.00     0.277 A 
HETATM   22  C   UNL     1     -45.509  62.561 -51.265  1.00  0.00     0.016 A 
HETATM   23  C   UNL     1     -46.159  61.382 -53.292  1.00  0.00     0.048 A 
HETATM   24  C   UNL     1     -46.256  63.651 -51.719  1.00  0.00     0.001 A 
HETATM   25  C   UNL     1     -46.944  63.595 -52.950  1.00  0.00     0.002 A 
HETATM   26  C   UNL     1     -46.900  62.448 -53.754  1.00  0.00     0.030 A 
HETATM   27  N   UNL     1     -45.971  60.150 -53.915  1.00  0.00    -0.321 N 
HETATM   28  H   UNL     1     -46.361  59.871 -54.803  1.00  0.00     0.169 HD
HETATM   29  O   UNL     1     -44.782  58.205 -53.358  1.00  0.00    -0.266 OA
ENDBRANCH   1  18
TORSDOF 3
ENDMDL
MODEL 7
REMARK VINA RESULT:      -8.0     15.821     18.038
REMARK  3 active torsions:
REMARK  status: ('A' for Active; 'I' for Inactive)
REMARK    1  A    between atoms: N_7  and  N_8 
REMARK       I    between atoms: N_8  and  C_9 
REMARK    2  A    between atoms: C_9  and  C_10 
REMARK    3  A    between atoms: C_14  and  C_15 
ROOT
HETATM    1  N   UNL     1     -34.290  41.296 -54.393  1.00  0.00    -0.241 N 
HETATM    2  C   UNL     1     -34.838  41.283 -53.122  1.00  0.00     0.289 C 
HETATM    3  O   UNL     1     -35.990  41.622 -52.861  1.00  0.00    -0.264 OA
HETATM    4  H   UNL     1     -33.321  41.017 -54.537  1.00  0.00     0.192 HD
ENDROOT
BRANCH   2   5
HETATM    5  C   UNL     1     -33.937  40.842 -52.086  1.00  0.00     0.121 A 
HETATM    6  N   UNL     1     -32.583  40.866 -52.263  1.00  0.00    -0.272 N 
HETATM    7  H   UNL     1     -32.086  41.184 -53.090  1.00  0.00     0.189 HD
HETATM    8  N   UNL     1     -31.883  40.400 -51.219  1.00  0.00    -0.174 NA
HETATM    9  C   UNL     1     -32.810  40.077 -50.303  1.00  0.00     0.089 A 
HETATM   10  C   UNL     1     -34.115  40.338 -50.813  1.00  0.00     0.071 A 
BRANCH   9  11
HETATM   11  C   UNL     1     -32.442  39.524 -48.997  1.00  0.00    -0.006 A 
HETATM   12  C   UNL     1     -31.341  40.023 -48.282  1.00  0.00     0.015 A 
HETATM   13  C   UNL     1     -31.004  39.492 -47.031  1.00  0.00     0.024 A 
HETATM   14  C   UNL     1     -31.763  38.460 -46.487  1.00  0.00     0.034 A 
HETATM   15 CL   UNL     1     -31.347  37.813 -44.949  1.00  0.00    -0.084 Cl
HETATM   16  C   UNL     1     -32.856  37.949 -47.182  1.00  0.00     0.024 A 
HETATM   17  C   UNL     1     -33.190  38.478 -48.432  1.00  0.00     0.015 A 
ENDBRANCH   9  11
ENDBRANCH   2   5
BRANCH   1  18
HETATM   18  N   UNL     1     -35.018  41.720 -55.471  1.00  0.00    -0.165 NA
HETATM   19  C   UNL     1     -35.251  40.836 -56.387  1.00  0.00     0.157 A 
HETATM   20  C   UNL     1     -35.993  41.059 -57.621  1.00  0.00     0.027 A 
HETATM   21  C   UNL     1     -34.813  39.367 -56.423  1.00  0.00     0.277 A 
HETATM   22  C   UNL     1     -36.611  42.191 -58.110  1.00  0.00     0.016 A 
HETATM   23  C   UNL     1     -35.991  39.847 -58.312  1.00  0.00     0.048 A 
HETATM   24  C   UNL     1     -37.247  42.078 -59.348  1.00  0.00     0.001 A 
HETATM   25  C   UNL     1     -37.248  40.856 -60.053  1.00  0.00     0.002 A 
HETATM   26  C   UNL     1     -36.613  39.720 -59.535  1.00  0.00     0.030 A 
HETATM   27  N   UNL     1     -35.300  38.863 -57.608  1.00  0.00    -0.321 N 
HETATM   28  H   UNL     1     -35.164  37.908 -57.906  1.00  0.00     0.169 HD
HETATM   29  O   UNL     1     -34.170  38.818 -55.552  1.00  0.00    -0.266 OA
ENDBRANCH   1  18
TORSDOF 3
ENDMDL
MODEL 8
REMARK VINA RESULT:      -8.0      6.177      7.969
REMARK  3 active torsions:
REMARK  status: ('A' for Active; 'I' for Inactive)
REMARK    1  A    between atoms: N_7  and  N_8 
REMARK       I    between atoms: N_8  and  C_9 
REMARK    2  A    between atoms: C_9  and  C_10 
REMARK    3  A    between atoms: C_14  and  C_15 
ROOT
HETATM    1  N   UNL     1     -44.016  58.493 -50.713  1.00  0.00    -0.241 N 
HETATM    2  C   UNL     1     -44.018  57.725 -51.865  1.00  0.00     0.289 C 
HETATM    3  O   UNL     1     -44.762  57.916 -52.824  1.00  0.00    -0.264 OA
HETATM    4  H   UNL     1     -43.383  58.269 -49.947  1.00  0.00     0.192 HD
ENDROOT
BRANCH   2   5
HETATM    5  C   UNL     1     -43.067  56.642 -51.862  1.00  0.00     0.121 A 
HETATM    6  N   UNL     1     -42.085  56.558 -50.916  1.00  0.00    -0.272 N 
HETATM    7  H   UNL     1     -41.927  57.205 -50.148  1.00  0.00     0.189 HD
HETATM    8  N   UNL     1     -41.265  55.508 -51.064  1.00  0.00    -0.174 NA
HETATM    9  C   UNL     1     -41.736  54.856 -52.139  1.00  0.00     0.089 A 
HETATM   10  C   UNL     1     -42.868  55.539 -52.670  1.00  0.00     0.071 A 
BRANCH   9  11
HETATM   11  C   UNL     1     -41.104  53.630 -52.634  1.00  0.00    -0.006 A 
HETATM   12  C   UNL     1     -40.190  52.915 -51.844  1.00  0.00     0.015 A 
HETATM   13  C   UNL     1     -39.597  51.741 -52.325  1.00  0.00     0.024 A 
HETATM   14  C   UNL     1     -39.915  51.274 -53.598  1.00  0.00     0.034 A 
HETATM   15 CL   UNL     1     -39.188  49.830 -54.184  1.00  0.00    -0.084 Cl
HETATM   16  C   UNL     1     -40.816  51.972 -54.398  1.00  0.00     0.024 A 
HETATM   17  C   UNL     1     -41.404  53.145 -53.918  1.00  0.00     0.015 A 
ENDBRANCH   9  11
ENDBRANCH   2   5
BRANCH   1  18
HETATM   18  N   UNL     1     -44.887  59.538 -50.561  1.00  0.00    -0.165 NA
HETATM   19  C   UNL     1     -44.356  60.714 -50.458  1.00  0.00     0.157 A 
HETATM   20  C   UNL     1     -45.081  61.966 -50.282  1.00  0.00     0.027 A 
HETATM   21  C   UNL     1     -42.871  61.091 -50.483  1.00  0.00     0.277 A 
HETATM   22  C   UNL     1     -46.434  62.220 -50.189  1.00  0.00     0.016 A 
HETATM   23  C   UNL     1     -44.121  62.975 -50.208  1.00  0.00     0.048 A 
HETATM   24  C   UNL     1     -46.815  63.552 -50.016  1.00  0.00     0.001 A 
HETATM   25  C   UNL     1     -45.849  64.578 -49.940  1.00  0.00     0.002 A 
HETATM   26  C   UNL     1     -44.481  64.294 -50.037  1.00  0.00     0.030 A 
HETATM   27  N   UNL     1     -42.832  62.459 -50.326  1.00  0.00    -0.321 N 
HETATM   28  H   UNL     1     -41.976  62.994 -50.303  1.00  0.00     0.169 HD
HETATM   29  O   UNL     1     -41.960  60.300 -50.618  1.00  0.00    -0.266 OA
ENDBRANCH   1  18
TORSDOF 3
ENDMDL
MODEL 9
REMARK VINA RESULT:      -7.9      6.556      9.893
REMARK  3 active torsions:
REMARK  status: ('A' for Active; 'I' for Inactive)
REMARK    1  A    between atoms: N_7  and  N_8 
REMARK       I    between atoms: N_8  and  C_9 
REMARK    2  A    between atoms: C_9  and  C_10 
REMARK    3  A    between atoms: C_14  and  C_15 
ROOT
HETATM    1  N   UNL     1     -41.026  55.468 -51.546  1.00  0.00    -0.241 N 
HETATM    2  C   UNL     1     -41.384  56.289 -50.491  1.00  0.00     0.289 C 
HETATM    3  O   UNL     1     -41.389  55.942 -49.312  1.00  0.00    -0.264 OA
HETATM    4  H   UNL     1     -41.060  55.815 -52.503  1.00  0.00     0.192 HD
ENDROOT
BRANCH   2   5
HETATM    5  C   UNL     1     -41.776  57.622 -50.877  1.00  0.00     0.121 A 
HETATM    6  N   UNL     1     -41.264  58.724 -50.254  1.00  0.00    -0.272 N 
HETATM    7  H   UNL     1     -40.584  58.731 -49.498  1.00  0.00     0.189 HD
HETATM    8  N   UNL     1     -41.746  59.889 -50.710  1.00  0.00    -0.174 NA
HETATM    9  C   UNL     1     -42.595  59.546 -51.692  1.00  0.00     0.089 A 
HETATM   10  C   UNL     1     -42.642  58.128 -51.826  1.00  0.00     0.071 A 
BRANCH   9  11
HETATM   11  C   UNL     1     -43.336  60.554 -52.455  1.00  0.00    -0.006 A 
HETATM   12  C   UNL     1     -44.720  60.719 -52.286  1.00  0.00     0.015 A 
HETATM   13  C   UNL     1     -45.416  61.690 -53.016  1.00  0.00     0.024 A 
HETATM   14  C   UNL     1     -44.734  62.502 -53.918  1.00  0.00     0.034 A 
HETATM   15 CL   UNL     1     -45.592  63.696 -54.811  1.00  0.00    -0.084 Cl
HETATM   16  C   UNL     1     -43.363  62.351 -54.103  1.00  0.00     0.024 A 
HETATM   17  C   UNL     1     -42.669  61.379 -53.376  1.00  0.00     0.015 A 
ENDBRANCH   9  11
ENDBRANCH   2   5
BRANCH   1  18
HETATM   18  N   UNL     1     -40.659  54.167 -51.333  1.00  0.00    -0.165 NA
HETATM   19  C   UNL     1     -40.471  53.444 -52.391  1.00  0.00     0.157 A 
HETATM   20  C   UNL     1     -40.088  52.039 -52.409  1.00  0.00     0.027 A 
HETATM   21  C   UNL     1     -40.606  53.860 -53.860  1.00  0.00     0.277 A 
HETATM   22  C   UNL     1     -39.833  51.160 -51.377  1.00  0.00     0.016 A 
HETATM   23  C   UNL     1     -40.008  51.665 -53.750  1.00  0.00     0.048 A 
HETATM   24  C   UNL     1     -39.485  49.855 -51.731  1.00  0.00     0.001 A 
HETATM   25  C   UNL     1     -39.404  49.469 -53.086  1.00  0.00     0.002 A 
HETATM   26  C   UNL     1     -39.667  50.381 -54.116  1.00  0.00     0.030 A 
HETATM   27  N   UNL     1     -40.312  52.732 -54.594  1.00  0.00    -0.321 N 
HETATM   28  H   UNL     1     -40.321  52.705 -55.602  1.00  0.00     0.169 HD
HETATM   29  O   UNL     1     -40.914  54.972 -54.237  1.00  0.00    -0.266 OA
ENDBRANCH   1  18
TORSDOF 3
ENDMDL
MODEL 10
REMARK VINA RESULT:      -7.7     15.888     19.558
REMARK  3 active torsions:
REMARK  status: ('A' for Active; 'I' for Inactive)
REMARK    1  A    between atoms: N_7  and  N_8 
REMARK       I    between atoms: N_8  and  C_9 
REMARK    2  A    between atoms: C_9  and  C_10 
REMARK    3  A    between atoms: C_14  and  C_15 
ROOT
HETATM    1  N   UNL     1     -34.401  40.724 -53.399  1.00  0.00    -0.241 N 
HETATM    2  C   UNL     1     -35.403  41.656 -53.606  1.00  0.00     0.289 C 
HETATM    3  O   UNL     1     -35.709  42.535 -52.804  1.00  0.00    -0.264 OA
HETATM    4  H   UNL     1     -34.209  40.010 -54.100  1.00  0.00     0.192 HD
ENDROOT
BRANCH   2   5
HETATM    5  C   UNL     1     -36.097  41.518 -54.862  1.00  0.00     0.121 A 
HETATM    6  N   UNL     1     -36.953  42.483 -55.313  1.00  0.00    -0.272 N 
HETATM    7  H   UNL     1     -37.178  43.357 -54.847  1.00  0.00     0.189 HD
HETATM    8  N   UNL     1     -37.540  42.195 -56.483  1.00  0.00    -0.174 NA
HETATM    9  C   UNL     1     -37.034  41.002 -56.835  1.00  0.00     0.089 A 
HETATM   10  C   UNL     1     -36.125  40.542 -55.839  1.00  0.00     0.071 A 
BRANCH   9  11
HETATM   11  C   UNL     1     -37.431  40.334 -58.078  1.00  0.00    -0.006 A 
HETATM   12  C   UNL     1     -38.149  39.129 -58.057  1.00  0.00     0.015 A 
HETATM   13  C   UNL     1     -38.529  38.504 -59.250  1.00  0.00     0.024 A 
HETATM   14  C   UNL     1     -38.193  39.079 -60.473  1.00  0.00     0.034 A 
HETATM   15 CL   UNL     1     -38.664  38.310 -61.937  1.00  0.00    -0.084 Cl
HETATM   16  C   UNL     1     -37.477  40.272 -60.515  1.00  0.00     0.024 A 
HETATM   17  C   UNL     1     -37.097  40.894 -59.322  1.00  0.00     0.015 A 
ENDBRANCH   9  11
ENDBRANCH   2   5
BRANCH   1  18
HETATM   18  N   UNL     1     -33.676  40.714 -52.238  1.00  0.00    -0.165 NA
HETATM   19  C   UNL     1     -33.836  39.684 -51.472  1.00  0.00     0.157 A 
HETATM   20  C   UNL     1     -33.180  39.462 -50.190  1.00  0.00     0.027 A 
HETATM   21  C   UNL     1     -34.738  38.465 -51.696  1.00  0.00     0.277 A 
HETATM   22  C   UNL     1     -32.269  40.232 -49.498  1.00  0.00     0.016 A 
HETATM   23  C   UNL     1     -33.649  38.240 -49.709  1.00  0.00     0.048 A 
HETATM   24  C   UNL     1     -31.824  39.734 -48.271  1.00  0.00     0.001 A 
HETATM   25  C   UNL     1     -32.296  38.498 -47.778  1.00  0.00     0.002 A 
HETATM   26  C   UNL     1     -33.221  37.735 -48.500  1.00  0.00     0.030 A 
HETATM   27  N   UNL     1     -34.559  37.662 -50.592  1.00  0.00    -0.321 N 
HETATM   28  H   UNL     1     -35.032  36.780 -50.461  1.00  0.00     0.169 HD
HETATM   29  O   UNL     1     -35.444  38.299 -52.670  1.00  0.00    -0.266 OA
ENDBRANCH   1  18
TORSDOF 3
ENDMDL
