MODEL 1
REMARK VINA RESULT:      -8.6      0.000      0.000
REMARK  5 active torsions:
REMARK  status: ('A' for Active; 'I' for Inactive)
REMARK    1  A    between atoms: C_2  and  C_3 
REMARK    2  A    between atoms: C_6  and  N_7 
REMARK       I    between atoms: N_7  and  C_8 
REMARK    3  A    between atoms: C_8  and  C_9 
REMARK    4  A    between atoms: C_17  and  C_18 
REMARK    5  A    between atoms: C_21  and  O_22 
ROOT
HETATM    1  C   UNL     1     -42.327  57.370 -54.181  1.00  0.00     0.047 A 
HETATM    2  C   UNL     1     -42.430  58.462 -53.285  1.00  0.00     0.008 A 
HETATM    3  C   UNL     1     -42.558  59.729 -53.880  1.00  0.00     0.068 A 
HETATM    4  C   UNL     1     -42.703  60.845 -53.067  1.00  0.00     0.032 A 
HETATM    5  C   UNL     1     -42.695  60.755 -51.675  1.00  0.00     0.002 A 
HETATM    6  C   UNL     1     -42.519  59.520 -51.070  1.00  0.00     0.001 A 
HETATM    7  C   UNL     1     -42.379  58.384 -51.866  1.00  0.00     0.015 A 
HETATM    8  N   UNL     1     -42.523  59.922 -55.207  1.00  0.00    -0.248 NA
HETATM    9  C   UNL     1     -42.323  58.874 -56.046  1.00  0.00     0.068 A 
HETATM   10  C   UNL     1     -42.253  57.579 -55.561  1.00  0.00     0.050 A 
ENDROOT
BRANCH   1  11
HETATM   11  C   UNL     1     -42.230  55.957 -53.730  1.00  0.00     0.257 C 
HETATM   12  N   UNL     1     -40.945  55.507 -53.486  1.00  0.00    -0.323 N 
HETATM   13  H   UNL     1     -40.200  56.192 -53.555  1.00  0.00     0.169 HD
HETATM   14  O   UNL     1     -43.272  55.328 -53.595  1.00  0.00    -0.267 OA
BRANCH  12  15
HETATM   15  C   UNL     1     -40.540  54.171 -53.276  1.00  0.00     0.035 A 
HETATM   16  C   UNL     1     -40.334  53.609 -52.017  1.00  0.00     0.030 A 
HETATM   17  C   UNL     1     -40.024  52.250 -51.887  1.00  0.00     0.017 A 
HETATM   18  C   UNL     1     -39.935  51.434 -53.019  1.00  0.00     0.009 A 
HETATM   19  C   UNL     1     -40.102  51.998 -54.286  1.00  0.00     0.017 A 
HETATM   20  C   UNL     1     -40.395  53.362 -54.411  1.00  0.00     0.030 A 
BRANCH  18  21
HETATM   21  C   UNL     1     -39.677  49.980 -52.830  1.00  0.00     0.155 C 
HETATM   22  C   UNL     1     -39.668  49.425 -51.430  1.00  0.00     0.096 C 
HETATM   23  O   UNL     1     -39.468  49.265 -53.808  1.00  0.00    -0.293 OA
ENDBRANCH  18  21
ENDBRANCH  12  15
ENDBRANCH   1  11
BRANCH   9  24
HETATM   24  C   UNL     1     -42.150  59.226 -57.472  1.00  0.00    -0.007 A 
HETATM   25  C   UNL     1     -41.886  60.540 -57.895  1.00  0.00     0.016 A 
HETATM   26  C   UNL     1     -41.784  60.861 -59.254  1.00  0.00     0.037 A 
HETATM   27  C   UNL     1     -41.952  59.882 -60.234  1.00  0.00     0.068 A 
HETATM   28  C   UNL     1     -42.196  58.570 -59.840  1.00  0.00     0.037 A 
HETATM   29  C   UNL     1     -42.295  58.252 -58.478  1.00  0.00     0.016 A 
BRANCH  27  30
HETATM   30  O   UNL     1     -41.853  60.333 -61.520  1.00  0.00    -0.356 OA
HETATM   31  C   UNL     1     -41.459  61.688 -61.693  1.00  0.00     0.210 C 
ENDBRANCH  27  30
ENDBRANCH   9  24
TORSDOF 5
ENDMDL
MODEL 2
REMARK VINA RESULT:      -8.6      2.650      9.360
REMARK  5 active torsions:
REMARK  status: ('A' for Active; 'I' for Inactive)
REMARK    1  A    between atoms: C_2  and  C_3 
REMARK    2  A    between atoms: C_6  and  N_7 
REMARK       I    between atoms: N_7  and  C_8 
REMARK    3  A    between atoms: C_8  and  C_9 
REMARK    4  A    between atoms: C_17  and  C_18 
REMARK    5  A    between atoms: C_21  and  O_22 
ROOT
HETATM    1  C   UNL     1     -41.640  57.345 -54.202  1.00  0.00     0.047 A 
HETATM    2  C   UNL     1     -42.180  57.226 -55.506  1.00  0.00     0.008 A 
HETATM    3  C   UNL     1     -42.320  55.915 -55.991  1.00  0.00     0.068 A 
HETATM    4  C   UNL     1     -42.879  55.716 -57.246  1.00  0.00     0.032 A 
HETATM    5  C   UNL     1     -43.279  56.778 -58.057  1.00  0.00     0.002 A 
HETATM    6  C   UNL     1     -43.103  58.080 -57.616  1.00  0.00     0.001 A 
HETATM    7  C   UNL     1     -42.551  58.304 -56.356  1.00  0.00     0.015 A 
HETATM    8  N   UNL     1     -41.915  54.834 -55.308  1.00  0.00    -0.248 NA
HETATM    9  C   UNL     1     -41.308  54.975 -54.102  1.00  0.00     0.068 A 
HETATM   10  C   UNL     1     -41.184  56.219 -53.509  1.00  0.00     0.050 A 
ENDROOT
BRANCH   1  11
HETATM   11  C   UNL     1     -41.463  58.650 -53.513  1.00  0.00     0.257 C 
HETATM   12  N   UNL     1     -42.574  59.105 -52.826  1.00  0.00    -0.323 N 
HETATM   13  H   UNL     1     -43.372  58.481 -52.784  1.00  0.00     0.169 HD
HETATM   14  O   UNL     1     -40.368  59.194 -53.591  1.00  0.00    -0.267 OA
BRANCH  12  15
HETATM   15  C   UNL     1     -42.767  60.395 -52.286  1.00  0.00     0.035 A 
HETATM   16  C   UNL     1     -43.068  61.522 -53.051  1.00  0.00     0.030 A 
HETATM   17  C   UNL     1     -43.337  62.749 -52.432  1.00  0.00     0.017 A 
HETATM   18  C   UNL     1     -43.326  62.856 -51.039  1.00  0.00     0.009 A 
HETATM   19  C   UNL     1     -42.986  61.741 -50.268  1.00  0.00     0.017 A 
HETATM   20  C   UNL     1     -42.701  60.520 -50.892  1.00  0.00     0.030 A 
BRANCH  18  21
HETATM   21  C   UNL     1     -43.690  64.160 -50.421  1.00  0.00     0.155 C 
HETATM   22  C   UNL     1     -42.817  64.707 -49.323  1.00  0.00     0.096 C 
HETATM   23  O   UNL     1     -44.693  64.759 -50.805  1.00  0.00    -0.293 OA
ENDBRANCH  18  21
ENDBRANCH  12  15
ENDBRANCH   1  11
BRANCH   9  24
HETATM   24  C   UNL     1     -40.767  53.730 -53.514  1.00  0.00    -0.007 A 
HETATM   25  C   UNL     1     -40.545  53.586 -52.133  1.00  0.00     0.016 A 
HETATM   26  C   UNL     1     -39.977  52.420 -51.605  1.00  0.00     0.037 A 
HETATM   27  C   UNL     1     -39.604  51.366 -52.438  1.00  0.00     0.068 A 
HETATM   28  C   UNL     1     -39.830  51.477 -53.807  1.00  0.00     0.037 A 
HETATM   29  C   UNL     1     -40.402  52.644 -54.333  1.00  0.00     0.016 A 
BRANCH  27  30
HETATM   30  O   UNL     1     -39.039  50.299 -51.799  1.00  0.00    -0.356 OA
HETATM   31  C   UNL     1     -39.736  49.790 -50.669  1.00  0.00     0.210 C 
ENDBRANCH  27  30
ENDBRANCH   9  24
TORSDOF 5
ENDMDL
MODEL 3
REMARK VINA RESULT:      -8.4      2.921      8.616
REMARK  5 active torsions:
REMARK  status: ('A' for Active; 'I' for Inactive)
REMARK    1  A    between atoms: C_2  and  C_3 
REMARK    2  A    between atoms: C_6  and  N_7 
REMARK       I    between atoms: N_7  and  C_8 
REMARK    3  A    between atoms: C_8  and  C_9 
REMARK    4  A    between atoms: C_17  and  C_18 
REMARK    5  A    between atoms: C_21  and  O_22 
ROOT
HETATM    1  C   UNL     1     -42.150  57.322 -55.273  1.00  0.00     0.047 A 
HETATM    2  C   UNL     1     -42.068  58.245 -54.201  1.00  0.00     0.008 A 
HETATM    3  C   UNL     1     -41.443  57.771 -53.035  1.00  0.00     0.068 A 
HETATM    4  C   UNL     1     -41.291  58.630 -51.955  1.00  0.00     0.032 A 
HETATM    5  C   UNL     1     -41.766  59.941 -51.976  1.00  0.00     0.002 A 
HETATM    6  C   UNL     1     -42.429  60.410 -53.099  1.00  0.00     0.001 A 
HETATM    7  C   UNL     1     -42.588  59.569 -54.199  1.00  0.00     0.015 A 
HETATM    8  N   UNL     1     -41.002  56.511 -52.900  1.00  0.00    -0.248 NA
HETATM    9  C   UNL     1     -41.179  55.614 -53.902  1.00  0.00     0.068 A 
HETATM   10  C   UNL     1     -41.723  56.000 -55.115  1.00  0.00     0.050 A 
ENDROOT
BRANCH   1  11
HETATM   11  C   UNL     1     -42.737  57.664 -56.595  1.00  0.00     0.257 C 
HETATM   12  N   UNL     1     -44.090  57.407 -56.718  1.00  0.00    -0.323 N 
HETATM   13  H   UNL     1     -44.573  57.091 -55.885  1.00  0.00     0.169 HD
HETATM   14  O   UNL     1     -41.997  58.152 -57.439  1.00  0.00    -0.267 OA
BRANCH  12  15
HETATM   15  C   UNL     1     -44.849  57.414 -57.908  1.00  0.00     0.035 A 
HETATM   16  C   UNL     1     -44.497  56.710 -59.060  1.00  0.00     0.030 A 
HETATM   17  C   UNL     1     -45.349  56.692 -60.170  1.00  0.00     0.017 A 
HETATM   18  C   UNL     1     -46.574  57.365 -60.133  1.00  0.00     0.009 A 
HETATM   19  C   UNL     1     -46.916  58.104 -58.997  1.00  0.00     0.017 A 
HETATM   20  C   UNL     1     -46.052  58.133 -57.895  1.00  0.00     0.030 A 
BRANCH  18  21
HETATM   21  C   UNL     1     -47.482  57.257 -61.307  1.00  0.00     0.155 C 
HETATM   22  C   UNL     1     -48.201  58.494 -61.778  1.00  0.00     0.096 C 
HETATM   23  O   UNL     1     -47.639  56.171 -61.861  1.00  0.00    -0.293 OA
ENDBRANCH  18  21
ENDBRANCH  12  15
ENDBRANCH   1  11
BRANCH   9  24
HETATM   24  C   UNL     1     -40.793  54.222 -53.584  1.00  0.00    -0.007 A 
HETATM   25  C   UNL     1     -40.614  53.775 -52.263  1.00  0.00     0.016 A 
HETATM   26  C   UNL     1     -40.191  52.469 -51.987  1.00  0.00     0.037 A 
HETATM   27  C   UNL     1     -39.924  51.571 -53.020  1.00  0.00     0.068 A 
HETATM   28  C   UNL     1     -40.111  51.984 -54.336  1.00  0.00     0.037 A 
HETATM   29  C   UNL     1     -40.537  53.291 -54.609  1.00  0.00     0.016 A 
BRANCH  27  30
HETATM   30  O   UNL     1     -39.495  50.339 -52.615  1.00  0.00    -0.356 OA
HETATM   31  C   UNL     1     -39.463  50.103 -51.213  1.00  0.00     0.210 C 
ENDBRANCH  27  30
ENDBRANCH   9  24
TORSDOF 5
ENDMDL
MODEL 4
REMARK VINA RESULT:      -8.2      2.375      2.792
REMARK  5 active torsions:
REMARK  status: ('A' for Active; 'I' for Inactive)
REMARK    1  A    between atoms: C_2  and  C_3 
REMARK    2  A    between atoms: C_6  and  N_7 
REMARK       I    between atoms: N_7  and  C_8 
REMARK    3  A    between atoms: C_8  and  C_9 
REMARK    4  A    between atoms: C_17  and  C_18 
REMARK    5  A    between atoms: C_21  and  O_22 
ROOT
HETATM    1  C   UNL     1     -43.193  56.964 -53.597  1.00  0.00     0.047 A 
HETATM    2  C   UNL     1     -42.923  58.252 -53.074  1.00  0.00     0.008 A 
HETATM    3  C   UNL     1     -43.516  59.326 -53.759  1.00  0.00     0.068 A 
HETATM    4  C   UNL     1     -43.329  60.617 -53.283  1.00  0.00     0.032 A 
HETATM    5  C   UNL     1     -42.544  60.887 -52.162  1.00  0.00     0.002 A 
HETATM    6  C   UNL     1     -41.911  59.846 -51.503  1.00  0.00     0.001 A 
HETATM    7  C   UNL     1     -42.090  58.541 -51.958  1.00  0.00     0.015 A 
HETATM    8  N   UNL     1     -44.242  59.170 -54.877  1.00  0.00    -0.248 NA
HETATM    9  C   UNL     1     -44.407  57.938 -55.419  1.00  0.00     0.068 A 
HETATM   10  C   UNL     1     -43.919  56.810 -54.782  1.00  0.00     0.050 A 
ENDROOT
BRANCH   1  11
HETATM   11  C   UNL     1     -42.686  55.713 -52.975  1.00  0.00     0.257 C 
HETATM   12  N   UNL     1     -41.500  55.236 -53.503  1.00  0.00    -0.323 N 
HETATM   13  H   UNL     1     -41.043  55.815 -54.198  1.00  0.00     0.169 HD
HETATM   14  O   UNL     1     -43.335  55.229 -52.056  1.00  0.00    -0.267 OA
BRANCH  12  15
HETATM   15  C   UNL     1     -40.918  53.971 -53.272  1.00  0.00     0.035 A 
HETATM   16  C   UNL     1     -40.407  53.562 -52.040  1.00  0.00     0.030 A 
HETATM   17  C   UNL     1     -39.931  52.257 -51.866  1.00  0.00     0.017 A 
HETATM   18  C   UNL     1     -39.979  51.341 -52.920  1.00  0.00     0.009 A 
HETATM   19  C   UNL     1     -40.453  51.754 -54.168  1.00  0.00     0.017 A 
HETATM   20  C   UNL     1     -40.912  53.066 -54.342  1.00  0.00     0.030 A 
BRANCH  18  21
HETATM   21  C   UNL     1     -39.531  49.943 -52.670  1.00  0.00     0.155 C 
HETATM   22  C   UNL     1     -39.396  49.473 -51.245  1.00  0.00     0.096 C 
HETATM   23  O   UNL     1     -39.270  49.206 -53.618  1.00  0.00    -0.293 OA
ENDBRANCH  18  21
ENDBRANCH  12  15
ENDBRANCH   1  11
BRANCH   9  24
HETATM   24  C   UNL     1     -45.094  57.907 -56.729  1.00  0.00    -0.007 A 
HETATM   25  C   UNL     1     -44.456  57.465 -57.901  1.00  0.00     0.016 A 
HETATM   26  C   UNL     1     -45.106  57.500 -59.141  1.00  0.00     0.037 A 
HETATM   27  C   UNL     1     -46.408  57.986 -59.251  1.00  0.00     0.068 A 
HETATM   28  C   UNL     1     -47.067  58.413 -58.103  1.00  0.00     0.037 A 
HETATM   29  C   UNL     1     -46.415  58.374 -56.862  1.00  0.00     0.016 A 
BRANCH  27  30
HETATM   30  O   UNL     1     -46.916  57.989 -60.520  1.00  0.00    -0.356 OA
HETATM   31  C   UNL     1     -47.343  56.735 -61.039  1.00  0.00     0.210 C 
ENDBRANCH  27  30
ENDBRANCH   9  24
TORSDOF 5
ENDMDL
MODEL 5
REMARK VINA RESULT:      -8.2      1.561      8.698
REMARK  5 active torsions:
REMARK  status: ('A' for Active; 'I' for Inactive)
REMARK    1  A    between atoms: C_2  and  C_3 
REMARK    2  A    between atoms: C_6  and  N_7 
REMARK       I    between atoms: N_7  and  C_8 
REMARK    3  A    between atoms: C_8  and  C_9 
REMARK    4  A    between atoms: C_17  and  C_18 
REMARK    5  A    between atoms: C_21  and  O_22 
ROOT
HETATM    1  C   UNL     1     -42.340  57.672 -54.070  1.00  0.00     0.047 A 
HETATM    2  C   UNL     1     -43.309  57.815 -53.048  1.00  0.00     0.008 A 
HETATM    3  C   UNL     1     -43.361  56.774 -52.106  1.00  0.00     0.068 A 
HETATM    4  C   UNL     1     -44.260  56.863 -51.051  1.00  0.00     0.032 A 
HETATM    5  C   UNL     1     -45.137  57.938 -50.912  1.00  0.00     0.002 A 
HETATM    6  C   UNL     1     -45.134  58.950 -51.858  1.00  0.00     0.001 A 
HETATM    7  C   UNL     1     -44.236  58.887 -52.922  1.00  0.00     0.015 A 
HETATM    8  N   UNL     1     -42.597  55.675 -52.186  1.00  0.00    -0.248 NA
HETATM    9  C   UNL     1     -41.744  55.509 -53.228  1.00  0.00     0.068 A 
HETATM   10  C   UNL     1     -41.572  56.508 -54.171  1.00  0.00     0.050 A 
ENDROOT
BRANCH   1  11
HETATM   11  C   UNL     1     -42.114  58.696 -55.124  1.00  0.00     0.257 C 
HETATM   12  N   UNL     1     -42.842  58.511 -56.285  1.00  0.00    -0.323 N 
HETATM   13  H   UNL     1     -43.517  57.755 -56.286  1.00  0.00     0.169 HD
HETATM   14  O   UNL     1     -41.335  59.607 -54.876  1.00  0.00    -0.267 OA
BRANCH  12  15
HETATM   15  C   UNL     1     -42.660  59.180 -57.514  1.00  0.00     0.035 A 
HETATM   16  C   UNL     1     -42.763  60.562 -57.671  1.00  0.00     0.030 A 
HETATM   17  C   UNL     1     -42.476  61.160 -58.904  1.00  0.00     0.017 A 
HETATM   18  C   UNL     1     -42.065  60.382 -59.989  1.00  0.00     0.009 A 
HETATM   19  C   UNL     1     -41.998  58.993 -59.851  1.00  0.00     0.017 A 
HETATM   20  C   UNL     1     -42.302  58.398 -58.620  1.00  0.00     0.030 A 
BRANCH  18  21
HETATM   21  C   UNL     1     -41.699  61.067 -61.259  1.00  0.00     0.155 C 
HETATM   22  C   UNL     1     -40.795  62.270 -61.195  1.00  0.00     0.096 C 
HETATM   23  O   UNL     1     -42.142  60.651 -62.328  1.00  0.00    -0.293 OA
ENDBRANCH  18  21
ENDBRANCH  12  15
ENDBRANCH   1  11
BRANCH   9  24
HETATM   24  C   UNL     1     -41.068  54.195 -53.294  1.00  0.00    -0.007 A 
HETATM   25  C   UNL     1     -40.855  53.520 -54.508  1.00  0.00     0.016 A 
HETATM   26  C   UNL     1     -40.266  52.250 -54.540  1.00  0.00     0.037 A 
HETATM   27  C   UNL     1     -39.881  51.610 -53.363  1.00  0.00     0.068 A 
HETATM   28  C   UNL     1     -40.066  52.265 -52.149  1.00  0.00     0.037 A 
HETATM   29  C   UNL     1     -40.653  53.538 -52.120  1.00  0.00     0.016 A 
BRANCH  27  30
HETATM   30  O   UNL     1     -39.343  50.365 -53.533  1.00  0.00    -0.356 OA
HETATM   31  C   UNL     1     -39.555  49.430 -52.483  1.00  0.00     0.210 C 
ENDBRANCH  27  30
ENDBRANCH   9  24
TORSDOF 5
ENDMDL
MODEL 6
REMARK VINA RESULT:      -8.1      2.159      5.464
REMARK  5 active torsions:
REMARK  status: ('A' for Active; 'I' for Inactive)
REMARK    1  A    between atoms: C_2  and  C_3 
REMARK    2  A    between atoms: C_6  and  N_7 
REMARK       I    between atoms: N_7  and  C_8 
REMARK    3  A    between atoms: C_8  and  C_9 
REMARK    4  A    between atoms: C_17  and  C_18 
REMARK    5  A    between atoms: C_21  and  O_22 
ROOT
HETATM    1  C   UNL     1     -42.360  57.529 -54.097  1.00  0.00     0.047 A 
HETATM    2  C   UNL     1     -42.370  57.843 -55.478  1.00  0.00     0.008 A 
HETATM    3  C   UNL     1     -42.367  59.213 -55.791  1.00  0.00     0.068 A 
HETATM    4  C   UNL     1     -42.336  59.600 -57.125  1.00  0.00     0.032 A 
HETATM    5  C   UNL     1     -42.341  58.672 -58.167  1.00  0.00     0.002 A 
HETATM    6  C   UNL     1     -42.394  57.318 -57.877  1.00  0.00     0.001 A 
HETATM    7  C   UNL     1     -42.417  56.905 -56.546  1.00  0.00     0.015 A 
HETATM    8  N   UNL     1     -42.416  60.178 -54.861  1.00  0.00    -0.248 NA
HETATM    9  C   UNL     1     -42.507  59.856 -53.546  1.00  0.00     0.068 A 
HETATM   10  C   UNL     1     -42.450  58.536 -53.132  1.00  0.00     0.050 A 
ENDROOT
BRANCH   1  11
HETATM   11  C   UNL     1     -42.317  56.135 -53.582  1.00  0.00     0.257 C 
HETATM   12  N   UNL     1     -41.082  55.517 -53.668  1.00  0.00    -0.323 N 
HETATM   13  H   UNL     1     -40.308  56.086 -53.992  1.00  0.00     0.169 HD
HETATM   14  O   UNL     1     -43.348  55.666 -53.118  1.00  0.00    -0.267 OA
BRANCH  12  15
HETATM   15  C   UNL     1     -40.806  54.146 -53.476  1.00  0.00     0.035 A 
HETATM   16  C   UNL     1     -40.715  53.218 -54.513  1.00  0.00     0.030 A 
HETATM   17  C   UNL     1     -40.346  51.893 -54.251  1.00  0.00     0.017 A 
HETATM   18  C   UNL     1     -40.044  51.488 -52.947  1.00  0.00     0.009 A 
HETATM   19  C   UNL     1     -40.170  52.402 -51.898  1.00  0.00     0.017 A 
HETATM   20  C   UNL     1     -40.557  53.722 -52.164  1.00  0.00     0.030 A 
BRANCH  18  21
HETATM   21  C   UNL     1     -39.583  50.090 -52.724  1.00  0.00     0.155 C 
HETATM   22  C   UNL     1     -39.396  49.610 -51.309  1.00  0.00     0.096 C 
HETATM   23  O   UNL     1     -39.353  49.362 -53.687  1.00  0.00    -0.293 OA
ENDBRANCH  18  21
ENDBRANCH  12  15
ENDBRANCH   1  11
BRANCH   9  24
HETATM   24  C   UNL     1     -42.710  60.996 -52.625  1.00  0.00    -0.007 A 
HETATM   25  C   UNL     1     -42.596  60.864 -51.230  1.00  0.00     0.016 A 
HETATM   26  C   UNL     1     -42.850  61.943 -50.374  1.00  0.00     0.037 A 
HETATM   27  C   UNL     1     -43.236  63.183 -50.883  1.00  0.00     0.068 A 
HETATM   28  C   UNL     1     -43.338  63.343 -52.261  1.00  0.00     0.037 A 
HETATM   29  C   UNL     1     -43.081  62.262 -53.116  1.00  0.00     0.016 A 
BRANCH  27  30
HETATM   30  O   UNL     1     -43.478  64.142 -49.939  1.00  0.00    -0.356 OA
HETATM   31  C   UNL     1     -44.396  63.803 -48.907  1.00  0.00     0.210 C 
ENDBRANCH  27  30
ENDBRANCH   9  24
TORSDOF 5
ENDMDL
MODEL 7
REMARK VINA RESULT:      -8.1      2.462      4.900
REMARK  5 active torsions:
REMARK  status: ('A' for Active; 'I' for Inactive)
REMARK    1  A    between atoms: C_2  and  C_3 
REMARK    2  A    between atoms: C_6  and  N_7 
REMARK       I    between atoms: N_7  and  C_8 
REMARK    3  A    between atoms: C_8  and  C_9 
REMARK    4  A    between atoms: C_17  and  C_18 
REMARK    5  A    between atoms: C_21  and  O_22 
ROOT
HETATM    1  C   UNL     1     -42.933  56.549 -55.591  1.00  0.00     0.047 A 
HETATM    2  C   UNL     1     -43.006  56.656 -57.001  1.00  0.00     0.008 A 
HETATM    3  C   UNL     1     -43.173  57.956 -57.506  1.00  0.00     0.068 A 
HETATM    4  C   UNL     1     -43.213  58.146 -58.881  1.00  0.00     0.032 A 
HETATM    5  C   UNL     1     -43.125  57.083 -59.780  1.00  0.00     0.002 A 
HETATM    6  C   UNL     1     -43.009  55.788 -59.299  1.00  0.00     0.001 A 
HETATM    7  C   UNL     1     -42.959  55.574 -57.923  1.00  0.00     0.015 A 
HETATM    8  N   UNL     1     -43.321  59.034 -56.721  1.00  0.00    -0.248 NA
HETATM    9  C   UNL     1     -43.349  58.898 -55.371  1.00  0.00     0.068 A 
HETATM   10  C   UNL     1     -43.126  57.668 -54.776  1.00  0.00     0.050 A 
ENDROOT
BRANCH   1  11
HETATM   11  C   UNL     1     -42.714  55.259 -54.885  1.00  0.00     0.257 C 
HETATM   12  N   UNL     1     -41.449  55.092 -54.351  1.00  0.00    -0.323 N 
HETATM   13  H   UNL     1     -40.818  55.883 -54.413  1.00  0.00     0.169 HD
HETATM   14  O   UNL     1     -43.654  54.477 -54.819  1.00  0.00    -0.267 OA
BRANCH  12  15
HETATM   15  C   UNL     1     -40.896  53.897 -53.842  1.00  0.00     0.035 A 
HETATM   16  C   UNL     1     -40.630  53.677 -52.490  1.00  0.00     0.030 A 
HETATM   17  C   UNL     1     -40.168  52.430 -52.051  1.00  0.00     0.017 A 
HETATM   18  C   UNL     1     -39.985  51.384 -52.959  1.00  0.00     0.009 A 
HETATM   19  C   UNL     1     -40.211  51.609 -54.319  1.00  0.00     0.017 A 
HETATM   20  C   UNL     1     -40.657  52.863 -54.756  1.00  0.00     0.030 A 
BRANCH  18  21
HETATM   21  C   UNL     1     -39.563  50.054 -52.439  1.00  0.00     0.155 C 
HETATM   22  C   UNL     1     -39.387  49.885 -50.952  1.00  0.00     0.096 C 
HETATM   23  O   UNL     1     -39.357  49.129 -53.221  1.00  0.00    -0.293 OA
ENDBRANCH  18  21
ENDBRANCH  12  15
ENDBRANCH   1  11
BRANCH   9  24
HETATM   24  C   UNL     1     -43.671  60.128 -54.616  1.00  0.00    -0.007 A 
HETATM   25  C   UNL     1     -42.682  60.905 -53.989  1.00  0.00     0.016 A 
HETATM   26  C   UNL     1     -43.015  62.033 -53.229  1.00  0.00     0.037 A 
HETATM   27  C   UNL     1     -44.346  62.414 -53.062  1.00  0.00     0.068 A 
HETATM   28  C   UNL     1     -45.343  61.672 -53.687  1.00  0.00     0.037 A 
HETATM   29  C   UNL     1     -45.006  60.544 -54.449  1.00  0.00     0.016 A 
BRANCH  27  30
HETATM   30  O   UNL     1     -44.535  63.517 -52.277  1.00  0.00    -0.356 OA
HETATM   31  C   UNL     1     -43.446  64.427 -52.184  1.00  0.00     0.210 C 
ENDBRANCH  27  30
ENDBRANCH   9  24
TORSDOF 5
ENDMDL
MODEL 8
REMARK VINA RESULT:      -7.9      2.619      6.206
REMARK  5 active torsions:
REMARK  status: ('A' for Active; 'I' for Inactive)
REMARK    1  A    between atoms: C_2  and  C_3 
REMARK    2  A    between atoms: C_6  and  N_7 
REMARK       I    between atoms: N_7  and  C_8 
REMARK    3  A    between atoms: C_8  and  C_9 
REMARK    4  A    between atoms: C_17  and  C_18 
REMARK    5  A    between atoms: C_21  and  O_22 
ROOT
HETATM    1  C   UNL     1     -42.781  57.765 -53.186  1.00  0.00     0.047 A 
HETATM    2  C   UNL     1     -42.630  58.437 -54.424  1.00  0.00     0.008 A 
HETATM    3  C   UNL     1     -42.794  59.831 -54.385  1.00  0.00     0.068 A 
HETATM    4  C   UNL     1     -42.622  60.564 -55.552  1.00  0.00     0.032 A 
HETATM    5  C   UNL     1     -42.323  59.957 -56.772  1.00  0.00     0.002 A 
HETATM    6  C   UNL     1     -42.207  58.578 -56.839  1.00  0.00     0.001 A 
HETATM    7  C   UNL     1     -42.367  57.822 -55.680  1.00  0.00     0.015 A 
HETATM    8  N   UNL     1     -43.134  60.498 -53.272  1.00  0.00    -0.248 NA
HETATM    9  C   UNL     1     -43.372  59.826 -52.118  1.00  0.00     0.068 A 
HETATM   10  C   UNL     1     -43.172  58.458 -52.037  1.00  0.00     0.050 A 
ENDROOT
BRANCH   1  11
HETATM   11  C   UNL     1     -42.598  56.297 -53.032  1.00  0.00     0.257 C 
HETATM   12  N   UNL     1     -41.290  55.886 -52.850  1.00  0.00    -0.323 N 
HETATM   13  H   UNL     1     -40.591  56.614 -52.756  1.00  0.00     0.169 HD
HETATM   14  O   UNL     1     -43.599  55.592 -53.058  1.00  0.00    -0.267 OA
BRANCH  12  15
HETATM   15  C   UNL     1     -40.803  54.563 -52.908  1.00  0.00     0.035 A 
HETATM   16  C   UNL     1     -40.497  53.796 -51.783  1.00  0.00     0.030 A 
HETATM   17  C   UNL     1     -40.107  52.458 -51.920  1.00  0.00     0.017 A 
HETATM   18  C   UNL     1     -40.037  51.868 -53.185  1.00  0.00     0.009 A 
HETATM   19  C   UNL     1     -40.304  52.641 -54.319  1.00  0.00     0.017 A 
HETATM   20  C   UNL     1     -40.677  53.983 -54.178  1.00  0.00     0.030 A 
BRANCH  18  21
HETATM   21  C   UNL     1     -39.690  50.423 -53.279  1.00  0.00     0.155 C 
HETATM   22  C   UNL     1     -39.627  49.784 -54.642  1.00  0.00     0.096 C 
HETATM   23  O   UNL     1     -39.474  49.779 -52.255  1.00  0.00    -0.293 OA
ENDBRANCH  18  21
ENDBRANCH  12  15
ENDBRANCH   1  11
BRANCH   9  24
HETATM   24  C   UNL     1     -43.888  60.645 -51.000  1.00  0.00    -0.007 A 
HETATM   25  C   UNL     1     -45.025  60.276 -50.260  1.00  0.00     0.016 A 
HETATM   26  C   UNL     1     -45.531  61.097 -49.244  1.00  0.00     0.037 A 
HETATM   27  C   UNL     1     -44.925  62.316 -48.942  1.00  0.00     0.068 A 
HETATM   28  C   UNL     1     -43.788  62.695 -49.648  1.00  0.00     0.037 A 
HETATM   29  C   UNL     1     -43.282  61.870 -50.663  1.00  0.00     0.016 A 
BRANCH  27  30
HETATM   30  O   UNL     1     -45.533  63.030 -47.948  1.00  0.00    -0.356 OA
HETATM   31  C   UNL     1     -45.141  62.729 -46.615  1.00  0.00     0.210 C 
ENDBRANCH  27  30
ENDBRANCH   9  24
TORSDOF 5
ENDMDL
MODEL 9
REMARK VINA RESULT:      -7.8      2.971      7.376
REMARK  5 active torsions:
REMARK  status: ('A' for Active; 'I' for Inactive)
REMARK    1  A    between atoms: C_2  and  C_3 
REMARK    2  A    between atoms: C_6  and  N_7 
REMARK       I    between atoms: N_7  and  C_8 
REMARK    3  A    between atoms: C_8  and  C_9 
REMARK    4  A    between atoms: C_17  and  C_18 
REMARK    5  A    between atoms: C_21  and  O_22 
ROOT
HETATM    1  C   UNL     1     -41.875  55.936 -53.298  1.00  0.00     0.047 A 
HETATM    2  C   UNL     1     -41.213  54.695 -53.134  1.00  0.00     0.008 A 
HETATM    3  C   UNL     1     -41.001  53.957 -54.311  1.00  0.00     0.068 A 
HETATM    4  C   UNL     1     -40.323  52.747 -54.236  1.00  0.00     0.032 A 
HETATM    5  C   UNL     1     -39.873  52.223 -53.024  1.00  0.00     0.002 A 
HETATM    6  C   UNL     1     -40.118  52.912 -51.847  1.00  0.00     0.001 A 
HETATM    7  C   UNL     1     -40.789  54.133 -51.898  1.00  0.00     0.015 A 
HETATM    8  N   UNL     1     -41.443  54.353 -55.514  1.00  0.00    -0.248 NA
HETATM    9  C   UNL     1     -42.162  55.497 -55.636  1.00  0.00     0.068 A 
HETATM   10  C   UNL     1     -42.368  56.327 -54.547  1.00  0.00     0.050 A 
ENDROOT
BRANCH   1  11
HETATM   11  C   UNL     1     -42.144  56.867 -52.171  1.00  0.00     0.257 C 
HETATM   12  N   UNL     1     -43.380  57.488 -52.206  1.00  0.00    -0.323 N 
HETATM   13  H   UNL     1     -44.017  57.197 -52.939  1.00  0.00     0.169 HD
HETATM   14  O   UNL     1     -41.278  56.991 -51.314  1.00  0.00    -0.267 OA
BRANCH  12  15
HETATM   15  C   UNL     1     -43.805  58.574 -51.411  1.00  0.00     0.035 A 
HETATM   16  C   UNL     1     -43.048  59.726 -51.197  1.00  0.00     0.030 A 
HETATM   17  C   UNL     1     -43.578  60.799 -50.472  1.00  0.00     0.017 A 
HETATM   18  C   UNL     1     -44.880  60.739 -49.969  1.00  0.00     0.009 A 
HETATM   19  C   UNL     1     -45.631  59.573 -50.145  1.00  0.00     0.017 A 
HETATM   20  C   UNL     1     -45.090  58.495 -50.857  1.00  0.00     0.030 A 
BRANCH  18  21
HETATM   21  C   UNL     1     -45.430  61.932 -49.268  1.00  0.00     0.155 C 
HETATM   22  C   UNL     1     -44.526  63.115 -49.042  1.00  0.00     0.096 C 
HETATM   23  O   UNL     1     -46.596  61.930 -48.880  1.00  0.00    -0.293 OA
ENDBRANCH  18  21
ENDBRANCH  12  15
ENDBRANCH   1  11
BRANCH   9  24
HETATM   24  C   UNL     1     -42.727  55.752 -56.978  1.00  0.00    -0.007 A 
HETATM   25  C   UNL     1     -43.388  54.756 -57.718  1.00  0.00     0.016 A 
HETATM   26  C   UNL     1     -43.863  55.004 -59.012  1.00  0.00     0.037 A 
HETATM   27  C   UNL     1     -43.684  56.250 -59.612  1.00  0.00     0.068 A 
HETATM   28  C   UNL     1     -43.049  57.258 -58.894  1.00  0.00     0.037 A 
HETATM   29  C   UNL     1     -42.577  57.008 -57.598  1.00  0.00     0.016 A 
BRANCH  27  30
HETATM   30  O   UNL     1     -44.172  56.351 -60.885  1.00  0.00    -0.356 OA
HETATM   31  C   UNL     1     -45.169  55.409 -61.262  1.00  0.00     0.210 C 
ENDBRANCH  27  30
ENDBRANCH   9  24
TORSDOF 5
ENDMDL
MODEL 10
REMARK VINA RESULT:      -7.7      2.771      4.615
REMARK  5 active torsions:
REMARK  status: ('A' for Active; 'I' for Inactive)
REMARK    1  A    between atoms: C_2  and  C_3 
REMARK    2  A    between atoms: C_6  and  N_7 
REMARK       I    between atoms: N_7  and  C_8 
REMARK    3  A    between atoms: C_8  and  C_9 
REMARK    4  A    between atoms: C_17  and  C_18 
REMARK    5  A    between atoms: C_21  and  O_22 
ROOT
HETATM    1  C   UNL     1     -42.807  56.901 -57.299  1.00  0.00     0.047 A 
HETATM    2  C   UNL     1     -43.403  56.198 -58.374  1.00  0.00     0.008 A 
HETATM    3  C   UNL     1     -43.467  56.891 -59.595  1.00  0.00     0.068 A 
HETATM    4  C   UNL     1     -44.003  56.253 -60.706  1.00  0.00     0.032 A 
HETATM    5  C   UNL     1     -44.511  54.955 -60.643  1.00  0.00     0.002 A 
HETATM    6  C   UNL     1     -44.502  54.274 -59.436  1.00  0.00     0.001 A 
HETATM    7  C   UNL     1     -43.962  54.891 -58.309  1.00  0.00     0.015 A 
HETATM    8  N   UNL     1     -43.055  58.159 -59.740  1.00  0.00    -0.248 NA
HETATM    9  C   UNL     1     -42.578  58.849 -58.674  1.00  0.00     0.068 A 
HETATM   10  C   UNL     1     -42.413  58.234 -57.445  1.00  0.00     0.050 A 
ENDROOT
BRANCH   1  11
HETATM   11  C   UNL     1     -42.615  56.308 -55.949  1.00  0.00     0.257 C 
HETATM   12  N   UNL     1     -41.512  55.483 -55.824  1.00  0.00    -0.323 N 
HETATM   13  H   UNL     1     -40.894  55.421 -56.625  1.00  0.00     0.169 HD
HETATM   14  O   UNL     1     -43.419  56.606 -55.075  1.00  0.00    -0.267 OA
BRANCH  12  15
HETATM   15  C   UNL     1     -41.219  54.618 -54.748  1.00  0.00     0.035 A 
HETATM   16  C   UNL     1     -40.779  53.303 -54.903  1.00  0.00     0.030 A 
HETATM   17  C   UNL     1     -40.420  52.538 -53.787  1.00  0.00     0.017 A 
HETATM   18  C   UNL     1     -40.480  53.088 -52.503  1.00  0.00     0.009 A 
HETATM   19  C   UNL     1     -40.956  54.390 -52.336  1.00  0.00     0.017 A 
HETATM   20  C   UNL     1     -41.331  55.147 -53.455  1.00  0.00     0.030 A 
BRANCH  18  21
HETATM   21  C   UNL     1     -40.017  52.263 -51.353  1.00  0.00     0.155 C 
HETATM   22  C   UNL     1     -39.430  50.904 -51.630  1.00  0.00     0.096 C 
HETATM   23  O   UNL     1     -40.131  52.695 -50.208  1.00  0.00    -0.293 OA
ENDBRANCH  18  21
ENDBRANCH  12  15
ENDBRANCH   1  11
BRANCH   9  24
HETATM   24  C   UNL     1     -42.299  60.281 -58.917  1.00  0.00    -0.007 A 
HETATM   25  C   UNL     1     -41.758  60.746 -60.129  1.00  0.00     0.016 A 
HETATM   26  C   UNL     1     -41.446  62.098 -60.316  1.00  0.00     0.037 A 
HETATM   27  C   UNL     1     -41.655  63.027 -59.297  1.00  0.00     0.068 A 
HETATM   28  C   UNL     1     -42.206  62.595 -58.095  1.00  0.00     0.037 A 
HETATM   29  C   UNL     1     -42.520  61.241 -57.911  1.00  0.00     0.016 A 
BRANCH  27  30
HETATM   30  O   UNL     1     -41.286  64.307 -59.600  1.00  0.00    -0.356 OA
HETATM   31  C   UNL     1     -41.636  64.782 -60.894  1.00  0.00     0.210 C 
ENDBRANCH  27  30
ENDBRANCH   9  24
TORSDOF 5
ENDMDL
