MODEL 1
REMARK VINA RESULT:      -7.1      0.000      0.000
REMARK  5 active torsions:
REMARK  status: ('A' for Active; 'I' for Inactive)
REMARK    1  A    between atoms: C_2  and  C_3 
REMARK    2  A    between atoms: C_3  and  N_4 
REMARK    3  A    between atoms: C_3  and  C_19 
REMARK       I    between atoms: N_4  and  C_5 
REMARK    4  A    between atoms: C_5  and  C_6 
REMARK    5  A    between atoms: C_7  and  C_8 
ROOT
HETATM    1  N   UNL     1     -41.430  54.283 -50.944  1.00  0.00    -0.345 N 
HETATM    2  C   UNL     1     -41.480  55.651 -50.891  1.00  0.00     0.255 C 
HETATM    3  O   UNL     1     -40.623  56.334 -50.344  1.00  0.00    -0.268 OA
HETATM    4  H   UNL     1     -42.179  53.760 -51.387  1.00  0.00     0.163 HD
ENDROOT
BRANCH   2   5
HETATM    5  C   UNL     1     -42.619  56.208 -51.594  1.00  0.00     0.075 A 
HETATM    6  C   UNL     1     -42.775  56.685 -52.935  1.00  0.00     0.076 A 
HETATM    7  N   UNL     1     -44.030  57.136 -53.128  1.00  0.00    -0.178 NA
HETATM    8  N   UNL     1     -44.661  56.916 -51.973  1.00  0.00    -0.288 N 
HETATM    9  H   UNL     1     -45.642  57.167 -51.908  1.00  0.00     0.188 HD
HETATM   10  C   UNL     1     -43.862  56.390 -51.012  1.00  0.00     0.128 A 
BRANCH   6  11
HETATM   11  C   UNL     1     -41.761  56.879 -54.054  1.00  0.00     0.040 C 
HETATM   12  C   UNL     1     -40.902  55.656 -54.406  1.00  0.00     0.011 C 
HETATM   13  C   UNL     1     -41.705  54.556 -55.095  1.00  0.00     0.001 C 
HETATM   14  C   UNL     1     -42.377  55.076 -56.364  1.00  0.00     0.000 C 
HETATM   15  C   UNL     1     -43.204  56.331 -56.098  1.00  0.00     0.001 C 
HETATM   16  C   UNL     1     -42.391  57.403 -55.369  1.00  0.00     0.011 C 
ENDBRANCH   6  11
ENDBRANCH   2   5
BRANCH   1  17
HETATM   17  C   UNL     1     -40.358  53.508 -50.357  1.00  0.00     0.154 C 
BRANCH  17  18
HETATM   18  C   UNL     1     -40.672  53.041 -48.927  1.00  0.00     0.028 C 
HETATM   19  C   UNL     1     -40.224  54.001 -47.828  1.00  0.00     0.007 C 
ENDBRANCH  17  18
BRANCH  17  20
HETATM   20  C   UNL     1     -40.095  52.356 -51.285  1.00  0.00     0.127 A 
HETATM   21  N   UNL     1     -40.166  52.374 -52.604  1.00  0.00    -0.237 NA
HETATM   22  C   UNL     1     -39.850  51.101 -53.015  1.00  0.00     0.048 A 
HETATM   23  C   UNL     1     -39.848  50.745 -54.451  1.00  0.00     0.072 C 
HETATM   24  C   UNL     1     -39.567  50.306 -51.928  1.00  0.00     0.116 A 
HETATM   25  N   UNL     1     -39.720  51.115 -50.836  1.00  0.00    -0.351 N 
HETATM   26  H   UNL     1     -39.586  50.850 -49.869  1.00  0.00     0.166 HD
ENDBRANCH  17  20
ENDBRANCH   1  17
TORSDOF 5
ENDMDL
MODEL 2
REMARK VINA RESULT:      -6.9      2.364      5.691
REMARK  5 active torsions:
REMARK  status: ('A' for Active; 'I' for Inactive)
REMARK    1  A    between atoms: C_2  and  C_3 
REMARK    2  A    between atoms: C_3  and  N_4 
REMARK    3  A    between atoms: C_3  and  C_19 
REMARK       I    between atoms: N_4  and  C_5 
REMARK    4  A    between atoms: C_5  and  C_6 
REMARK    5  A    between atoms: C_7  and  C_8 
ROOT
HETATM    1  N   UNL     1     -41.119  57.371 -50.990  1.00  0.00    -0.345 N 
HETATM    2  C   UNL     1     -41.882  56.267 -50.717  1.00  0.00     0.255 C 
HETATM    3  O   UNL     1     -43.090  56.317 -50.520  1.00  0.00    -0.268 OA
HETATM    4  H   UNL     1     -40.117  57.281 -51.119  1.00  0.00     0.163 HD
ENDROOT
BRANCH   2   5
HETATM    5  C   UNL     1     -41.126  55.031 -50.737  1.00  0.00     0.075 A 
HETATM    6  C   UNL     1     -41.093  53.946 -51.672  1.00  0.00     0.076 A 
HETATM    7  N   UNL     1     -40.239  52.993 -51.252  1.00  0.00    -0.178 NA
HETATM    8  N   UNL     1     -39.715  53.468 -50.120  1.00  0.00    -0.288 N 
HETATM    9  H   UNL     1     -39.018  52.906 -49.642  1.00  0.00     0.188 HD
HETATM   10  C   UNL     1     -40.227  54.667 -49.749  1.00  0.00     0.128 A 
BRANCH   6  11
HETATM   11  C   UNL     1     -41.933  53.665 -52.910  1.00  0.00     0.040 C 
HETATM   12  C   UNL     1     -42.391  54.894 -53.708  1.00  0.00     0.011 C 
HETATM   13  C   UNL     1     -41.239  55.581 -54.437  1.00  0.00     0.001 C 
HETATM   14  C   UNL     1     -40.526  54.613 -55.379  1.00  0.00     0.000 C 
HETATM   15  C   UNL     1     -40.093  53.337 -54.662  1.00  0.00     0.001 C 
HETATM   16  C   UNL     1     -41.253  52.689 -53.904  1.00  0.00     0.011 C 
ENDBRANCH   6  11
ENDBRANCH   2   5
BRANCH   1  17
HETATM   17  C   UNL     1     -41.665  58.709 -51.072  1.00  0.00     0.154 C 
BRANCH  17  18
HETATM   18  C   UNL     1     -40.692  59.785 -50.565  1.00  0.00     0.028 C 
HETATM   19  C   UNL     1     -39.219  59.392 -50.621  1.00  0.00     0.007 C 
ENDBRANCH  17  18
BRANCH  17  20
HETATM   20  C   UNL     1     -42.060  58.930 -52.505  1.00  0.00     0.127 A 
HETATM   21  N   UNL     1     -43.253  58.730 -53.035  1.00  0.00    -0.237 NA
HETATM   22  C   UNL     1     -43.136  59.060 -54.363  1.00  0.00     0.048 A 
HETATM   23  C   UNL     1     -44.289  58.938 -55.281  1.00  0.00     0.072 C 
HETATM   24  C   UNL     1     -41.855  59.484 -54.637  1.00  0.00     0.116 A 
HETATM   25  N   UNL     1     -41.183  59.403 -53.450  1.00  0.00    -0.351 N 
HETATM   26  H   UNL     1     -40.214  59.643 -53.291  1.00  0.00     0.166 HD
ENDBRANCH  17  20
ENDBRANCH   1  17
TORSDOF 5
ENDMDL
MODEL 3
REMARK VINA RESULT:      -6.9     14.363     15.517
REMARK  5 active torsions:
REMARK  status: ('A' for Active; 'I' for Inactive)
REMARK    1  A    between atoms: C_2  and  C_3 
REMARK    2  A    between atoms: C_3  and  N_4 
REMARK    3  A    between atoms: C_3  and  C_19 
REMARK       I    between atoms: N_4  and  C_5 
REMARK    4  A    between atoms: C_5  and  C_6 
REMARK    5  A    between atoms: C_7  and  C_8 
ROOT
HETATM    1  N   UNL     1     -35.635  40.695 -53.005  1.00  0.00    -0.345 N 
HETATM    2  C   UNL     1     -35.475  41.803 -53.792  1.00  0.00     0.255 C 
HETATM    3  O   UNL     1     -35.741  42.939 -53.417  1.00  0.00    -0.268 OA
HETATM    4  H   UNL     1     -35.425  39.772 -53.371  1.00  0.00     0.163 HD
ENDROOT
BRANCH   2   5
HETATM    5  C   UNL     1     -34.907  41.503 -55.092  1.00  0.00     0.075 A 
HETATM    6  C   UNL     1     -35.399  41.715 -56.421  1.00  0.00     0.076 A 
HETATM    7  N   UNL     1     -34.517  41.246 -57.325  1.00  0.00    -0.178 NA
HETATM    8  N   UNL     1     -33.487  40.795 -56.607  1.00  0.00    -0.288 N 
HETATM    9  H   UNL     1     -32.688  40.414 -57.102  1.00  0.00     0.188 HD
HETATM   10  C   UNL     1     -33.676  40.897 -55.269  1.00  0.00     0.128 A 
BRANCH   6  11
HETATM   11  C   UNL     1     -36.744  42.222 -56.923  1.00  0.00     0.040 C 
HETATM   12  C   UNL     1     -36.930  42.244 -58.447  1.00  0.00     0.011 C 
HETATM   13  C   UNL     1     -37.045  40.843 -59.042  1.00  0.00     0.001 C 
HETATM   14  C   UNL     1     -38.198  40.067 -58.409  1.00  0.00     0.000 C 
HETATM   15  C   UNL     1     -38.108  40.055 -56.886  1.00  0.00     0.001 C 
HETATM   16  C   UNL     1     -37.951  41.465 -56.315  1.00  0.00     0.011 C 
ENDBRANCH   6  11
ENDBRANCH   2   5
BRANCH   1  17
HETATM   17  C   UNL     1     -36.138  40.754 -51.649  1.00  0.00     0.154 C 
BRANCH  17  18
HETATM   18  C   UNL     1     -37.517  40.092 -51.493  1.00  0.00     0.028 C 
HETATM   19  C   UNL     1     -38.603  40.655 -52.404  1.00  0.00     0.007 C 
ENDBRANCH  17  18
BRANCH  17  20
HETATM   20  C   UNL     1     -35.100  40.114 -50.772  1.00  0.00     0.127 A 
HETATM   21  N   UNL     1     -33.864  40.538 -50.574  1.00  0.00    -0.237 NA
HETATM   22  C   UNL     1     -33.292  39.640 -49.707  1.00  0.00     0.048 A 
HETATM   23  C   UNL     1     -31.886  39.792 -49.274  1.00  0.00     0.072 C 
HETATM   24  C   UNL     1     -34.202  38.667 -49.360  1.00  0.00     0.116 A 
HETATM   25  N   UNL     1     -35.347  38.982 -50.036  1.00  0.00    -0.351 N 
HETATM   26  H   UNL     1     -36.221  38.474 -50.007  1.00  0.00     0.166 HD
ENDBRANCH  17  20
ENDBRANCH   1  17
TORSDOF 5
ENDMDL
MODEL 4
REMARK VINA RESULT:      -6.8      2.355      4.477
REMARK  5 active torsions:
REMARK  status: ('A' for Active; 'I' for Inactive)
REMARK    1  A    between atoms: C_2  and  C_3 
REMARK    2  A    between atoms: C_3  and  N_4 
REMARK    3  A    between atoms: C_3  and  C_19 
REMARK       I    between atoms: N_4  and  C_5 
REMARK    4  A    between atoms: C_5  and  C_6 
REMARK    5  A    between atoms: C_7  and  C_8 
ROOT
HETATM    1  N   UNL     1     -41.583  54.106 -54.816  1.00  0.00    -0.345 N 
HETATM    2  C   UNL     1     -42.822  54.602 -55.125  1.00  0.00     0.255 C 
HETATM    3  O   UNL     1     -43.865  54.104 -54.720  1.00  0.00    -0.268 OA
HETATM    4  H   UNL     1     -40.748  54.539 -55.199  1.00  0.00     0.163 HD
ENDROOT
BRANCH   2   5
HETATM    5  C   UNL     1     -42.771  55.804 -55.934  1.00  0.00     0.075 A 
HETATM    6  C   UNL     1     -42.919  57.188 -55.598  1.00  0.00     0.076 A 
HETATM    7  N   UNL     1     -42.812  57.951 -56.703  1.00  0.00    -0.178 NA
HETATM    8  N   UNL     1     -42.562  57.095 -57.695  1.00  0.00    -0.288 N 
HETATM    9  H   UNL     1     -42.421  57.470 -58.628  1.00  0.00     0.188 HD
HETATM   10  C   UNL     1     -42.553  55.799 -57.301  1.00  0.00     0.128 A 
BRANCH   6  11
HETATM   11  C   UNL     1     -43.301  57.867 -54.289  1.00  0.00     0.040 C 
HETATM   12  C   UNL     1     -42.857  57.151 -53.004  1.00  0.00     0.011 C 
HETATM   13  C   UNL     1     -41.347  57.212 -52.793  1.00  0.00     0.001 C 
HETATM   14  C   UNL     1     -40.852  58.656 -52.756  1.00  0.00     0.000 C 
HETATM   15  C   UNL     1     -41.308  59.446 -53.979  1.00  0.00     0.001 C 
HETATM   16  C   UNL     1     -42.819  59.336 -54.196  1.00  0.00     0.011 C 
ENDBRANCH   6  11
ENDBRANCH   2   5
BRANCH   1  17
HETATM   17  C   UNL     1     -41.383  52.943 -53.980  1.00  0.00     0.154 C 
BRANCH  17  18
HETATM   18  C   UNL     1     -40.141  52.127 -54.376  1.00  0.00     0.028 C 
HETATM   19  C   UNL     1     -40.313  50.614 -54.283  1.00  0.00     0.007 C 
ENDBRANCH  17  18
BRANCH  17  20
HETATM   20  C   UNL     1     -41.311  53.432 -52.562  1.00  0.00     0.127 A 
HETATM   21  N   UNL     1     -40.217  53.600 -51.840  1.00  0.00    -0.237 NA
HETATM   22  C   UNL     1     -40.640  54.055 -50.615  1.00  0.00     0.048 A 
HETATM   23  C   UNL     1     -39.672  54.336 -49.532  1.00  0.00     0.072 C 
HETATM   24  C   UNL     1     -42.011  54.181 -50.602  1.00  0.00     0.116 A 
HETATM   25  N   UNL     1     -42.425  53.789 -51.844  1.00  0.00    -0.351 N 
HETATM   26  H   UNL     1     -43.379  53.762 -52.178  1.00  0.00     0.166 HD
ENDBRANCH  17  20
ENDBRANCH   1  17
TORSDOF 5
ENDMDL
MODEL 5
REMARK VINA RESULT:      -6.8     14.162     16.071
REMARK  5 active torsions:
REMARK  status: ('A' for Active; 'I' for Inactive)
REMARK    1  A    between atoms: C_2  and  C_3 
REMARK    2  A    between atoms: C_3  and  N_4 
REMARK    3  A    between atoms: C_3  and  C_19 
REMARK       I    between atoms: N_4  and  C_5 
REMARK    4  A    between atoms: C_5  and  C_6 
REMARK    5  A    between atoms: C_7  and  C_8 
ROOT
HETATM    1  N   UNL     1     -36.716  41.355 -55.044  1.00  0.00    -0.345 N 
HETATM    2  C   UNL     1     -36.626  41.722 -53.728  1.00  0.00     0.255 C 
HETATM    3  O   UNL     1     -36.104  42.765 -53.355  1.00  0.00    -0.268 OA
HETATM    4  H   UNL     1     -37.135  40.467 -55.301  1.00  0.00     0.163 HD
ENDROOT
BRANCH   2   5
HETATM    5  C   UNL     1     -37.256  40.776 -52.827  1.00  0.00     0.075 A 
HETATM    6  C   UNL     1     -36.749  39.627 -52.140  1.00  0.00     0.076 A 
HETATM    7  N   UNL     1     -37.727  39.042 -51.422  1.00  0.00    -0.178 NA
HETATM    8  N   UNL     1     -38.802  39.810 -51.607  1.00  0.00    -0.288 N 
HETATM    9  H   UNL     1     -39.660  39.557 -51.127  1.00  0.00     0.188 HD
HETATM   10  C   UNL     1     -38.588  40.844 -52.457  1.00  0.00     0.128 A 
BRANCH   6  11
HETATM   11  C   UNL     1     -35.396  38.932 -52.214  1.00  0.00     0.040 C 
HETATM   12  C   UNL     1     -34.197  39.824 -52.568  1.00  0.00     0.011 C 
HETATM   13  C   UNL     1     -33.832  40.787 -51.441  1.00  0.00     0.001 C 
HETATM   14  C   UNL     1     -33.528  40.033 -50.148  1.00  0.00     0.000 C 
HETATM   15  C   UNL     1     -34.657  39.080 -49.766  1.00  0.00     0.001 C 
HETATM   16  C   UNL     1     -35.035  38.154 -50.923  1.00  0.00     0.011 C 
ENDBRANCH   6  11
ENDBRANCH   2   5
BRANCH   1  17
HETATM   17  C   UNL     1     -36.203  42.165 -56.127  1.00  0.00     0.154 C 
BRANCH  17  18
HETATM   18  C   UNL     1     -34.667  42.200 -56.173  1.00  0.00     0.028 C 
HETATM   19  C   UNL     1     -33.998  40.831 -56.242  1.00  0.00     0.007 C 
ENDBRANCH  17  18
BRANCH  17  20
HETATM   20  C   UNL     1     -36.796  41.622 -57.396  1.00  0.00     0.127 A 
HETATM   21  N   UNL     1     -37.514  40.520 -57.523  1.00  0.00    -0.237 NA
HETATM   22  C   UNL     1     -37.829  40.427 -58.857  1.00  0.00     0.048 A 
HETATM   23  C   UNL     1     -38.622  39.290 -59.373  1.00  0.00     0.072 C 
HETATM   24  C   UNL     1     -37.308  41.499 -59.545  1.00  0.00     0.116 A 
HETATM   25  N   UNL     1     -36.659  42.253 -58.607  1.00  0.00    -0.351 N 
HETATM   26  H   UNL     1     -36.164  43.120 -58.771  1.00  0.00     0.166 HD
ENDBRANCH  17  20
ENDBRANCH   1  17
TORSDOF 5
ENDMDL
MODEL 6
REMARK VINA RESULT:      -6.8      3.438      6.281
REMARK  5 active torsions:
REMARK  status: ('A' for Active; 'I' for Inactive)
REMARK    1  A    between atoms: C_2  and  C_3 
REMARK    2  A    between atoms: C_3  and  N_4 
REMARK    3  A    between atoms: C_3  and  C_19 
REMARK       I    between atoms: N_4  and  C_5 
REMARK    4  A    between atoms: C_5  and  C_6 
REMARK    5  A    between atoms: C_7  and  C_8 
ROOT
HETATM    1  N   UNL     1     -42.942  58.735 -53.900  1.00  0.00    -0.345 N 
HETATM    2  C   UNL     1     -42.356  58.606 -55.131  1.00  0.00     0.255 C 
HETATM    3  O   UNL     1     -41.690  59.490 -55.655  1.00  0.00    -0.268 OA
HETATM    4  H   UNL     1     -43.508  57.983 -53.521  1.00  0.00     0.163 HD
ENDROOT
BRANCH   2   5
HETATM    5  C   UNL     1     -42.560  57.300 -55.727  1.00  0.00     0.075 A 
HETATM    6  C   UNL     1     -41.921  56.038 -55.504  1.00  0.00     0.076 A 
HETATM    7  N   UNL     1     -42.441  55.100 -56.319  1.00  0.00    -0.178 NA
HETATM    8  N   UNL     1     -43.402  55.726 -57.002  1.00  0.00    -0.288 N 
HETATM    9  H   UNL     1     -43.946  55.186 -57.667  1.00  0.00     0.188 HD
HETATM   10  C   UNL     1     -43.500  57.046 -56.710  1.00  0.00     0.128 A 
BRANCH   6  11
HETATM   11  C   UNL     1     -40.722  55.660 -54.645  1.00  0.00     0.040 C 
HETATM   12  C   UNL     1     -40.916  55.780 -53.126  1.00  0.00     0.011 C 
HETATM   13  C   UNL     1     -41.863  54.720 -52.571  1.00  0.00     0.001 C 
HETATM   14  C   UNL     1     -41.370  53.313 -52.901  1.00  0.00     0.000 C 
HETATM   15  C   UNL     1     -41.100  53.139 -54.393  1.00  0.00     0.001 C 
HETATM   16  C   UNL     1     -40.183  54.237 -54.936  1.00  0.00     0.011 C 
ENDBRANCH   6  11
ENDBRANCH   2   5
BRANCH   1  17
HETATM   17  C   UNL     1     -42.832  59.932 -53.094  1.00  0.00     0.154 C 
BRANCH  17  18
HETATM   18  C   UNL     1     -44.178  60.379 -52.500  1.00  0.00     0.028 C 
HETATM   19  C   UNL     1     -45.392  59.619 -53.025  1.00  0.00     0.007 C 
ENDBRANCH  17  18
BRANCH  17  20
HETATM   20  C   UNL     1     -41.809  59.649 -52.031  1.00  0.00     0.127 A 
HETATM   21  N   UNL     1     -40.497  59.631 -52.184  1.00  0.00    -0.237 NA
HETATM   22  C   UNL     1     -39.978  59.324 -50.950  1.00  0.00     0.048 A 
HETATM   23  C   UNL     1     -38.518  59.198 -50.749  1.00  0.00     0.072 C 
HETATM   24  C   UNL     1     -40.992  59.170 -50.032  1.00  0.00     0.116 A 
HETATM   25  N   UNL     1     -42.149  59.384 -50.728  1.00  0.00    -0.351 N 
HETATM   26  H   UNL     1     -43.089  59.352 -50.355  1.00  0.00     0.166 HD
ENDBRANCH  17  20
ENDBRANCH   1  17
TORSDOF 5
ENDMDL
MODEL 7
REMARK VINA RESULT:      -6.6      2.654      6.633
REMARK  5 active torsions:
REMARK  status: ('A' for Active; 'I' for Inactive)
REMARK    1  A    between atoms: C_2  and  C_3 
REMARK    2  A    between atoms: C_3  and  N_4 
REMARK    3  A    between atoms: C_3  and  C_19 
REMARK       I    between atoms: N_4  and  C_5 
REMARK    4  A    between atoms: C_5  and  C_6 
REMARK    5  A    between atoms: C_7  and  C_8 
ROOT
HETATM    1  N   UNL     1     -42.411  55.992 -54.917  1.00  0.00    -0.345 N 
HETATM    2  C   UNL     1     -42.810  54.733 -54.555  1.00  0.00     0.255 C 
HETATM    3  O   UNL     1     -43.940  54.303 -54.754  1.00  0.00    -0.268 OA
HETATM    4  H   UNL     1     -41.471  56.312 -54.706  1.00  0.00     0.163 HD
ENDROOT
BRANCH   2   5
HETATM    5  C   UNL     1     -41.747  53.945 -53.963  1.00  0.00     0.075 A 
HETATM    6  C   UNL     1     -41.509  53.522 -52.616  1.00  0.00     0.076 A 
HETATM    7  N   UNL     1     -40.365  52.815 -52.544  1.00  0.00    -0.178 NA
HETATM    8  N   UNL     1     -39.914  52.752 -53.798  1.00  0.00    -0.288 N 
HETATM    9  H   UNL     1     -39.059  52.235 -53.974  1.00  0.00     0.188 HD
HETATM   10  C   UNL     1     -40.683  53.431 -54.683  1.00  0.00     0.128 A 
BRANCH   6  11
HETATM   11  C   UNL     1     -42.232  53.855 -51.318  1.00  0.00     0.040 C 
HETATM   12  C   UNL     1     -41.374  53.838 -50.044  1.00  0.00     0.011 C 
HETATM   13  C   UNL     1     -40.385  54.999 -49.990  1.00  0.00     0.001 C 
HETATM   14  C   UNL     1     -41.104  56.342 -50.089  1.00  0.00     0.000 C 
HETATM   15  C   UNL     1     -42.024  56.408 -51.305  1.00  0.00     0.001 C 
HETATM   16  C   UNL     1     -42.978  55.213 -51.361  1.00  0.00     0.011 C 
ENDBRANCH   6  11
ENDBRANCH   2   5
BRANCH   1  17
HETATM   17  C   UNL     1     -43.286  56.941 -55.571  1.00  0.00     0.154 C 
BRANCH  17  18
HETATM   18  C   UNL     1     -43.041  58.391 -55.120  1.00  0.00     0.028 C 
HETATM   19  C   UNL     1     -43.613  58.738 -53.749  1.00  0.00     0.007 C 
ENDBRANCH  17  18
BRANCH  17  20
HETATM   20  C   UNL     1     -43.089  56.768 -57.050  1.00  0.00     0.127 A 
HETATM   21  N   UNL     1     -42.453  57.592 -57.864  1.00  0.00    -0.237 NA
HETATM   22  C   UNL     1     -42.534  57.025 -59.113  1.00  0.00     0.048 A 
HETATM   23  C   UNL     1     -41.939  57.694 -60.291  1.00  0.00     0.072 C 
HETATM   24  C   UNL     1     -43.214  55.830 -59.051  1.00  0.00     0.116 A 
HETATM   25  N   UNL     1     -43.556  55.674 -57.736  1.00  0.00    -0.351 N 
HETATM   26  H   UNL     1     -44.065  54.897 -57.337  1.00  0.00     0.166 HD
ENDBRANCH  17  20
ENDBRANCH   1  17
TORSDOF 5
ENDMDL
MODEL 8
REMARK VINA RESULT:      -6.4      2.277      3.521
REMARK  5 active torsions:
REMARK  status: ('A' for Active; 'I' for Inactive)
REMARK    1  A    between atoms: C_2  and  C_3 
REMARK    2  A    between atoms: C_3  and  N_4 
REMARK    3  A    between atoms: C_3  and  C_19 
REMARK       I    between atoms: N_4  and  C_5 
REMARK    4  A    between atoms: C_5  and  C_6 
REMARK    5  A    between atoms: C_7  and  C_8 
ROOT
HETATM    1  N   UNL     1     -41.760  54.616 -53.445  1.00  0.00    -0.345 N 
HETATM    2  C   UNL     1     -41.392  55.697 -54.201  1.00  0.00     0.255 C 
HETATM    3  O   UNL     1     -40.447  56.424 -53.920  1.00  0.00    -0.268 OA
HETATM    4  H   UNL     1     -42.568  54.060 -53.707  1.00  0.00     0.163 HD
ENDROOT
BRANCH   2   5
HETATM    5  C   UNL     1     -42.198  55.861 -55.395  1.00  0.00     0.075 A 
HETATM    6  C   UNL     1     -42.660  57.029 -56.083  1.00  0.00     0.076 A 
HETATM    7  N   UNL     1     -43.407  56.680 -57.147  1.00  0.00    -0.178 NA
HETATM    8  N   UNL     1     -43.388  55.346 -57.164  1.00  0.00    -0.288 N 
HETATM    9  H   UNL     1     -43.880  54.869 -57.913  1.00  0.00     0.188 HD
HETATM   10  C   UNL     1     -42.705  54.802 -56.127  1.00  0.00     0.128 A 
BRANCH   6  11
HETATM   11  C   UNL     1     -42.559  58.507 -55.728  1.00  0.00     0.040 C 
HETATM   12  C   UNL     1     -43.379  59.468 -56.602  1.00  0.00     0.011 C 
HETATM   13  C   UNL     1     -44.881  59.338 -56.363  1.00  0.00     0.001 C 
HETATM   14  C   UNL     1     -45.229  59.578 -54.895  1.00  0.00     0.000 C 
HETATM   15  C   UNL     1     -44.405  58.694 -53.963  1.00  0.00     0.001 C 
HETATM   16  C   UNL     1     -42.906  58.808 -54.249  1.00  0.00     0.011 C 
ENDBRANCH   6  11
ENDBRANCH   2   5
BRANCH   1  17
HETATM   17  C   UNL     1     -41.069  54.225 -52.236  1.00  0.00     0.154 C 
BRANCH  17  18
HETATM   18  C   UNL     1     -41.982  54.223 -50.999  1.00  0.00     0.028 C 
HETATM   19  C   UNL     1     -43.472  54.098 -51.304  1.00  0.00     0.007 C 
ENDBRANCH  17  18
BRANCH  17  20
HETATM   20  C   UNL     1     -40.465  52.875 -52.497  1.00  0.00     0.127 A 
HETATM   21  N   UNL     1     -40.471  52.216 -53.642  1.00  0.00    -0.237 NA
HETATM   22  C   UNL     1     -39.811  51.035 -53.401  1.00  0.00     0.048 A 
HETATM   23  C   UNL     1     -39.642  50.027 -54.469  1.00  0.00     0.072 C 
HETATM   24  C   UNL     1     -39.383  50.987 -52.093  1.00  0.00     0.116 A 
HETATM   25  N   UNL     1     -39.799  52.162 -51.531  1.00  0.00    -0.351 N 
HETATM   26  H   UNL     1     -39.648  52.457 -50.575  1.00  0.00     0.166 HD
ENDBRANCH  17  20
ENDBRANCH   1  17
TORSDOF 5
ENDMDL
MODEL 9
REMARK VINA RESULT:      -6.4     14.531     16.324
REMARK  5 active torsions:
REMARK  status: ('A' for Active; 'I' for Inactive)
REMARK    1  A    between atoms: C_2  and  C_3 
REMARK    2  A    between atoms: C_3  and  N_4 
REMARK    3  A    between atoms: C_3  and  C_19 
REMARK       I    between atoms: N_4  and  C_5 
REMARK    4  A    between atoms: C_5  and  C_6 
REMARK    5  A    between atoms: C_7  and  C_8 
ROOT
HETATM    1  N   UNL     1     -35.130  41.037 -54.214  1.00  0.00    -0.345 N 
HETATM    2  C   UNL     1     -35.492  41.799 -53.135  1.00  0.00     0.255 C 
HETATM    3  O   UNL     1     -35.476  43.024 -53.142  1.00  0.00    -0.268 OA
HETATM    4  H   UNL     1     -35.135  40.024 -54.150  1.00  0.00     0.163 HD
ENDROOT
BRANCH   2   5
HETATM    5  C   UNL     1     -35.946  41.011 -52.006  1.00  0.00     0.075 A 
HETATM    6  C   UNL     1     -35.272  40.556 -50.827  1.00  0.00     0.076 A 
HETATM    7  N   UNL     1     -36.109  39.828 -50.063  1.00  0.00    -0.178 NA
HETATM    8  N   UNL     1     -37.279  39.854 -50.704  1.00  0.00    -0.288 N 
HETATM    9  H   UNL     1     -38.068  39.377 -50.281  1.00  0.00     0.188 HD
HETATM   10  C   UNL     1     -37.234  40.522 -51.882  1.00  0.00     0.128 A 
BRANCH   6  11
HETATM   11  C   UNL     1     -33.810  40.643 -50.411  1.00  0.00     0.040 C 
HETATM   12  C   UNL     1     -33.300  39.518 -49.498  1.00  0.00     0.011 C 
HETATM   13  C   UNL     1     -33.190  38.180 -50.225  1.00  0.00     0.001 C 
HETATM   14  C   UNL     1     -32.276  38.288 -51.444  1.00  0.00     0.000 C 
HETATM   15  C   UNL     1     -32.690  39.428 -52.368  1.00  0.00     0.001 C 
HETATM   16  C   UNL     1     -32.836  40.750 -51.611  1.00  0.00     0.011 C 
ENDBRANCH   6  11
ENDBRANCH   2   5
BRANCH   1  17
HETATM   17  C   UNL     1     -34.692  41.604 -55.471  1.00  0.00     0.154 C 
BRANCH  17  18
HETATM   18  C   UNL     1     -33.382  40.983 -55.984  1.00  0.00     0.028 C 
HETATM   19  C   UNL     1     -33.436  39.475 -56.211  1.00  0.00     0.007 C 
ENDBRANCH  17  18
BRANCH  17  20
HETATM   20  C   UNL     1     -35.822  41.429 -56.446  1.00  0.00     0.127 A 
HETATM   21  N   UNL     1     -35.851  41.837 -57.702  1.00  0.00    -0.237 NA
HETATM   22  C   UNL     1     -37.078  41.463 -58.192  1.00  0.00     0.048 A 
HETATM   23  C   UNL     1     -37.470  41.779 -59.582  1.00  0.00     0.072 C 
HETATM   24  C   UNL     1     -37.797  40.802 -57.221  1.00  0.00     0.116 A 
HETATM   25  N   UNL     1     -36.987  40.781 -56.120  1.00  0.00    -0.351 N 
HETATM   26  H   UNL     1     -37.204  40.367 -55.223  1.00  0.00     0.166 HD
ENDBRANCH  17  20
ENDBRANCH   1  17
TORSDOF 5
ENDMDL
MODEL 10
REMARK VINA RESULT:      -6.3      3.199      4.949
REMARK  5 active torsions:
REMARK  status: ('A' for Active; 'I' for Inactive)
REMARK    1  A    between atoms: C_2  and  C_3 
REMARK    2  A    between atoms: C_3  and  N_4 
REMARK    3  A    between atoms: C_3  and  C_19 
REMARK       I    between atoms: N_4  and  C_5 
REMARK    4  A    between atoms: C_5  and  C_6 
REMARK    5  A    between atoms: C_7  and  C_8 
ROOT
HETATM    1  N   UNL     1     -42.526  57.180 -54.721  1.00  0.00    -0.345 N 
HETATM    2  C   UNL     1     -42.840  58.191 -55.590  1.00  0.00     0.255 C 
HETATM    3  O   UNL     1     -42.052  59.073 -55.909  1.00  0.00    -0.268 OA
HETATM    4  H   UNL     1     -43.224  56.488 -54.468  1.00  0.00     0.163 HD
ENDROOT
BRANCH   2   5
HETATM    5  C   UNL     1     -44.180  58.082 -56.133  1.00  0.00     0.075 A 
HETATM    6  C   UNL     1     -44.661  58.003 -57.480  1.00  0.00     0.076 A 
HETATM    7  N   UNL     1     -46.006  57.933 -57.492  1.00  0.00    -0.178 NA
HETATM    8  N   UNL     1     -46.366  57.923 -56.207  1.00  0.00    -0.288 N 
HETATM    9  H   UNL     1     -47.355  57.850 -55.987  1.00  0.00     0.188 HD
HETATM   10  C   UNL     1     -45.321  58.037 -55.352  1.00  0.00     0.128 A 
BRANCH   6  11
HETATM   11  C   UNL     1     -43.935  58.127 -58.812  1.00  0.00     0.040 C 
HETATM   12  C   UNL     1     -42.718  57.210 -59.005  1.00  0.00     0.011 C 
HETATM   13  C   UNL     1     -43.110  55.743 -59.161  1.00  0.00     0.001 C 
HETATM   14  C   UNL     1     -44.070  55.550 -60.332  1.00  0.00     0.000 C 
HETATM   15  C   UNL     1     -45.279  56.476 -60.236  1.00  0.00     0.001 C 
HETATM   16  C   UNL     1     -44.864  57.935 -60.038  1.00  0.00     0.011 C 
ENDBRANCH   6  11
ENDBRANCH   2   5
BRANCH   1  17
HETATM   17  C   UNL     1     -41.230  57.053 -54.092  1.00  0.00     0.154 C 
BRANCH  17  18
HETATM   18  C   UNL     1     -41.208  57.588 -52.651  1.00  0.00     0.028 C 
HETATM   19  C   UNL     1     -40.429  58.886 -52.462  1.00  0.00     0.007 C 
ENDBRANCH  17  18
BRANCH  17  20
HETATM   20  C   UNL     1     -40.852  55.601 -54.163  1.00  0.00     0.127 A 
HETATM   21  N   UNL     1     -40.794  54.750 -53.154  1.00  0.00    -0.237 NA
HETATM   22  C   UNL     1     -40.401  53.550 -53.694  1.00  0.00     0.048 A 
HETATM   23  C   UNL     1     -40.211  52.357 -52.840  1.00  0.00     0.072 C 
HETATM   24  C   UNL     1     -40.235  53.672 -55.055  1.00  0.00     0.116 A 
HETATM   25  N   UNL     1     -40.530  54.976 -55.342  1.00  0.00    -0.351 N 
HETATM   26  H   UNL     1     -40.512  55.408 -56.256  1.00  0.00     0.166 HD
ENDBRANCH  17  20
ENDBRANCH   1  17
TORSDOF 5
ENDMDL
