MODEL 1
REMARK VINA RESULT:      -8.4      0.000      0.000
REMARK  3 active torsions:
REMARK  status: ('A' for Active; 'I' for Inactive)
REMARK    1  A    between atoms: C_2  and  N_3 
REMARK    2  A    between atoms: C_2  and  C_10 
REMARK    3  A    between atoms: C_13  and  C_14 
ROOT
HETATM    1  C   UNL     1     -42.099  55.986 -55.041  1.00  0.00    -0.028 A 
HETATM    2  C   UNL     1     -42.975  55.299 -54.186  1.00  0.00     0.010 A 
HETATM    3  C   UNL     1     -42.514  54.250 -53.383  1.00  0.00     0.014 A 
HETATM    4  C   UNL     1     -41.168  53.852 -53.407  1.00  0.00    -0.006 A 
HETATM    5  C   UNL     1     -40.305  54.529 -54.283  1.00  0.00     0.014 A 
HETATM    6  C   UNL     1     -40.755  55.583 -55.084  1.00  0.00     0.010 A 
ENDROOT
BRANCH   4   7
HETATM    7  C   UNL     1     -40.668  52.753 -52.579  1.00  0.00     0.082 A 
HETATM    8  N   UNL     1     -40.694  52.922 -51.231  1.00  0.00    -0.240 NA
HETATM    9  C   UNL     1     -40.233  51.922 -50.455  1.00  0.00     0.236 A 
HETATM   10  N   UNL     1     -39.752  50.730 -50.845  1.00  0.00    -0.224 NA
HETATM   11  C   UNL     1     -39.771  50.601 -52.178  1.00  0.00     0.141 A 
HETATM   12  C   UNL     1     -40.202  51.539 -53.105  1.00  0.00     0.041 A 
HETATM   13  N   UNL     1     -39.357  49.486 -52.853  1.00  0.00    -0.350 N 
HETATM   14  C   UNL     1     -40.054  50.934 -54.388  1.00  0.00     0.034 A 
HETATM   15  C   UNL     1     -39.528  49.672 -54.201  1.00  0.00     0.091 A 
HETATM   16  H   UNL     1     -38.995  48.657 -52.401  1.00  0.00     0.166 HD
ENDBRANCH   4   7
BRANCH   1  17
HETATM   17  C   UNL     1     -42.610  57.152 -55.871  1.00  0.00     0.217 C 
HETATM   18  C   UNL     1     -44.108  57.359 -55.622  1.00  0.00     0.045 C 
BRANCH  17  19
HETATM   19  N   UNL     1     -42.324  56.958 -57.374  1.00  0.00    -0.063 N 
HETATM   20  H   UNL     1     -41.383  56.549 -57.433  1.00  0.00     0.280 HD
HETATM   21  C   UNL     1     -43.288  56.007 -58.053  1.00  0.00     0.235 C 
HETATM   22  C   UNL     1     -42.893  55.802 -59.509  1.00  0.00     0.028 C 
HETATM   23  C   UNL     1     -42.811  57.119 -60.265  1.00  0.00     0.003 C 
HETATM   24  C   UNL     1     -41.871  58.082 -59.558  1.00  0.00     0.028 C 
HETATM   25  C   UNL     1     -42.271  58.293 -58.105  1.00  0.00     0.235 C 
ENDBRANCH  17  19
ENDBRANCH   1  17
TORSDOF 3
ENDMDL
MODEL 2
REMARK VINA RESULT:      -8.0      1.738      2.803
REMARK  3 active torsions:
REMARK  status: ('A' for Active; 'I' for Inactive)
REMARK    1  A    between atoms: C_2  and  N_3 
REMARK    2  A    between atoms: C_2  and  C_10 
REMARK    3  A    between atoms: C_13  and  C_14 
ROOT
HETATM    1  C   UNL     1     -42.672  56.021 -56.158  1.00  0.00    -0.028 A 
HETATM    2  C   UNL     1     -43.219  54.744 -55.950  1.00  0.00     0.010 A 
HETATM    3  C   UNL     1     -42.609  53.840 -55.074  1.00  0.00     0.014 A 
HETATM    4  C   UNL     1     -41.437  54.177 -54.379  1.00  0.00    -0.006 A 
HETATM    5  C   UNL     1     -40.885  55.446 -54.612  1.00  0.00     0.014 A 
HETATM    6  C   UNL     1     -41.491  56.360 -55.481  1.00  0.00     0.010 A 
ENDROOT
BRANCH   4   7
HETATM    7  C   UNL     1     -40.780  53.242 -53.463  1.00  0.00     0.082 A 
HETATM    8  N   UNL     1     -40.069  52.223 -54.013  1.00  0.00    -0.240 NA
HETATM    9  C   UNL     1     -39.462  51.351 -53.183  1.00  0.00     0.236 A 
HETATM   10  N   UNL     1     -39.447  51.364 -51.841  1.00  0.00    -0.224 NA
HETATM   11  C   UNL     1     -40.140  52.400 -51.348  1.00  0.00     0.141 A 
HETATM   12  C   UNL     1     -40.823  53.370 -52.067  1.00  0.00     0.041 A 
HETATM   13  N   UNL     1     -40.279  52.673 -50.015  1.00  0.00    -0.350 N 
HETATM   14  C   UNL     1     -41.374  54.269 -51.108  1.00  0.00     0.034 A 
HETATM   15  C   UNL     1     -41.026  53.812 -49.853  1.00  0.00     0.091 A 
HETATM   16  H   UNL     1     -39.873  52.110 -49.280  1.00  0.00     0.166 HD
ENDBRANCH   4   7
BRANCH   1  17
HETATM   17  C   UNL     1     -43.376  57.005 -57.079  1.00  0.00     0.217 C 
HETATM   18  C   UNL     1     -44.215  57.988 -56.256  1.00  0.00     0.045 C 
BRANCH  17  19
HETATM   19  N   UNL     1     -44.243  56.288 -58.132  1.00  0.00    -0.063 N 
HETATM   20  H   UNL     1     -44.764  55.562 -57.625  1.00  0.00     0.280 HD
HETATM   21  C   UNL     1     -45.250  57.200 -58.804  1.00  0.00     0.235 C 
HETATM   22  C   UNL     1     -46.122  56.406 -59.768  1.00  0.00     0.028 C 
HETATM   23  C   UNL     1     -45.293  55.661 -60.802  1.00  0.00     0.003 C 
HETATM   24  C   UNL     1     -44.260  54.777 -60.121  1.00  0.00     0.028 C 
HETATM   25  C   UNL     1     -43.383  55.572 -59.165  1.00  0.00     0.235 C 
ENDBRANCH  17  19
ENDBRANCH   1  17
TORSDOF 3
ENDMDL
MODEL 3
REMARK VINA RESULT:      -7.8      2.872      4.656
REMARK  3 active torsions:
REMARK  status: ('A' for Active; 'I' for Inactive)
REMARK    1  A    between atoms: C_2  and  N_3 
REMARK    2  A    between atoms: C_2  and  C_10 
REMARK    3  A    between atoms: C_13  and  C_14 
ROOT
HETATM    1  C   UNL     1     -41.861  55.912 -53.606  1.00  0.00    -0.028 A 
HETATM    2  C   UNL     1     -42.509  54.949 -52.816  1.00  0.00     0.010 A 
HETATM    3  C   UNL     1     -42.031  53.635 -52.756  1.00  0.00     0.014 A 
HETATM    4  C   UNL     1     -40.895  53.239 -53.478  1.00  0.00    -0.006 A 
HETATM    5  C   UNL     1     -40.268  54.203 -54.283  1.00  0.00     0.014 A 
HETATM    6  C   UNL     1     -40.734  55.520 -54.345  1.00  0.00     0.010 A 
ENDROOT
BRANCH   4   7
HETATM    7  C   UNL     1     -40.383  51.868 -53.432  1.00  0.00     0.082 A 
HETATM    8  N   UNL     1     -40.126  51.256 -54.618  1.00  0.00    -0.240 NA
HETATM    9  C   UNL     1     -39.659  49.992 -54.593  1.00  0.00     0.236 A 
HETATM   10  N   UNL     1     -39.384  49.236 -53.519  1.00  0.00    -0.224 NA
HETATM   11  C   UNL     1     -39.629  49.891 -52.376  1.00  0.00     0.141 A 
HETATM   12  C   UNL     1     -40.118  51.182 -52.238  1.00  0.00     0.041 A 
HETATM   13  N   UNL     1     -39.424  49.372 -51.127  1.00  0.00    -0.350 N 
HETATM   14  C   UNL     1     -40.183  51.440 -50.838  1.00  0.00     0.034 A 
HETATM   15  C   UNL     1     -39.753  50.306 -50.179  1.00  0.00     0.091 A 
HETATM   16  H   UNL     1     -39.071  48.440 -50.957  1.00  0.00     0.166 HD
ENDBRANCH   4   7
BRANCH   1  17
HETATM   17  C   UNL     1     -42.369  57.344 -53.622  1.00  0.00     0.217 C 
HETATM   18  C   UNL     1     -41.687  58.132 -54.747  1.00  0.00     0.045 C 
BRANCH  17  19
HETATM   19  N   UNL     1     -42.169  58.041 -52.262  1.00  0.00    -0.063 N 
HETATM   20  H   UNL     1     -42.570  57.409 -51.558  1.00  0.00     0.280 HD
HETATM   21  C   UNL     1     -40.713  58.267 -51.909  1.00  0.00     0.235 C 
HETATM   22  C   UNL     1     -40.594  58.882 -50.521  1.00  0.00     0.028 C 
HETATM   23  C   UNL     1     -41.386  60.175 -50.402  1.00  0.00     0.003 C 
HETATM   24  C   UNL     1     -42.837  59.948 -50.794  1.00  0.00     0.028 C 
HETATM   25  C   UNL     1     -42.957  59.342 -52.185  1.00  0.00     0.235 C 
ENDBRANCH  17  19
ENDBRANCH   1  17
TORSDOF 3
ENDMDL
MODEL 4
REMARK VINA RESULT:      -7.8      1.695      2.563
REMARK  3 active torsions:
REMARK  status: ('A' for Active; 'I' for Inactive)
REMARK    1  A    between atoms: C_2  and  N_3 
REMARK    2  A    between atoms: C_2  and  C_10 
REMARK    3  A    between atoms: C_13  and  C_14 
ROOT
HETATM    1  C   UNL     1     -41.585  55.890 -53.824  1.00  0.00    -0.028 A 
HETATM    2  C   UNL     1     -42.135  55.037 -52.853  1.00  0.00     0.010 A 
HETATM    3  C   UNL     1     -41.708  53.708 -52.746  1.00  0.00     0.014 A 
HETATM    4  C   UNL     1     -40.723  53.188 -53.600  1.00  0.00    -0.006 A 
HETATM    5  C   UNL     1     -40.197  54.042 -54.582  1.00  0.00     0.014 A 
HETATM    6  C   UNL     1     -40.612  55.373 -54.693  1.00  0.00     0.010 A 
ENDROOT
BRANCH   4   7
HETATM    7  C   UNL     1     -40.268  51.800 -53.507  1.00  0.00     0.082 A 
HETATM    8  N   UNL     1     -40.011  51.146 -54.670  1.00  0.00    -0.240 NA
HETATM    9  C   UNL     1     -39.595  49.866 -54.601  1.00  0.00     0.236 A 
HETATM   10  N   UNL     1     -39.373  49.129 -53.502  1.00  0.00    -0.224 NA
HETATM   11  C   UNL     1     -39.616  49.824 -52.382  1.00  0.00     0.141 A 
HETATM   12  C   UNL     1     -40.055  51.136 -52.289  1.00  0.00     0.041 A 
HETATM   13  N   UNL     1     -39.457  49.331 -51.116  1.00  0.00    -0.350 N 
HETATM   14  C   UNL     1     -40.139  51.435 -50.898  1.00  0.00     0.034 A 
HETATM   15  C   UNL     1     -39.768  50.304 -50.200  1.00  0.00     0.091 A 
HETATM   16  H   UNL     1     -39.145  48.391 -50.913  1.00  0.00     0.166 HD
ENDBRANCH   4   7
BRANCH   1  17
HETATM   17  C   UNL     1     -42.030  57.341 -53.894  1.00  0.00     0.217 C 
HETATM   18  C   UNL     1     -43.311  57.541 -53.077  1.00  0.00     0.045 C 
BRANCH  17  19
HETATM   19  N   UNL     1     -42.226  57.813 -55.349  1.00  0.00    -0.063 N 
HETATM   20  H   UNL     1     -41.472  57.376 -55.893  1.00  0.00     0.280 HD
HETATM   21  C   UNL     1     -43.547  57.376 -55.950  1.00  0.00     0.235 C 
HETATM   22  C   UNL     1     -43.632  57.806 -57.409  1.00  0.00     0.028 C 
HETATM   23  C   UNL     1     -43.434  59.305 -57.572  1.00  0.00     0.003 C 
HETATM   24  C   UNL     1     -42.126  59.741 -56.933  1.00  0.00     0.028 C 
HETATM   25  C   UNL     1     -42.044  59.320 -55.473  1.00  0.00     0.235 C 
ENDBRANCH  17  19
ENDBRANCH   1  17
TORSDOF 3
ENDMDL
MODEL 5
REMARK VINA RESULT:      -7.6      1.504      7.933
REMARK  3 active torsions:
REMARK  status: ('A' for Active; 'I' for Inactive)
REMARK    1  A    between atoms: C_2  and  N_3 
REMARK    2  A    between atoms: C_2  and  C_10 
REMARK    3  A    between atoms: C_13  and  C_14 
ROOT
HETATM    1  C   UNL     1     -40.412  52.742 -54.443  1.00  0.00    -0.028 A 
HETATM    2  C   UNL     1     -39.842  53.981 -54.775  1.00  0.00     0.010 A 
HETATM    3  C   UNL     1     -40.651  55.070 -55.118  1.00  0.00     0.014 A 
HETATM    4  C   UNL     1     -42.050  54.960 -55.141  1.00  0.00    -0.006 A 
HETATM    5  C   UNL     1     -42.609  53.710 -54.831  1.00  0.00     0.014 A 
HETATM    6  C   UNL     1     -41.808  52.617 -54.481  1.00  0.00     0.010 A 
ENDROOT
BRANCH   4   7
HETATM    7  C   UNL     1     -42.913  56.086 -55.503  1.00  0.00     0.082 A 
HETATM    8  N   UNL     1     -43.371  56.873 -54.494  1.00  0.00    -0.240 NA
HETATM    9  C   UNL     1     -44.171  57.911 -54.810  1.00  0.00     0.236 A 
HETATM   10  N   UNL     1     -44.574  58.299 -56.030  1.00  0.00    -0.224 NA
HETATM   11  C   UNL     1     -44.077  57.509 -56.991  1.00  0.00     0.141 A 
HETATM   12  C   UNL     1     -43.254  56.404 -56.825  1.00  0.00     0.041 A 
HETATM   13  N   UNL     1     -44.306  57.679 -58.329  1.00  0.00    -0.350 N 
HETATM   14  C   UNL     1     -42.971  55.914 -58.134  1.00  0.00     0.034 A 
HETATM   15  C   UNL     1     -43.635  56.717 -59.039  1.00  0.00     0.091 A 
HETATM   16  H   UNL     1     -44.880  58.419 -58.711  1.00  0.00     0.166 HD
ENDBRANCH   4   7
BRANCH   1  17
HETATM   17  C   UNL     1     -39.517  51.584 -54.030  1.00  0.00     0.217 C 
HETATM   18  C   UNL     1     -39.994  50.287 -54.693  1.00  0.00     0.045 C 
BRANCH  17  19
HETATM   19  N   UNL     1     -39.450  51.427 -52.498  1.00  0.00    -0.063 N 
HETATM   20  H   UNL     1     -38.474  51.613 -52.236  1.00  0.00     0.280 HD
HETATM   21  C   UNL     1     -40.328  52.413 -51.753  1.00  0.00     0.235 C 
HETATM   22  C   UNL     1     -40.145  52.252 -50.250  1.00  0.00     0.028 C 
HETATM   23  C   UNL     1     -40.424  50.829 -49.793  1.00  0.00     0.003 C 
HETATM   24  C   UNL     1     -39.568  49.843 -50.571  1.00  0.00     0.028 C 
HETATM   25  C   UNL     1     -39.756  49.997 -52.073  1.00  0.00     0.235 C 
ENDBRANCH  17  19
ENDBRANCH   1  17
TORSDOF 3
ENDMDL
MODEL 6
REMARK VINA RESULT:      -7.6      2.170      3.350
REMARK  3 active torsions:
REMARK  status: ('A' for Active; 'I' for Inactive)
REMARK    1  A    between atoms: C_2  and  N_3 
REMARK    2  A    between atoms: C_2  and  C_10 
REMARK    3  A    between atoms: C_13  and  C_14 
ROOT
HETATM    1  C   UNL     1     -42.834  55.901 -56.919  1.00  0.00    -0.028 A 
HETATM    2  C   UNL     1     -43.204  54.633 -56.444  1.00  0.00     0.010 A 
HETATM    3  C   UNL     1     -43.048  54.304 -55.092  1.00  0.00     0.014 A 
HETATM    4  C   UNL     1     -42.519  55.225 -54.174  1.00  0.00    -0.006 A 
HETATM    5  C   UNL     1     -42.130  56.481 -54.665  1.00  0.00     0.014 A 
HETATM    6  C   UNL     1     -42.288  56.822 -56.012  1.00  0.00     0.010 A 
ENDROOT
BRANCH   4   7
HETATM    7  C   UNL     1     -42.342  54.897 -52.759  1.00  0.00     0.082 A 
HETATM    8  N   UNL     1     -43.143  55.532 -51.864  1.00  0.00    -0.240 NA
HETATM    9  C   UNL     1     -42.990  55.245 -50.556  1.00  0.00     0.236 A 
HETATM   10  N   UNL     1     -42.138  54.371 -49.999  1.00  0.00    -0.224 NA
HETATM   11  C   UNL     1     -41.389  53.752 -50.921  1.00  0.00     0.141 A 
HETATM   12  C   UNL     1     -41.422  53.945 -52.295  1.00  0.00     0.041 A 
HETATM   13  N   UNL     1     -40.449  52.798 -50.643  1.00  0.00    -0.350 N 
HETATM   14  C   UNL     1     -40.467  53.044 -52.851  1.00  0.00     0.034 A 
HETATM   15  C   UNL     1     -39.881  52.354 -51.810  1.00  0.00     0.091 A 
HETATM   16  H   UNL     1     -40.232  52.478 -49.708  1.00  0.00     0.166 HD
ENDBRANCH   4   7
BRANCH   1  17
HETATM   17  C   UNL     1     -43.054  56.255 -58.381  1.00  0.00     0.217 C 
HETATM   18  C   UNL     1     -42.368  57.586 -58.710  1.00  0.00     0.045 C 
BRANCH  17  19
HETATM   19  N   UNL     1     -44.552  56.304 -58.742  1.00  0.00    -0.063 N 
HETATM   20  H   UNL     1     -45.008  55.596 -58.154  1.00  0.00     0.280 HD
HETATM   21  C   UNL     1     -45.199  57.642 -58.447  1.00  0.00     0.235 C 
HETATM   22  C   UNL     1     -46.690  57.587 -58.751  1.00  0.00     0.028 C 
HETATM   23  C   UNL     1     -46.962  57.160 -60.185  1.00  0.00     0.003 C 
HETATM   24  C   UNL     1     -46.279  55.835 -60.485  1.00  0.00     0.028 C 
HETATM   25  C   UNL     1     -44.787  55.892 -60.190  1.00  0.00     0.235 C 
ENDBRANCH  17  19
ENDBRANCH   1  17
TORSDOF 3
ENDMDL
MODEL 7
REMARK VINA RESULT:      -7.6      1.382      2.191
REMARK  3 active torsions:
REMARK  status: ('A' for Active; 'I' for Inactive)
REMARK    1  A    between atoms: C_2  and  N_3 
REMARK    2  A    between atoms: C_2  and  C_10 
REMARK    3  A    between atoms: C_13  and  C_14 
ROOT
HETATM    1  C   UNL     1     -42.459  55.935 -55.871  1.00  0.00    -0.028 A 
HETATM    2  C   UNL     1     -42.951  54.626 -55.744  1.00  0.00     0.010 A 
HETATM    3  C   UNL     1     -42.406  53.746 -54.803  1.00  0.00     0.014 A 
HETATM    4  C   UNL     1     -41.355  54.140 -53.960  1.00  0.00    -0.006 A 
HETATM    5  C   UNL     1     -40.854  55.443 -54.111  1.00  0.00     0.014 A 
HETATM    6  C   UNL     1     -41.397  56.332 -55.045  1.00  0.00     0.010 A 
ENDROOT
BRANCH   4   7
HETATM    7  C   UNL     1     -40.768  53.232 -52.973  1.00  0.00     0.082 A 
HETATM    8  N   UNL     1     -40.714  53.658 -51.684  1.00  0.00    -0.240 NA
HETATM    9  C   UNL     1     -40.172  52.836 -50.764  1.00  0.00     0.236 A 
HETATM   10  N   UNL     1     -39.679  51.602 -50.951  1.00  0.00    -0.224 NA
HETATM   11  C   UNL     1     -39.777  51.217 -52.230  1.00  0.00     0.141 A 
HETATM   12  C   UNL     1     -40.297  51.949 -53.288  1.00  0.00     0.041 A 
HETATM   13  N   UNL     1     -39.371  50.000 -52.706  1.00  0.00    -0.350 N 
HETATM   14  C   UNL     1     -40.211  51.111 -54.438  1.00  0.00     0.034 A 
HETATM   15  C   UNL     1     -39.633  49.919 -54.050  1.00  0.00     0.091 A 
HETATM   16  H   UNL     1     -38.954  49.282 -52.130  1.00  0.00     0.166 HD
ENDBRANCH   4   7
BRANCH   1  17
HETATM   17  C   UNL     1     -43.095  56.890 -56.868  1.00  0.00     0.217 C 
HETATM   18  C   UNL     1     -43.040  56.292 -58.279  1.00  0.00     0.045 C 
BRANCH  17  19
HETATM   19  N   UNL     1     -42.433  58.282 -56.834  1.00  0.00    -0.063 N 
HETATM   20  H   UNL     1     -41.530  58.156 -56.361  1.00  0.00     0.280 HD
HETATM   21  C   UNL     1     -42.161  58.852 -58.212  1.00  0.00     0.235 C 
HETATM   22  C   UNL     1     -41.434  60.186 -58.098  1.00  0.00     0.028 C 
HETATM   23  C   UNL     1     -42.204  61.181 -57.244  1.00  0.00     0.003 C 
HETATM   24  C   UNL     1     -42.507  60.588 -55.877  1.00  0.00     0.028 C 
HETATM   25  C   UNL     1     -43.241  59.260 -55.990  1.00  0.00     0.235 C 
ENDBRANCH  17  19
ENDBRANCH   1  17
TORSDOF 3
ENDMDL
MODEL 8
REMARK VINA RESULT:      -7.4      1.825      7.559
REMARK  3 active torsions:
REMARK  status: ('A' for Active; 'I' for Inactive)
REMARK    1  A    between atoms: C_2  and  N_3 
REMARK    2  A    between atoms: C_2  and  C_10 
REMARK    3  A    between atoms: C_13  and  C_14 
ROOT
HETATM    1  C   UNL     1     -41.430  54.303 -51.362  1.00  0.00    -0.028 A 
HETATM    2  C   UNL     1     -42.647  53.840 -51.888  1.00  0.00     0.010 A 
HETATM    3  C   UNL     1     -43.352  54.598 -52.830  1.00  0.00     0.014 A 
HETATM    4  C   UNL     1     -42.869  55.838 -53.277  1.00  0.00    -0.006 A 
HETATM    5  C   UNL     1     -41.663  56.303 -52.727  1.00  0.00     0.014 A 
HETATM    6  C   UNL     1     -40.948  55.550 -51.790  1.00  0.00     0.010 A 
ENDROOT
BRANCH   4   7
HETATM    7  C   UNL     1     -43.595  56.648 -54.257  1.00  0.00     0.082 A 
HETATM    8  N   UNL     1     -44.358  57.667 -53.784  1.00  0.00    -0.240 NA
HETATM    9  C   UNL     1     -45.037  58.420 -54.673  1.00  0.00     0.236 A 
HETATM   10  N   UNL     1     -45.045  58.308 -56.011  1.00  0.00    -0.224 NA
HETATM   11  C   UNL     1     -44.259  57.307 -56.429  1.00  0.00     0.141 A 
HETATM   12  C   UNL     1     -43.510  56.444 -55.642  1.00  0.00     0.041 A 
HETATM   13  N   UNL     1     -44.061  56.975 -57.742  1.00  0.00    -0.350 N 
HETATM   14  C   UNL     1     -42.824  55.574 -56.540  1.00  0.00     0.034 A 
HETATM   15  C   UNL     1     -43.185  55.923 -57.825  1.00  0.00     0.091 A 
HETATM   16  H   UNL     1     -44.499  57.456 -58.515  1.00  0.00     0.166 HD
ENDBRANCH   4   7
BRANCH   1  17
HETATM   17  C   UNL     1     -40.657  53.445 -50.375  1.00  0.00     0.217 C 
HETATM   18  C   UNL     1     -39.675  54.311 -49.578  1.00  0.00     0.045 C 
BRANCH  17  19
HETATM   19  N   UNL     1     -39.924  52.282 -51.073  1.00  0.00    -0.063 N 
HETATM   20  H   UNL     1     -38.922  52.442 -50.913  1.00  0.00     0.280 HD
HETATM   21  C   UNL     1     -40.275  50.922 -50.505  1.00  0.00     0.235 C 
HETATM   22  C   UNL     1     -39.453  49.836 -51.187  1.00  0.00     0.028 C 
HETATM   23  C   UNL     1     -39.630  49.853 -52.697  1.00  0.00     0.003 C 
HETATM   24  C   UNL     1     -39.313  51.231 -53.255  1.00  0.00     0.028 C 
HETATM   25  C   UNL     1     -40.141  52.315 -52.580  1.00  0.00     0.235 C 
ENDBRANCH  17  19
ENDBRANCH   1  17
TORSDOF 3
ENDMDL
MODEL 9
REMARK VINA RESULT:      -7.3      1.602      3.030
REMARK  3 active torsions:
REMARK  status: ('A' for Active; 'I' for Inactive)
REMARK    1  A    between atoms: C_2  and  N_3 
REMARK    2  A    between atoms: C_2  and  C_10 
REMARK    3  A    between atoms: C_13  and  C_14 
ROOT
HETATM    1  C   UNL     1     -42.439  55.705 -56.018  1.00  0.00    -0.028 A 
HETATM    2  C   UNL     1     -43.034  54.457 -55.772  1.00  0.00     0.010 A 
HETATM    3  C   UNL     1     -42.488  53.579 -54.830  1.00  0.00     0.014 A 
HETATM    4  C   UNL     1     -41.333  53.913 -54.105  1.00  0.00    -0.006 A 
HETATM    5  C   UNL     1     -40.732  55.153 -54.375  1.00  0.00     0.014 A 
HETATM    6  C   UNL     1     -41.275  56.041 -55.310  1.00  0.00     0.010 A 
ENDROOT
BRANCH   4   7
HETATM    7  C   UNL     1     -40.743  53.005 -53.120  1.00  0.00     0.082 A 
HETATM    8  N   UNL     1     -40.102  51.903 -53.590  1.00  0.00    -0.240 NA
HETATM    9  C   UNL     1     -39.558  51.054 -52.696  1.00  0.00     0.236 A 
HETATM   10  N   UNL     1     -39.544  51.163 -51.358  1.00  0.00    -0.224 NA
HETATM   11  C   UNL     1     -40.165  52.276 -50.945  1.00  0.00     0.141 A 
HETATM   12  C   UNL     1     -40.780  53.236 -51.737  1.00  0.00     0.041 A 
HETATM   13  N   UNL     1     -40.288  52.655 -49.636  1.00  0.00    -0.350 N 
HETATM   14  C   UNL     1     -41.270  54.237 -50.848  1.00  0.00     0.034 A 
HETATM   15  C   UNL     1     -40.956  53.850 -49.561  1.00  0.00     0.091 A 
HETATM   16  H   UNL     1     -39.922  52.119 -48.860  1.00  0.00     0.166 HD
ENDBRANCH   4   7
BRANCH   1  17
HETATM   17  C   UNL     1     -43.074  56.664 -57.012  1.00  0.00     0.217 C 
HETATM   18  C   UNL     1     -43.014  56.074 -58.425  1.00  0.00     0.045 C 
BRANCH  17  19
HETATM   19  N   UNL     1     -42.416  58.057 -56.969  1.00  0.00    -0.063 N 
HETATM   20  H   UNL     1     -41.482  57.917 -56.564  1.00  0.00     0.280 HD
HETATM   21  C   UNL     1     -42.241  58.683 -58.338  1.00  0.00     0.235 C 
HETATM   22  C   UNL     1     -41.512  60.015 -58.221  1.00  0.00     0.028 C 
HETATM   23  C   UNL     1     -42.223  60.971 -57.277  1.00  0.00     0.003 C 
HETATM   24  C   UNL     1     -42.428  60.322 -55.917  1.00  0.00     0.028 C 
HETATM   25  C   UNL     1     -43.165  58.996 -56.032  1.00  0.00     0.235 C 
ENDBRANCH  17  19
ENDBRANCH   1  17
TORSDOF 3
ENDMDL
MODEL 10
REMARK VINA RESULT:      -7.3      3.678      7.999
REMARK  3 active torsions:
REMARK  status: ('A' for Active; 'I' for Inactive)
REMARK    1  A    between atoms: C_2  and  N_3 
REMARK    2  A    between atoms: C_2  and  C_10 
REMARK    3  A    between atoms: C_13  and  C_14 
ROOT
HETATM    1  C   UNL     1     -41.774  55.042 -50.777  1.00  0.00    -0.028 A 
HETATM    2  C   UNL     1     -43.160  54.860 -50.642  1.00  0.00     0.010 A 
HETATM    3  C   UNL     1     -44.046  55.912 -50.898  1.00  0.00     0.014 A 
HETATM    4  C   UNL     1     -43.582  57.176 -51.296  1.00  0.00    -0.006 A 
HETATM    5  C   UNL     1     -42.194  57.354 -51.405  1.00  0.00     0.014 A 
HETATM    6  C   UNL     1     -41.300  56.306 -51.157  1.00  0.00     0.010 A 
ENDROOT
BRANCH   4   7
HETATM    7  C   UNL     1     -44.493  58.290 -51.563  1.00  0.00     0.082 A 
HETATM    8  N   UNL     1     -45.059  58.906 -50.492  1.00  0.00    -0.240 NA
HETATM    9  C   UNL     1     -45.904  59.931 -50.721  1.00  0.00     0.236 A 
HETATM   10  N   UNL     1     -46.260  60.458 -51.903  1.00  0.00    -0.224 NA
HETATM   11  C   UNL     1     -45.657  59.834 -52.925  1.00  0.00     0.141 A 
HETATM   12  C   UNL     1     -44.777  58.764 -52.852  1.00  0.00     0.041 A 
HETATM   13  N   UNL     1     -45.819  60.170 -54.241  1.00  0.00    -0.350 N 
HETATM   14  C   UNL     1     -44.387  58.473 -54.192  1.00  0.00     0.034 A 
HETATM   15  C   UNL     1     -45.047  59.352 -55.025  1.00  0.00     0.091 A 
HETATM   16  H   UNL     1     -46.416  60.922 -54.559  1.00  0.00     0.166 HD
ENDBRANCH   4   7
BRANCH   1  17
HETATM   17  C   UNL     1     -40.831  53.874 -50.538  1.00  0.00     0.217 C 
HETATM   18  C   UNL     1     -39.665  54.313 -49.644  1.00  0.00     0.045 C 
BRANCH  17  19
HETATM   19  N   UNL     1     -40.315  53.271 -51.860  1.00  0.00    -0.063 N 
HETATM   20  H   UNL     1     -39.520  53.856 -52.146  1.00  0.00     0.280 HD
HETATM   21  C   UNL     1     -39.817  51.847 -51.717  1.00  0.00     0.235 C 
HETATM   22  C   UNL     1     -39.249  51.351 -53.040  1.00  0.00     0.028 C 
HETATM   23  C   UNL     1     -40.260  51.459 -54.170  1.00  0.00     0.003 C 
HETATM   24  C   UNL     1     -40.783  52.883 -54.281  1.00  0.00     0.028 C 
HETATM   25  C   UNL     1     -41.360  53.376 -52.962  1.00  0.00     0.235 C 
ENDBRANCH  17  19
ENDBRANCH   1  17
TORSDOF 3
ENDMDL
