MODEL 1
REMARK VINA RESULT:      -8.4      0.000      0.000
REMARK  5 active torsions:
REMARK  status: ('A' for Active; 'I' for Inactive)
REMARK    1  A    between atoms: C_7  and  C_8 
REMARK    2  A    between atoms: N_9  and  N_10 
REMARK       I    between atoms: N_10  and  C_11 
REMARK    3  A    between atoms: C_11  and  C_12 
REMARK    4  A    between atoms: C_12  and  O_13 
REMARK    5  A    between atoms: O_13  and  C_14 
ROOT
HETATM    1  C   UNL     1     -41.168  54.671 -53.444  1.00  0.00     0.153 C 
HETATM    2  N   UNL     1     -40.701  54.853 -54.639  1.00  0.00    -0.184 NA
ENDROOT
BRANCH   2   3
HETATM    3  N   UNL     1     -41.285  55.821 -55.426  1.00  0.00    -0.246 N 
HETATM    4  C   UNL     1     -42.390  55.648 -56.254  1.00  0.00     0.261 C 
HETATM    5  O   UNL     1     -43.071  54.629 -56.350  1.00  0.00    -0.269 OA
HETATM    6  H   UNL     1     -40.672  56.605 -55.646  1.00  0.00     0.192 HD
BRANCH   4   7
HETATM    7  C   UNL     1     -42.773  56.918 -57.008  1.00  0.00     0.280 C 
BRANCH   7   8
HETATM    8  O   UNL     1     -42.624  56.766 -58.416  1.00  0.00    -0.342 OA
BRANCH   8   9
HETATM    9  C   UNL     1     -43.753  56.381 -59.090  1.00  0.00     0.069 A 
HETATM   10  C   UNL     1     -44.854  57.227 -58.937  1.00  0.00     0.037 A 
HETATM   11  C   UNL     1     -46.061  56.944 -59.580  1.00  0.00     0.003 A 
HETATM   12  C   UNL     1     -46.177  55.804 -60.372  1.00  0.00     0.000 A 
HETATM   13  C   UNL     1     -45.089  54.948 -60.518  1.00  0.00     0.003 A 
HETATM   14  C   UNL     1     -43.879  55.233 -59.876  1.00  0.00     0.037 A 
ENDBRANCH   8   9
ENDBRANCH   7   8
ENDBRANCH   4   7
ENDBRANCH   2   3
BRANCH   1  15
HETATM   15  C   UNL     1     -40.629  53.632 -52.582  1.00  0.00     0.018 A 
HETATM   16  C   UNL     1     -40.322  53.715 -51.231  1.00  0.00     0.018 A 
HETATM   17  C   UNL     1     -40.439  54.840 -50.266  1.00  0.00     0.069 C 
HETATM   18  N   UNL     1     -39.847  52.488 -50.836  1.00  0.00    -0.358 N 
HETATM   19  H   UNL     1     -39.544  52.257 -49.900  1.00  0.00     0.166 HD
HETATM   20  C   UNL     1     -39.837  51.606 -51.889  1.00  0.00     0.043 A 
HETATM   21  C   UNL     1     -40.321  52.293 -53.000  1.00  0.00     0.004 A 
HETATM   22  C   UNL     1     -39.436  50.265 -51.940  1.00  0.00     0.030 A 
HETATM   23  C   UNL     1     -40.400  51.604 -54.230  1.00  0.00     0.014 A 
HETATM   24  C   UNL     1     -40.000  50.265 -54.302  1.00  0.00     0.001 A 
HETATM   25  C   UNL     1     -39.528  49.606 -53.171  1.00  0.00     0.002 A 
ENDBRANCH   1  15
TORSDOF 5
ENDMDL
MODEL 2
REMARK VINA RESULT:      -8.4      0.131      1.011
REMARK  5 active torsions:
REMARK  status: ('A' for Active; 'I' for Inactive)
REMARK    1  A    between atoms: C_7  and  C_8 
REMARK    2  A    between atoms: N_9  and  N_10 
REMARK       I    between atoms: N_10  and  C_11 
REMARK    3  A    between atoms: C_11  and  C_12 
REMARK    4  A    between atoms: C_12  and  O_13 
REMARK    5  A    between atoms: O_13  and  C_14 
ROOT
HETATM    1  C   UNL     1     -41.251  54.631 -53.521  1.00  0.00     0.153 C 
HETATM    2  N   UNL     1     -40.696  54.906 -54.660  1.00  0.00    -0.184 NA
ENDROOT
BRANCH   2   3
HETATM    3  N   UNL     1     -41.305  55.835 -55.474  1.00  0.00    -0.246 N 
HETATM    4  C   UNL     1     -42.431  55.621 -56.263  1.00  0.00     0.261 C 
HETATM    5  O   UNL     1     -43.111  54.597 -56.293  1.00  0.00    -0.269 OA
HETATM    6  H   UNL     1     -40.701  56.610 -55.747  1.00  0.00     0.192 HD
BRANCH   4   7
HETATM    7  C   UNL     1     -42.839  56.854 -57.064  1.00  0.00     0.280 C 
BRANCH   7   8
HETATM    8  O   UNL     1     -42.742  56.633 -58.466  1.00  0.00    -0.342 OA
BRANCH   8   9
HETATM    9  C   UNL     1     -43.933  56.438 -59.117  1.00  0.00     0.069 A 
HETATM   10  C   UNL     1     -43.951  55.366 -60.012  1.00  0.00     0.037 A 
HETATM   11  C   UNL     1     -45.110  55.061 -60.731  1.00  0.00     0.003 A 
HETATM   12  C   UNL     1     -46.255  55.837 -60.565  1.00  0.00     0.000 A 
HETATM   13  C   UNL     1     -46.240  56.915 -59.685  1.00  0.00     0.003 A 
HETATM   14  C   UNL     1     -45.081  57.218 -58.963  1.00  0.00     0.037 A 
ENDBRANCH   8   9
ENDBRANCH   7   8
ENDBRANCH   4   7
ENDBRANCH   2   3
BRANCH   1  15
HETATM   15  C   UNL     1     -40.687  53.623 -52.639  1.00  0.00     0.018 A 
HETATM   16  C   UNL     1     -40.370  53.745 -51.293  1.00  0.00     0.018 A 
HETATM   17  C   UNL     1     -40.500  54.891 -50.355  1.00  0.00     0.069 C 
HETATM   18  N   UNL     1     -39.869  52.538 -50.872  1.00  0.00    -0.358 N 
HETATM   19  H   UNL     1     -39.554  52.335 -49.933  1.00  0.00     0.166 HD
HETATM   20  C   UNL     1     -39.852  51.630 -51.903  1.00  0.00     0.043 A 
HETATM   21  C   UNL     1     -40.357  52.280 -53.026  1.00  0.00     0.004 A 
HETATM   22  C   UNL     1     -39.426  50.296 -51.924  1.00  0.00     0.030 A 
HETATM   23  C   UNL     1     -40.433  51.560 -54.238  1.00  0.00     0.014 A 
HETATM   24  C   UNL     1     -40.009  50.227 -54.280  1.00  0.00     0.001 A 
HETATM   25  C   UNL     1     -39.515  49.605 -53.137  1.00  0.00     0.002 A 
ENDBRANCH   1  15
TORSDOF 5
ENDMDL
MODEL 3
REMARK VINA RESULT:      -8.0      1.695      2.099
REMARK  5 active torsions:
REMARK  status: ('A' for Active; 'I' for Inactive)
REMARK    1  A    between atoms: C_7  and  C_8 
REMARK    2  A    between atoms: N_9  and  N_10 
REMARK       I    between atoms: N_10  and  C_11 
REMARK    3  A    between atoms: C_11  and  C_12 
REMARK    4  A    between atoms: C_12  and  O_13 
REMARK    5  A    between atoms: O_13  and  C_14 
ROOT
HETATM    1  C   UNL     1     -41.125  54.448 -53.614  1.00  0.00     0.153 C 
HETATM    2  N   UNL     1     -42.395  54.680 -53.731  1.00  0.00    -0.184 NA
ENDROOT
BRANCH   2   3
HETATM    3  N   UNL     1     -42.801  55.640 -54.631  1.00  0.00    -0.246 N 
HETATM    4  C   UNL     1     -43.701  56.672 -54.379  1.00  0.00     0.261 C 
HETATM    5  O   UNL     1     -44.209  56.940 -53.291  1.00  0.00    -0.269 OA
HETATM    6  H   UNL     1     -42.677  55.377 -55.607  1.00  0.00     0.192 HD
BRANCH   4   7
HETATM    7  C   UNL     1     -43.953  57.553 -55.598  1.00  0.00     0.280 C 
BRANCH   7   8
HETATM    8  O   UNL     1     -42.743  57.911 -56.256  1.00  0.00    -0.342 OA
BRANCH   8   9
HETATM    9  C   UNL     1     -42.630  57.487 -57.555  1.00  0.00     0.069 A 
HETATM   10  C   UNL     1     -42.018  58.393 -58.424  1.00  0.00     0.037 A 
HETATM   11  C   UNL     1     -41.840  58.074 -59.772  1.00  0.00     0.003 A 
HETATM   12  C   UNL     1     -42.285  56.848 -60.261  1.00  0.00     0.000 A 
HETATM   13  C   UNL     1     -42.908  55.945 -59.404  1.00  0.00     0.003 A 
HETATM   14  C   UNL     1     -43.084  56.263 -58.054  1.00  0.00     0.037 A 
ENDBRANCH   8   9
ENDBRANCH   7   8
ENDBRANCH   4   7
ENDBRANCH   2   3
BRANCH   1  15
HETATM   15  C   UNL     1     -40.628  53.483 -52.647  1.00  0.00     0.018 A 
HETATM   16  C   UNL     1     -40.410  53.669 -51.288  1.00  0.00     0.018 A 
HETATM   17  C   UNL     1     -40.606  54.858 -50.417  1.00  0.00     0.069 C 
HETATM   18  N   UNL     1     -39.943  52.483 -50.776  1.00  0.00    -0.358 N 
HETATM   19  H   UNL     1     -39.698  52.326 -49.808  1.00  0.00     0.166 HD
HETATM   20  C   UNL     1     -39.853  51.528 -51.759  1.00  0.00     0.043 A 
HETATM   21  C   UNL     1     -40.274  52.124 -52.945  1.00  0.00     0.004 A 
HETATM   22  C   UNL     1     -39.430  50.195 -51.687  1.00  0.00     0.030 A 
HETATM   23  C   UNL     1     -40.263  51.347 -54.125  1.00  0.00     0.014 A 
HETATM   24  C   UNL     1     -39.840  50.014 -54.073  1.00  0.00     0.001 A 
HETATM   25  C   UNL     1     -39.432  49.447 -52.869  1.00  0.00     0.002 A 
ENDBRANCH   1  15
TORSDOF 5
ENDMDL
MODEL 4
REMARK VINA RESULT:      -8.0      1.101      3.075
REMARK  5 active torsions:
REMARK  status: ('A' for Active; 'I' for Inactive)
REMARK    1  A    between atoms: C_7  and  C_8 
REMARK    2  A    between atoms: N_9  and  N_10 
REMARK       I    between atoms: N_10  and  C_11 
REMARK    3  A    between atoms: C_11  and  C_12 
REMARK    4  A    between atoms: C_12  and  O_13 
REMARK    5  A    between atoms: O_13  and  C_14 
ROOT
HETATM    1  C   UNL     1     -41.492  54.169 -54.107  1.00  0.00     0.153 C 
HETATM    2  N   UNL     1     -40.899  55.173 -54.673  1.00  0.00    -0.184 NA
ENDROOT
BRANCH   2   3
HETATM    3  N   UNL     1     -41.458  55.701 -55.816  1.00  0.00    -0.246 N 
HETATM    4  C   UNL     1     -42.144  56.908 -55.911  1.00  0.00     0.261 C 
HETATM    5  O   UNL     1     -42.285  57.734 -55.011  1.00  0.00    -0.269 OA
HETATM    6  H   UNL     1     -41.650  55.013 -56.543  1.00  0.00     0.192 HD
BRANCH   4   7
HETATM    7  C   UNL     1     -42.657  57.192 -57.320  1.00  0.00     0.280 C 
BRANCH   7   8
HETATM    8  O   UNL     1     -42.860  55.995 -58.063  1.00  0.00    -0.342 OA
BRANCH   8   9
HETATM    9  C   UNL     1     -43.943  56.000 -58.904  1.00  0.00     0.069 A 
HETATM   10  C   UNL     1     -44.045  54.891 -59.746  1.00  0.00     0.037 A 
HETATM   11  C   UNL     1     -45.109  54.777 -60.644  1.00  0.00     0.003 A 
HETATM   12  C   UNL     1     -46.072  55.782 -60.712  1.00  0.00     0.000 A 
HETATM   13  C   UNL     1     -45.969  56.897 -59.886  1.00  0.00     0.003 A 
HETATM   14  C   UNL     1     -44.905  57.010 -58.985  1.00  0.00     0.037 A 
ENDBRANCH   8   9
ENDBRANCH   7   8
ENDBRANCH   4   7
ENDBRANCH   2   3
BRANCH   1  15
HETATM   15  C   UNL     1     -40.925  53.535 -52.928  1.00  0.00     0.018 A 
HETATM   16  C   UNL     1     -40.234  52.334 -52.852  1.00  0.00     0.018 A 
HETATM   17  C   UNL     1     -39.861  51.349 -53.901  1.00  0.00     0.069 C 
HETATM   18  N   UNL     1     -39.883  52.138 -51.538  1.00  0.00    -0.358 N 
HETATM   19  H   UNL     1     -39.371  51.341 -51.187  1.00  0.00     0.166 HD
HETATM   20  C   UNL     1     -40.323  53.178 -50.755  1.00  0.00     0.043 A 
HETATM   21  C   UNL     1     -40.982  54.071 -51.597  1.00  0.00     0.004 A 
HETATM   22  C   UNL     1     -40.192  53.389 -49.377  1.00  0.00     0.030 A 
HETATM   23  C   UNL     1     -41.547  55.233 -51.028  1.00  0.00     0.014 A 
HETATM   24  C   UNL     1     -41.428  55.460 -49.652  1.00  0.00     0.001 A 
HETATM   25  C   UNL     1     -40.757  54.550 -48.840  1.00  0.00     0.002 A 
ENDBRANCH   1  15
TORSDOF 5
ENDMDL
MODEL 5
REMARK VINA RESULT:      -7.6      4.438      5.600
REMARK  5 active torsions:
REMARK  status: ('A' for Active; 'I' for Inactive)
REMARK    1  A    between atoms: C_7  and  C_8 
REMARK    2  A    between atoms: N_9  and  N_10 
REMARK       I    between atoms: N_10  and  C_11 
REMARK    3  A    between atoms: C_11  and  C_12 
REMARK    4  A    between atoms: C_12  and  O_13 
REMARK    5  A    between atoms: O_13  and  C_14 
ROOT
HETATM    1  C   UNL     1     -41.653  55.487 -52.403  1.00  0.00     0.153 C 
HETATM    2  N   UNL     1     -40.942  56.482 -52.830  1.00  0.00    -0.184 NA
ENDROOT
BRANCH   2   3
HETATM    3  N   UNL     1     -41.594  57.549 -53.407  1.00  0.00    -0.246 N 
HETATM    4  C   UNL     1     -41.106  58.848 -53.516  1.00  0.00     0.261 C 
HETATM    5  O   UNL     1     -39.983  59.228 -53.191  1.00  0.00    -0.269 OA
HETATM    6  H   UNL     1     -42.606  57.440 -53.462  1.00  0.00     0.192 HD
BRANCH   4   7
HETATM    7  C   UNL     1     -42.089  59.798 -54.192  1.00  0.00     0.280 C 
BRANCH   7   8
HETATM    8  O   UNL     1     -42.359  60.943 -53.391  1.00  0.00    -0.342 OA
BRANCH   8   9
HETATM    9  C   UNL     1     -43.257  60.752 -52.373  1.00  0.00     0.069 A 
HETATM   10  C   UNL     1     -42.819  61.161 -51.111  1.00  0.00     0.037 A 
HETATM   11  C   UNL     1     -43.647  61.024 -49.994  1.00  0.00     0.003 A 
HETATM   12  C   UNL     1     -44.915  60.464 -50.132  1.00  0.00     0.000 A 
HETATM   13  C   UNL     1     -45.353  60.042 -51.385  1.00  0.00     0.003 A 
HETATM   14  C   UNL     1     -44.526  60.181 -52.503  1.00  0.00     0.037 A 
ENDBRANCH   8   9
ENDBRANCH   7   8
ENDBRANCH   4   7
ENDBRANCH   2   3
BRANCH   1  15
HETATM   15  C   UNL     1     -41.021  54.309 -51.830  1.00  0.00     0.018 A 
HETATM   16  C   UNL     1     -40.700  54.072 -50.500  1.00  0.00     0.018 A 
HETATM   17  C   UNL     1     -40.890  54.903 -49.282  1.00  0.00     0.069 C 
HETATM   18  N   UNL     1     -40.124  52.827 -50.427  1.00  0.00    -0.358 N 
HETATM   19  H   UNL     1     -39.789  52.392 -49.578  1.00  0.00     0.166 HD
HETATM   20  C   UNL     1     -40.062  52.244 -51.669  1.00  0.00     0.043 A 
HETATM   21  C   UNL     1     -40.615  53.148 -52.572  1.00  0.00     0.004 A 
HETATM   22  C   UNL     1     -39.557  50.996 -52.056  1.00  0.00     0.030 A 
HETATM   23  C   UNL     1     -40.659  52.789 -53.937  1.00  0.00     0.014 A 
HETATM   24  C   UNL     1     -40.157  51.548 -54.344  1.00  0.00     0.001 A 
HETATM   25  C   UNL     1     -39.616  50.664 -53.414  1.00  0.00     0.002 A 
ENDBRANCH   1  15
TORSDOF 5
ENDMDL
MODEL 6
REMARK VINA RESULT:      -7.4      5.785      7.502
REMARK  5 active torsions:
REMARK  status: ('A' for Active; 'I' for Inactive)
REMARK    1  A    between atoms: C_7  and  C_8 
REMARK    2  A    between atoms: N_9  and  N_10 
REMARK       I    between atoms: N_10  and  C_11 
REMARK    3  A    between atoms: C_11  and  C_12 
REMARK    4  A    between atoms: C_12  and  O_13 
REMARK    5  A    between atoms: O_13  and  C_14 
ROOT
HETATM    1  C   UNL     1     -41.448  56.115 -50.900  1.00  0.00     0.153 C 
HETATM    2  N   UNL     1     -42.710  56.330 -51.101  1.00  0.00    -0.184 NA
ENDROOT
BRANCH   2   3
HETATM    3  N   UNL     1     -43.171  57.625 -51.028  1.00  0.00    -0.246 N 
HETATM    4  C   UNL     1     -44.502  58.018 -50.922  1.00  0.00     0.261 C 
HETATM    5  O   UNL     1     -45.469  57.269 -50.792  1.00  0.00    -0.269 OA
HETATM    6  H   UNL     1     -42.522  58.321 -51.394  1.00  0.00     0.192 HD
BRANCH   4   7
HETATM    7  C   UNL     1     -44.674  59.533 -50.884  1.00  0.00     0.280 C 
BRANCH   7   8
HETATM    8  O   UNL     1     -45.847  59.917 -50.174  1.00  0.00    -0.342 OA
BRANCH   8   9
HETATM    9  C   UNL     1     -45.793  61.145 -49.568  1.00  0.00     0.069 A 
HETATM   10  C   UNL     1     -45.008  61.204 -48.414  1.00  0.00     0.037 A 
HETATM   11  C   UNL     1     -44.870  62.402 -47.710  1.00  0.00     0.003 A 
HETATM   12  C   UNL     1     -45.526  63.549 -48.152  1.00  0.00     0.000 A 
HETATM   13  C   UNL     1     -46.321  63.495 -49.294  1.00  0.00     0.003 A 
HETATM   14  C   UNL     1     -46.458  62.296 -50.000  1.00  0.00     0.037 A 
ENDBRANCH   8   9
ENDBRANCH   7   8
ENDBRANCH   4   7
ENDBRANCH   2   3
BRANCH   1  15
HETATM   15  C   UNL     1     -40.908  54.765 -50.913  1.00  0.00     0.018 A 
HETATM   16  C   UNL     1     -40.547  53.978 -49.828  1.00  0.00     0.018 A 
HETATM   17  C   UNL     1     -40.594  54.242 -48.366  1.00  0.00     0.069 C 
HETATM   18  N   UNL     1     -40.094  52.777 -50.318  1.00  0.00    -0.358 N 
HETATM   19  H   UNL     1     -39.762  52.008 -49.753  1.00  0.00     0.166 HD
HETATM   20  C   UNL     1     -40.151  52.757 -51.691  1.00  0.00     0.043 A 
HETATM   21  C   UNL     1     -40.656  53.990 -52.095  1.00  0.00     0.004 A 
HETATM   22  C   UNL     1     -39.792  51.749 -52.594  1.00  0.00     0.030 A 
HETATM   23  C   UNL     1     -40.802  54.232 -53.479  1.00  0.00     0.014 A 
HETATM   24  C   UNL     1     -40.446  53.238 -54.398  1.00  0.00     0.001 A 
HETATM   25  C   UNL     1     -39.950  52.014 -53.959  1.00  0.00     0.002 A 
ENDBRANCH   1  15
TORSDOF 5
ENDMDL
MODEL 7
REMARK VINA RESULT:      -7.3      2.385      9.185
REMARK  5 active torsions:
REMARK  status: ('A' for Active; 'I' for Inactive)
REMARK    1  A    between atoms: C_7  and  C_8 
REMARK    2  A    between atoms: N_9  and  N_10 
REMARK       I    between atoms: N_10  and  C_11 
REMARK    3  A    between atoms: C_11  and  C_12 
REMARK    4  A    between atoms: C_12  and  O_13 
REMARK    5  A    between atoms: O_13  and  C_14 
ROOT
HETATM    1  C   UNL     1     -42.661  56.034 -58.344  1.00  0.00     0.153 C 
HETATM    2  N   UNL     1     -42.854  55.874 -57.073  1.00  0.00    -0.184 NA
ENDROOT
BRANCH   2   3
HETATM    3  N   UNL     1     -41.888  55.217 -56.345  1.00  0.00    -0.246 N 
HETATM    4  C   UNL     1     -41.347  55.637 -55.133  1.00  0.00     0.261 C 
HETATM    5  O   UNL     1     -41.707  56.615 -54.480  1.00  0.00    -0.269 OA
HETATM    6  H   UNL     1     -41.324  54.566 -56.890  1.00  0.00     0.192 HD
BRANCH   4   7
HETATM    7  C   UNL     1     -40.278  54.690 -54.597  1.00  0.00     0.280 C 
BRANCH   7   8
HETATM    8  O   UNL     1     -40.708  54.012 -53.422  1.00  0.00    -0.342 OA
BRANCH   8   9
HETATM    9  C   UNL     1     -40.381  52.682 -53.356  1.00  0.00     0.069 A 
HETATM   10  C   UNL     1     -39.883  52.253 -52.124  1.00  0.00     0.037 A 
HETATM   11  C   UNL     1     -39.521  50.918 -51.930  1.00  0.00     0.003 A 
HETATM   12  C   UNL     1     -39.644  50.005 -52.975  1.00  0.00     0.000 A 
HETATM   13  C   UNL     1     -40.127  50.428 -54.210  1.00  0.00     0.003 A 
HETATM   14  C   UNL     1     -40.493  51.763 -54.404  1.00  0.00     0.037 A 
ENDBRANCH   8   9
ENDBRANCH   7   8
ENDBRANCH   4   7
ENDBRANCH   2   3
BRANCH   1  15
HETATM   15  C   UNL     1     -43.667  56.673 -59.178  1.00  0.00     0.018 A 
HETATM   16  C   UNL     1     -44.654  56.068 -59.943  1.00  0.00     0.018 A 
HETATM   17  C   UNL     1     -44.994  54.636 -60.151  1.00  0.00     0.069 C 
HETATM   18  N   UNL     1     -45.375  57.065 -60.556  1.00  0.00    -0.358 N 
HETATM   19  H   UNL     1     -46.158  56.917 -61.177  1.00  0.00     0.166 HD
HETATM   20  C   UNL     1     -44.888  58.302 -60.210  1.00  0.00     0.043 A 
HETATM   21  C   UNL     1     -43.815  58.092 -59.348  1.00  0.00     0.004 A 
HETATM   22  C   UNL     1     -45.312  59.580 -60.598  1.00  0.00     0.030 A 
HETATM   23  C   UNL     1     -43.123  59.219 -58.853  1.00  0.00     0.014 A 
HETATM   24  C   UNL     1     -43.530  60.503 -59.231  1.00  0.00     0.001 A 
HETATM   25  C   UNL     1     -44.611  60.679 -60.090  1.00  0.00     0.002 A 
ENDBRANCH   1  15
TORSDOF 5
ENDMDL
MODEL 8
REMARK VINA RESULT:      -7.2     14.281     16.286
REMARK  5 active torsions:
REMARK  status: ('A' for Active; 'I' for Inactive)
REMARK    1  A    between atoms: C_7  and  C_8 
REMARK    2  A    between atoms: N_9  and  N_10 
REMARK       I    between atoms: N_10  and  C_11 
REMARK    3  A    between atoms: C_11  and  C_12 
REMARK    4  A    between atoms: C_12  and  O_13 
REMARK    5  A    between atoms: O_13  and  C_14 
ROOT
HETATM    1  C   UNL     1     -37.844  41.058 -52.314  1.00  0.00     0.153 C 
HETATM    2  N   UNL     1     -37.968  39.805 -52.005  1.00  0.00    -0.184 NA
ENDROOT
BRANCH   2   3
HETATM    3  N   UNL     1     -38.954  39.449 -51.113  1.00  0.00    -0.246 N 
HETATM    4  C   UNL     1     -39.178  38.174 -50.603  1.00  0.00     0.261 C 
HETATM    5  O   UNL     1     -38.479  37.182 -50.803  1.00  0.00    -0.269 OA
HETATM    6  H   UNL     1     -39.745  40.092 -51.085  1.00  0.00     0.192 HD
BRANCH   4   7
HETATM    7  C   UNL     1     -40.367  38.113 -49.650  1.00  0.00     0.280 C 
BRANCH   7   8
HETATM    8  O   UNL     1     -41.468  38.881 -50.124  1.00  0.00    -0.342 OA
BRANCH   8   9
HETATM    9  C   UNL     1     -42.547  38.157 -50.563  1.00  0.00     0.069 A 
HETATM   10  C   UNL     1     -42.582  37.921 -51.939  1.00  0.00     0.037 A 
HETATM   11  C   UNL     1     -43.628  37.189 -52.506  1.00  0.00     0.003 A 
HETATM   12  C   UNL     1     -44.652  36.699 -51.699  1.00  0.00     0.000 A 
HETATM   13  C   UNL     1     -44.631  36.942 -50.328  1.00  0.00     0.003 A 
HETATM   14  C   UNL     1     -43.582  37.672 -49.760  1.00  0.00     0.037 A 
ENDBRANCH   8   9
ENDBRANCH   7   8
ENDBRANCH   4   7
ENDBRANCH   2   3
BRANCH   1  15
HETATM   15  C   UNL     1     -36.790  41.505 -53.210  1.00  0.00     0.018 A 
HETATM   16  C   UNL     1     -35.508  41.926 -52.882  1.00  0.00     0.018 A 
HETATM   17  C   UNL     1     -34.824  42.050 -51.568  1.00  0.00     0.069 C 
HETATM   18  N   UNL     1     -34.863  42.246 -54.051  1.00  0.00    -0.358 N 
HETATM   19  H   UNL     1     -33.913  42.585 -54.115  1.00  0.00     0.166 HD
HETATM   20  C   UNL     1     -35.684  42.045 -55.133  1.00  0.00     0.043 A 
HETATM   21  C   UNL     1     -36.902  41.581 -54.640  1.00  0.00     0.004 A 
HETATM   22  C   UNL     1     -35.443  42.241 -56.499  1.00  0.00     0.030 A 
HETATM   23  C   UNL     1     -37.936  41.307 -55.561  1.00  0.00     0.014 A 
HETATM   24  C   UNL     1     -37.715  41.500 -56.930  1.00  0.00     0.001 A 
HETATM   25  C   UNL     1     -36.484  41.959 -57.390  1.00  0.00     0.002 A 
ENDBRANCH   1  15
TORSDOF 5
ENDMDL
MODEL 9
REMARK VINA RESULT:      -7.2     14.055     15.670
REMARK  5 active torsions:
REMARK  status: ('A' for Active; 'I' for Inactive)
REMARK    1  A    between atoms: C_7  and  C_8 
REMARK    2  A    between atoms: N_9  and  N_10 
REMARK       I    between atoms: N_10  and  C_11 
REMARK    3  A    between atoms: C_11  and  C_12 
REMARK    4  A    between atoms: C_12  and  O_13 
REMARK    5  A    between atoms: O_13  and  C_14 
ROOT
HETATM    1  C   UNL     1     -34.440  40.565 -56.060  1.00  0.00     0.153 C 
HETATM    2  N   UNL     1     -34.570  41.708 -56.656  1.00  0.00    -0.184 NA
ENDROOT
BRANCH   2   3
HETATM    3  N   UNL     1     -35.365  41.771 -57.779  1.00  0.00    -0.246 N 
HETATM    4  C   UNL     1     -36.746  41.943 -57.798  1.00  0.00     0.261 C 
HETATM    5  O   UNL     1     -37.463  42.151 -56.821  1.00  0.00    -0.269 OA
HETATM    6  H   UNL     1     -34.950  41.348 -58.609  1.00  0.00     0.192 HD
BRANCH   4   7
HETATM    7  C   UNL     1     -37.325  41.948 -59.209  1.00  0.00     0.280 C 
BRANCH   7   8
HETATM    8  O   UNL     1     -36.779  40.908 -60.013  1.00  0.00    -0.342 OA
BRANCH   8   9
HETATM    9  C   UNL     1     -37.628  39.867 -60.287  1.00  0.00     0.069 A 
HETATM   10  C   UNL     1     -37.564  39.377 -61.593  1.00  0.00     0.037 A 
HETATM   11  C   UNL     1     -38.376  38.313 -61.993  1.00  0.00     0.003 A 
HETATM   12  C   UNL     1     -39.266  37.739 -61.088  1.00  0.00     0.000 A 
HETATM   13  C   UNL     1     -39.345  38.231 -59.788  1.00  0.00     0.003 A 
HETATM   14  C   UNL     1     -38.531  39.294 -59.387  1.00  0.00     0.037 A 
ENDBRANCH   8   9
ENDBRANCH   7   8
ENDBRANCH   4   7
ENDBRANCH   2   3
BRANCH   1  15
HETATM   15  C   UNL     1     -33.575  40.421 -54.900  1.00  0.00     0.018 A 
HETATM   16  C   UNL     1     -32.246  40.023 -54.868  1.00  0.00     0.018 A 
HETATM   17  C   UNL     1     -31.313  39.632 -55.957  1.00  0.00     0.069 C 
HETATM   18  N   UNL     1     -31.838  40.040 -53.556  1.00  0.00    -0.358 N 
HETATM   19  H   UNL     1     -30.913  39.793 -53.233  1.00  0.00     0.166 HD
HETATM   20  C   UNL     1     -32.861  40.440 -52.732  1.00  0.00     0.043 A 
HETATM   21  C   UNL     1     -33.966  40.686 -53.544  1.00  0.00     0.004 A 
HETATM   22  C   UNL     1     -32.891  40.597 -51.340  1.00  0.00     0.030 A 
HETATM   23  C   UNL     1     -35.168  41.103 -52.930  1.00  0.00     0.014 A 
HETATM   24  C   UNL     1     -35.218  41.263 -51.541  1.00  0.00     0.001 A 
HETATM   25  C   UNL     1     -34.093  41.015 -50.759  1.00  0.00     0.002 A 
ENDBRANCH   1  15
TORSDOF 5
ENDMDL
MODEL 10
REMARK VINA RESULT:      -7.1      6.466      9.165
REMARK  5 active torsions:
REMARK  status: ('A' for Active; 'I' for Inactive)
REMARK    1  A    between atoms: C_7  and  C_8 
REMARK    2  A    between atoms: N_9  and  N_10 
REMARK       I    between atoms: N_10  and  C_11 
REMARK    3  A    between atoms: C_11  and  C_12 
REMARK    4  A    between atoms: C_12  and  O_13 
REMARK    5  A    between atoms: O_13  and  C_14 
ROOT
HETATM    1  C   UNL     1     -42.786  57.674 -51.803  1.00  0.00     0.153 C 
HETATM    2  N   UNL     1     -43.890  57.856 -51.148  1.00  0.00    -0.184 NA
ENDROOT
BRANCH   2   3
HETATM    3  N   UNL     1     -44.176  59.125 -50.695  1.00  0.00    -0.246 N 
HETATM    4  C   UNL     1     -45.427  59.591 -50.300  1.00  0.00     0.261 C 
HETATM    5  O   UNL     1     -46.454  58.922 -50.212  1.00  0.00    -0.269 OA
HETATM    6  H   UNL     1     -43.497  59.832 -50.974  1.00  0.00     0.192 HD
BRANCH   4   7
HETATM    7  C   UNL     1     -45.407  61.055 -49.870  1.00  0.00     0.280 C 
BRANCH   7   8
HETATM    8  O   UNL     1     -46.389  61.331 -48.877  1.00  0.00    -0.342 OA
BRANCH   8   9
HETATM    9  C   UNL     1     -45.901  61.752 -47.667  1.00  0.00     0.069 A 
HETATM   10  C   UNL     1     -45.585  60.732 -46.766  1.00  0.00     0.037 A 
HETATM   11  C   UNL     1     -45.074  61.034 -45.502  1.00  0.00     0.003 A 
HETATM   12  C   UNL     1     -44.885  62.362 -45.127  1.00  0.00     0.000 A 
HETATM   13  C   UNL     1     -45.210  63.385 -46.014  1.00  0.00     0.003 A 
HETATM   14  C   UNL     1     -45.720  63.083 -47.281  1.00  0.00     0.037 A 
ENDBRANCH   8   9
ENDBRANCH   7   8
ENDBRANCH   4   7
ENDBRANCH   2   3
BRANCH   1  15
HETATM   15  C   UNL     1     -42.402  56.350 -52.264  1.00  0.00     0.018 A 
HETATM   16  C   UNL     1     -42.782  55.707 -53.434  1.00  0.00     0.018 A 
HETATM   17  C   UNL     1     -43.663  56.142 -54.550  1.00  0.00     0.069 C 
HETATM   18  N   UNL     1     -42.170  54.477 -53.451  1.00  0.00    -0.358 N 
HETATM   19  H   UNL     1     -42.268  53.791 -54.187  1.00  0.00     0.166 HD
HETATM   20  C   UNL     1     -41.400  54.299 -52.328  1.00  0.00     0.043 A 
HETATM   21  C   UNL     1     -41.525  55.455 -51.561  1.00  0.00     0.004 A 
HETATM   22  C   UNL     1     -40.614  53.209 -51.936  1.00  0.00     0.030 A 
HETATM   23  C   UNL     1     -40.832  55.521 -50.332  1.00  0.00     0.014 A 
HETATM   24  C   UNL     1     -40.044  54.440 -49.922  1.00  0.00     0.001 A 
HETATM   25  C   UNL     1     -39.936  53.301 -50.715  1.00  0.00     0.002 A 
ENDBRANCH   1  15
TORSDOF 5
ENDMDL
