MODEL 1
REMARK VINA RESULT:      -8.5      0.000      0.000
REMARK  6 active torsions:
REMARK  status: ('A' for Active; 'I' for Inactive)
REMARK    1  A    between atoms: C_3  and  C_4 
REMARK       I    between atoms: C_4  and  N_5 
REMARK    2  A    between atoms: N_5  and  C_6 
REMARK    3  A    between atoms: C_14  and  N_15 
REMARK       I    between atoms: N_15  and  C_16 
REMARK    4  A    between atoms: C_16  and  C_17 
REMARK    5  A    between atoms: C_17  and  S_18 
REMARK    6  A    between atoms: S_18  and  C_19 
ROOT
HETATM    1  C   UNL     1     -40.215  49.897 -54.289  1.00  0.00     0.001 A 
HETATM    2  C   UNL     1     -40.641  51.175 -54.647  1.00  0.00     0.019 A 
HETATM    3  C   UNL     1     -40.432  52.267 -53.782  1.00  0.00     0.059 A 
HETATM    4  C   UNL     1     -39.835  52.064 -52.516  1.00  0.00     0.050 A 
HETATM    5  C   UNL     1     -39.403  50.773 -52.186  1.00  0.00     0.030 A 
HETATM    6  C   UNL     1     -39.586  49.702 -53.065  1.00  0.00     0.002 A 
ENDROOT
BRANCH   4   7
HETATM    7  N   UNL     1     -39.724  53.146 -51.608  1.00  0.00    -0.326 N 
HETATM    8  C   UNL     1     -40.075  53.187 -50.275  1.00  0.00     0.231 C 
HETATM    9  O   UNL     1     -40.452  52.212 -49.620  1.00  0.00    -0.272 OA
HETATM   10  H   UNL     1     -39.355  54.012 -52.010  1.00  0.00     0.169 HD
BRANCH   8  11
HETATM   11  C   UNL     1     -40.026  54.551 -49.598  1.00  0.00     0.185 C 
BRANCH  11  12
HETATM   12  S   UNL     1     -41.641  55.329 -49.317  1.00  0.00    -0.083 SA
BRANCH  12  13
HETATM   13  C   UNL     1     -41.698  56.436 -50.636  1.00  0.00     0.168 A 
HETATM   14  N   UNL     1     -40.992  56.387 -51.738  1.00  0.00    -0.223 NA
HETATM   15  C   UNL     1     -41.349  57.521 -52.427  1.00  0.00     0.086 A 
HETATM   16  C   UNL     1     -42.309  58.252 -51.730  1.00  0.00     0.063 A 
HETATM   17  C   UNL     1     -40.894  57.999 -53.664  1.00  0.00     0.034 A 
HETATM   18  N   UNL     1     -42.504  57.532 -50.579  1.00  0.00    -0.333 N 
HETATM   19  C   UNL     1     -42.862  59.443 -52.204  1.00  0.00     0.032 A 
HETATM   20  H   UNL     1     -43.114  57.769 -49.811  1.00  0.00     0.168 HD
HETATM   21  C   UNL     1     -42.396  59.900 -53.443  1.00  0.00     0.002 A 
HETATM   22  C   UNL     1     -41.427  59.194 -54.162  1.00  0.00     0.002 A 
ENDBRANCH  12  13
ENDBRANCH  11  12
ENDBRANCH   8  11
ENDBRANCH   4   7
BRANCH   3  23
HETATM   23  C   UNL     1     -40.829  53.637 -54.236  1.00  0.00     0.258 C 
HETATM   24  N   UNL     1     -42.176  53.794 -54.517  1.00  0.00    -0.323 N 
HETATM   25  H   UNL     1     -42.744  52.956 -54.524  1.00  0.00     0.169 HD
HETATM   26  O   UNL     1     -39.961  54.488 -54.387  1.00  0.00    -0.267 OA
BRANCH  24  27
HETATM   27  C   UNL     1     -42.836  54.980 -54.903  1.00  0.00     0.035 A 
HETATM   28  C   UNL     1     -42.581  55.661 -56.098  1.00  0.00     0.032 A 
HETATM   29  C   UNL     1     -43.276  56.834 -56.405  1.00  0.00     0.044 A 
HETATM   30  C   UNL     1     -44.220  57.329 -55.515  1.00  0.00     0.116 A 
HETATM   31  F   UNL     1     -44.884  58.453 -55.811  1.00  0.00    -0.206 F 
HETATM   32  C   UNL     1     -44.481  56.673 -54.320  1.00  0.00     0.044 A 
HETATM   33  C   UNL     1     -43.787  55.500 -54.012  1.00  0.00     0.032 A 
ENDBRANCH  24  27
ENDBRANCH   3  23
TORSDOF 6
ENDMDL
MODEL 2
REMARK VINA RESULT:      -7.8      1.342      1.616
REMARK  6 active torsions:
REMARK  status: ('A' for Active; 'I' for Inactive)
REMARK    1  A    between atoms: C_3  and  C_4 
REMARK       I    between atoms: C_4  and  N_5 
REMARK    2  A    between atoms: N_5  and  C_6 
REMARK    3  A    between atoms: C_14  and  N_15 
REMARK       I    between atoms: N_15  and  C_16 
REMARK    4  A    between atoms: C_16  and  C_17 
REMARK    5  A    between atoms: C_17  and  S_18 
REMARK    6  A    between atoms: S_18  and  C_19 
ROOT
HETATM    1  C   UNL     1     -39.708  50.851 -53.854  1.00  0.00     0.001 A 
HETATM    2  C   UNL     1     -40.215  52.028 -54.403  1.00  0.00     0.019 A 
HETATM    3  C   UNL     1     -40.561  53.112 -53.573  1.00  0.00     0.059 A 
HETATM    4  C   UNL     1     -40.448  52.994 -52.169  1.00  0.00     0.050 A 
HETATM    5  C   UNL     1     -39.923  51.806 -51.643  1.00  0.00     0.030 A 
HETATM    6  C   UNL     1     -39.551  50.748 -52.477  1.00  0.00     0.002 A 
ENDROOT
BRANCH   4   7
HETATM    7  N   UNL     1     -40.897  54.048 -51.335  1.00  0.00    -0.326 N 
HETATM    8  C   UNL     1     -42.193  54.448 -51.081  1.00  0.00     0.231 C 
HETATM    9  O   UNL     1     -43.199  53.854 -51.474  1.00  0.00    -0.272 OA
HETATM   10  H   UNL     1     -40.155  54.590 -50.885  1.00  0.00     0.169 HD
BRANCH   8  11
HETATM   11  C   UNL     1     -42.364  55.743 -50.296  1.00  0.00     0.185 C 
BRANCH  11  12
HETATM   12  S   UNL     1     -40.993  56.921 -50.444  1.00  0.00    -0.083 SA
BRANCH  12  13
HETATM   13  C   UNL     1     -41.574  57.932 -51.713  1.00  0.00     0.168 A 
HETATM   14  N   UNL     1     -41.051  58.081 -52.904  1.00  0.00    -0.223 NA
HETATM   15  C   UNL     1     -41.834  59.037 -53.507  1.00  0.00     0.086 A 
HETATM   16  C   UNL     1     -42.863  59.450 -52.662  1.00  0.00     0.063 A 
HETATM   17  C   UNL     1     -41.728  59.608 -54.783  1.00  0.00     0.034 A 
HETATM   18  N   UNL     1     -42.661  58.727 -51.514  1.00  0.00    -0.333 N 
HETATM   19  C   UNL     1     -43.816  60.404 -53.023  1.00  0.00     0.032 A 
HETATM   20  H   UNL     1     -43.199  58.780 -50.663  1.00  0.00     0.168 HD
HETATM   21  C   UNL     1     -43.694  60.959 -54.303  1.00  0.00     0.002 A 
HETATM   22  C   UNL     1     -42.668  60.572 -55.169  1.00  0.00     0.002 A 
ENDBRANCH  12  13
ENDBRANCH  11  12
ENDBRANCH   8  11
ENDBRANCH   4   7
BRANCH   3  23
HETATM   23  C   UNL     1     -41.024  54.388 -54.204  1.00  0.00     0.258 C 
HETATM   24  N   UNL     1     -42.358  54.407 -54.577  1.00  0.00    -0.323 N 
HETATM   25  H   UNL     1     -42.863  53.531 -54.520  1.00  0.00     0.169 HD
HETATM   26  O   UNL     1     -40.211  55.282 -54.403  1.00  0.00    -0.267 OA
BRANCH  24  27
HETATM   27  C   UNL     1     -43.074  55.487 -55.135  1.00  0.00     0.035 A 
HETATM   28  C   UNL     1     -42.891  55.954 -56.441  1.00  0.00     0.032 A 
HETATM   29  C   UNL     1     -43.639  57.035 -56.916  1.00  0.00     0.044 A 
HETATM   30  C   UNL     1     -44.564  57.651 -56.086  1.00  0.00     0.116 A 
HETATM   31  F   UNL     1     -45.279  58.687 -56.543  1.00  0.00    -0.206 F 
HETATM   32  C   UNL     1     -44.755  57.209 -54.784  1.00  0.00     0.044 A 
HETATM   33  C   UNL     1     -44.008  56.128 -54.307  1.00  0.00     0.032 A 
ENDBRANCH  24  27
ENDBRANCH   3  23
TORSDOF 6
ENDMDL
MODEL 3
REMARK VINA RESULT:      -7.7      3.195      6.356
REMARK  6 active torsions:
REMARK  status: ('A' for Active; 'I' for Inactive)
REMARK    1  A    between atoms: C_3  and  C_4 
REMARK       I    between atoms: C_4  and  N_5 
REMARK    2  A    between atoms: N_5  and  C_6 
REMARK    3  A    between atoms: C_14  and  N_15 
REMARK       I    between atoms: N_15  and  C_16 
REMARK    4  A    between atoms: C_16  and  C_17 
REMARK    5  A    between atoms: C_17  and  S_18 
REMARK    6  A    between atoms: S_18  and  C_19 
ROOT
HETATM    1  C   UNL     1     -43.137  56.295 -59.837  1.00  0.00     0.001 A 
HETATM    2  C   UNL     1     -42.873  55.715 -58.598  1.00  0.00     0.019 A 
HETATM    3  C   UNL     1     -43.115  56.429 -57.408  1.00  0.00     0.059 A 
HETATM    4  C   UNL     1     -43.577  57.763 -57.464  1.00  0.00     0.050 A 
HETATM    5  C   UNL     1     -43.849  58.319 -58.721  1.00  0.00     0.030 A 
HETATM    6  C   UNL     1     -43.637  57.590 -59.895  1.00  0.00     0.002 A 
ENDROOT
BRANCH   4   7
HETATM    7  N   UNL     1     -43.717  58.512 -56.268  1.00  0.00    -0.326 N 
HETATM    8  C   UNL     1     -42.796  59.341 -55.663  1.00  0.00     0.231 C 
HETATM    9  O   UNL     1     -41.707  59.653 -56.150  1.00  0.00    -0.272 OA
HETATM   10  H   UNL     1     -44.613  58.396 -55.788  1.00  0.00     0.169 HD
BRANCH   8  11
HETATM   11  C   UNL     1     -43.155  59.859 -54.276  1.00  0.00     0.185 C 
BRANCH  11  12
HETATM   12  S   UNL     1     -44.581  59.052 -53.497  1.00  0.00    -0.083 SA
BRANCH  12  13
HETATM   13  C   UNL     1     -43.787  57.993 -52.394  1.00  0.00     0.168 A 
HETATM   14  N   UNL     1     -42.684  58.230 -51.729  1.00  0.00    -0.223 NA
HETATM   15  C   UNL     1     -42.431  57.061 -51.052  1.00  0.00     0.086 A 
HETATM   16  C   UNL     1     -43.421  56.112 -51.300  1.00  0.00     0.063 A 
HETATM   17  C   UNL     1     -41.369  56.731 -50.199  1.00  0.00     0.034 A 
HETATM   18  N   UNL     1     -44.272  56.740 -52.174  1.00  0.00    -0.333 N 
HETATM   19  C   UNL     1     -43.424  54.837 -50.732  1.00  0.00     0.032 A 
HETATM   20  H   UNL     1     -45.098  56.350 -52.601  1.00  0.00     0.168 HD
HETATM   21  C   UNL     1     -42.356  54.530 -49.879  1.00  0.00     0.002 A 
HETATM   22  C   UNL     1     -41.343  55.457 -49.618  1.00  0.00     0.002 A 
ENDBRANCH  12  13
ENDBRANCH  11  12
ENDBRANCH   8  11
ENDBRANCH   4   7
BRANCH   3  23
HETATM   23  C   UNL     1     -42.896  55.743 -56.095  1.00  0.00     0.258 C 
HETATM   24  N   UNL     1     -41.738  54.988 -56.013  1.00  0.00    -0.323 N 
HETATM   25  H   UNL     1     -41.217  54.853 -56.871  1.00  0.00     0.169 HD
HETATM   26  O   UNL     1     -43.754  55.837 -55.226  1.00  0.00    -0.267 OA
BRANCH  24  27
HETATM   27  C   UNL     1     -41.252  54.288 -54.889  1.00  0.00     0.035 A 
HETATM   28  C   UNL     1     -40.790  54.909 -53.724  1.00  0.00     0.032 A 
HETATM   29  C   UNL     1     -40.319  54.142 -52.654  1.00  0.00     0.044 A 
HETATM   30  C   UNL     1     -40.304  52.758 -52.752  1.00  0.00     0.116 A 
HETATM   31  F   UNL     1     -39.852  52.026 -51.726  1.00  0.00    -0.206 F 
HETATM   32  C   UNL     1     -40.749  52.123 -53.903  1.00  0.00     0.044 A 
HETATM   33  C   UNL     1     -41.221  52.888 -54.973  1.00  0.00     0.032 A 
ENDBRANCH  24  27
ENDBRANCH   3  23
TORSDOF 6
ENDMDL
MODEL 4
REMARK VINA RESULT:      -7.6      3.866      6.755
REMARK  6 active torsions:
REMARK  status: ('A' for Active; 'I' for Inactive)
REMARK    1  A    between atoms: C_3  and  C_4 
REMARK       I    between atoms: C_4  and  N_5 
REMARK    2  A    between atoms: N_5  and  C_6 
REMARK    3  A    between atoms: C_14  and  N_15 
REMARK       I    between atoms: N_15  and  C_16 
REMARK    4  A    between atoms: C_16  and  C_17 
REMARK    5  A    between atoms: C_17  and  S_18 
REMARK    6  A    between atoms: S_18  and  C_19 
ROOT
HETATM    1  C   UNL     1     -44.804  54.739 -60.584  1.00  0.00     0.001 A 
HETATM    2  C   UNL     1     -43.960  54.826 -59.479  1.00  0.00     0.019 A 
HETATM    3  C   UNL     1     -43.993  55.957 -58.641  1.00  0.00     0.059 A 
HETATM    4  C   UNL     1     -44.847  57.041 -58.947  1.00  0.00     0.050 A 
HETATM    5  C   UNL     1     -45.696  56.924 -60.056  1.00  0.00     0.030 A 
HETATM    6  C   UNL     1     -45.679  55.783 -60.862  1.00  0.00     0.002 A 
ENDROOT
BRANCH   4   7
HETATM    7  N   UNL     1     -44.798  58.220 -58.162  1.00  0.00    -0.326 N 
HETATM    8  C   UNL     1     -45.714  58.670 -57.234  1.00  0.00     0.231 C 
HETATM    9  O   UNL     1     -46.699  58.032 -56.854  1.00  0.00    -0.272 OA
HETATM   10  H   UNL     1     -43.986  58.819 -58.330  1.00  0.00     0.169 HD
BRANCH   8  11
HETATM   11  C   UNL     1     -45.495  60.076 -56.686  1.00  0.00     0.185 C 
BRANCH  11  12
HETATM   12  S   UNL     1     -43.760  60.593 -56.566  1.00  0.00    -0.083 SA
BRANCH  12  13
HETATM   13  C   UNL     1     -43.256  59.705 -55.178  1.00  0.00     0.168 A 
HETATM   14  N   UNL     1     -43.961  59.454 -54.104  1.00  0.00    -0.223 NA
HETATM   15  C   UNL     1     -43.096  58.784 -53.272  1.00  0.00     0.086 A 
HETATM   16  C   UNL     1     -41.852  58.609 -53.876  1.00  0.00     0.063 A 
HETATM   17  C   UNL     1     -43.302  58.288 -51.977  1.00  0.00     0.034 A 
HETATM   18  N   UNL     1     -41.986  59.220 -55.095  1.00  0.00    -0.333 N 
HETATM   19  C   UNL     1     -40.787  57.948 -53.261  1.00  0.00     0.032 A 
HETATM   20  H   UNL     1     -41.276  59.321 -55.804  1.00  0.00     0.168 HD
HETATM   21  C   UNL     1     -41.015  57.458 -51.970  1.00  0.00     0.002 A 
HETATM   22  C   UNL     1     -42.248  57.625 -51.334  1.00  0.00     0.002 A 
ENDBRANCH  12  13
ENDBRANCH  11  12
ENDBRANCH   8  11
ENDBRANCH   4   7
BRANCH   3  23
HETATM   23  C   UNL     1     -43.130  55.978 -57.417  1.00  0.00     0.258 C 
HETATM   24  N   UNL     1     -43.234  54.859 -56.608  1.00  0.00    -0.323 N 
HETATM   25  H   UNL     1     -43.968  54.197 -56.831  1.00  0.00     0.169 HD
HETATM   26  O   UNL     1     -42.456  56.973 -57.182  1.00  0.00    -0.267 OA
BRANCH  24  27
HETATM   27  C   UNL     1     -42.503  54.582 -55.434  1.00  0.00     0.035 A 
HETATM   28  C   UNL     1     -41.135  54.290 -55.417  1.00  0.00     0.032 A 
HETATM   29  C   UNL     1     -40.484  54.023 -54.209  1.00  0.00     0.044 A 
HETATM   30  C   UNL     1     -41.201  54.042 -53.020  1.00  0.00     0.116 A 
HETATM   31  F   UNL     1     -40.575  53.785 -51.865  1.00  0.00    -0.206 F 
HETATM   32  C   UNL     1     -42.561  54.321 -53.016  1.00  0.00     0.044 A 
HETATM   33  C   UNL     1     -43.212  54.589 -54.223  1.00  0.00     0.032 A 
ENDBRANCH  24  27
ENDBRANCH   3  23
TORSDOF 6
ENDMDL
MODEL 5
REMARK VINA RESULT:      -7.4      2.669      4.529
REMARK  6 active torsions:
REMARK  status: ('A' for Active; 'I' for Inactive)
REMARK    1  A    between atoms: C_3  and  C_4 
REMARK       I    between atoms: C_4  and  N_5 
REMARK    2  A    between atoms: N_5  and  C_6 
REMARK    3  A    between atoms: C_14  and  N_15 
REMARK       I    between atoms: N_15  and  C_16 
REMARK    4  A    between atoms: C_16  and  C_17 
REMARK    5  A    between atoms: C_17  and  S_18 
REMARK    6  A    between atoms: S_18  and  C_19 
ROOT
HETATM    1  C   UNL     1     -39.336  51.690 -52.114  1.00  0.00     0.001 A 
HETATM    2  C   UNL     1     -39.898  52.927 -51.803  1.00  0.00     0.019 A 
HETATM    3  C   UNL     1     -40.862  53.507 -52.650  1.00  0.00     0.059 A 
HETATM    4  C   UNL     1     -41.228  52.862 -53.854  1.00  0.00     0.050 A 
HETATM    5  C   UNL     1     -40.659  51.613 -54.137  1.00  0.00     0.030 A 
HETATM    6  C   UNL     1     -39.728  51.031 -53.273  1.00  0.00     0.002 A 
ENDROOT
BRANCH   4   7
HETATM    7  N   UNL     1     -42.119  53.501 -54.753  1.00  0.00    -0.326 N 
HETATM    8  C   UNL     1     -41.940  54.682 -55.442  1.00  0.00     0.231 C 
HETATM    9  O   UNL     1     -40.891  55.329 -55.464  1.00  0.00    -0.272 OA
HETATM   10  H   UNL     1     -43.017  53.027 -54.881  1.00  0.00     0.169 HD
BRANCH   8  11
HETATM   11  C   UNL     1     -43.154  55.226 -56.186  1.00  0.00     0.185 C 
BRANCH  11  12
HETATM   12  S   UNL     1     -43.092  56.999 -56.566  1.00  0.00    -0.083 SA
BRANCH  12  13
HETATM   13  C   UNL     1     -43.825  57.656 -55.152  1.00  0.00     0.168 A 
HETATM   14  N   UNL     1     -44.270  58.877 -54.989  1.00  0.00    -0.223 NA
HETATM   15  C   UNL     1     -44.689  58.920 -53.681  1.00  0.00     0.086 A 
HETATM   16  C   UNL     1     -44.511  57.687 -53.056  1.00  0.00     0.063 A 
HETATM   17  C   UNL     1     -45.236  59.983 -52.950  1.00  0.00     0.034 A 
HETATM   18  N   UNL     1     -43.945  56.900 -54.026  1.00  0.00    -0.333 N 
HETATM   19  C   UNL     1     -44.863  57.442 -51.727  1.00  0.00     0.032 A 
HETATM   20  H   UNL     1     -43.647  55.941 -53.931  1.00  0.00     0.168 HD
HETATM   21  C   UNL     1     -45.412  58.516 -51.016  1.00  0.00     0.002 A 
HETATM   22  C   UNL     1     -45.594  59.767 -51.613  1.00  0.00     0.002 A 
ENDBRANCH  12  13
ENDBRANCH  11  12
ENDBRANCH   8  11
ENDBRANCH   4   7
BRANCH   3  23
HETATM   23  C   UNL     1     -41.503  54.797 -52.241  1.00  0.00     0.258 C 
HETATM   24  N   UNL     1     -40.663  55.898 -52.249  1.00  0.00    -0.323 N 
HETATM   25  H   UNL     1     -39.676  55.721 -52.395  1.00  0.00     0.169 HD
HETATM   26  O   UNL     1     -42.672  54.790 -51.876  1.00  0.00    -0.267 OA
BRANCH  24  27
HETATM   27  C   UNL     1     -41.006  57.237 -51.970  1.00  0.00     0.035 A 
HETATM   28  C   UNL     1     -40.993  58.261 -52.922  1.00  0.00     0.032 A 
HETATM   29  C   UNL     1     -41.344  59.566 -52.562  1.00  0.00     0.044 A 
HETATM   30  C   UNL     1     -41.701  59.847 -51.251  1.00  0.00     0.116 A 
HETATM   31  F   UNL     1     -42.036  61.097 -50.908  1.00  0.00    -0.206 F 
HETATM   32  C   UNL     1     -41.711  58.846 -50.288  1.00  0.00     0.044 A 
HETATM   33  C   UNL     1     -41.361  57.542 -50.647  1.00  0.00     0.032 A 
ENDBRANCH  24  27
ENDBRANCH   3  23
TORSDOF 6
ENDMDL
MODEL 6
REMARK VINA RESULT:      -7.2      3.793      7.576
REMARK  6 active torsions:
REMARK  status: ('A' for Active; 'I' for Inactive)
REMARK    1  A    between atoms: C_3  and  C_4 
REMARK       I    between atoms: C_4  and  N_5 
REMARK    2  A    between atoms: N_5  and  C_6 
REMARK    3  A    between atoms: C_14  and  N_15 
REMARK       I    between atoms: N_15  and  C_16 
REMARK    4  A    between atoms: C_16  and  C_17 
REMARK    5  A    between atoms: C_17  and  S_18 
REMARK    6  A    between atoms: S_18  and  C_19 
ROOT
HETATM    1  C   UNL     1     -40.905  59.506 -49.958  1.00  0.00     0.001 A 
HETATM    2  C   UNL     1     -41.060  58.199 -50.414  1.00  0.00     0.019 A 
HETATM    3  C   UNL     1     -42.024  57.894 -51.394  1.00  0.00     0.059 A 
HETATM    4  C   UNL     1     -42.882  58.905 -51.884  1.00  0.00     0.050 A 
HETATM    5  C   UNL     1     -42.697  60.214 -51.420  1.00  0.00     0.030 A 
HETATM    6  C   UNL     1     -41.714  60.513 -50.471  1.00  0.00     0.002 A 
ENDROOT
BRANCH   4   7
HETATM    7  N   UNL     1     -43.920  58.571 -52.791  1.00  0.00    -0.326 N 
HETATM    8  C   UNL     1     -43.866  58.501 -54.167  1.00  0.00     0.231 C 
HETATM    9  O   UNL     1     -42.836  58.616 -54.835  1.00  0.00    -0.272 OA
HETATM   10  H   UNL     1     -44.828  58.383 -52.358  1.00  0.00     0.169 HD
BRANCH   8  11
HETATM   11  C   UNL     1     -45.193  58.310 -54.891  1.00  0.00     0.185 C 
BRANCH  11  12
HETATM   12  S   UNL     1     -45.434  59.366 -56.347  1.00  0.00    -0.083 SA
BRANCH  12  13
HETATM   13  C   UNL     1     -45.303  58.202 -57.612  1.00  0.00     0.168 A 
HETATM   14  N   UNL     1     -46.158  57.993 -58.581  1.00  0.00    -0.223 NA
HETATM   15  C   UNL     1     -45.639  56.926 -59.274  1.00  0.00     0.086 A 
HETATM   16  C   UNL     1     -44.432  56.505 -58.719  1.00  0.00     0.063 A 
HETATM   17  C   UNL     1     -46.143  56.256 -60.398  1.00  0.00     0.034 A 
HETATM   18  N   UNL     1     -44.250  57.340 -57.646  1.00  0.00    -0.333 N 
HETATM   19  C   UNL     1     -43.679  55.447 -59.230  1.00  0.00     0.032 A 
HETATM   20  H   UNL     1     -43.491  57.318 -56.983  1.00  0.00     0.168 HD
HETATM   21  C   UNL     1     -44.198  54.794 -60.355  1.00  0.00     0.002 A 
HETATM   22  C   UNL     1     -45.410  55.187 -60.929  1.00  0.00     0.002 A 
ENDBRANCH  12  13
ENDBRANCH  11  12
ENDBRANCH   8  11
ENDBRANCH   4   7
BRANCH   3  23
HETATM   23  C   UNL     1     -42.106  56.494 -51.919  1.00  0.00     0.258 C 
HETATM   24  N   UNL     1     -40.957  56.034 -52.543  1.00  0.00    -0.323 N 
HETATM   25  H   UNL     1     -40.223  56.711 -52.709  1.00  0.00     0.169 HD
HETATM   26  O   UNL     1     -43.164  55.884 -51.827  1.00  0.00    -0.267 OA
BRANCH  24  27
HETATM   27  C   UNL     1     -40.730  54.747 -53.073  1.00  0.00     0.035 A 
HETATM   28  C   UNL     1     -40.609  53.591 -52.294  1.00  0.00     0.032 A 
HETATM   29  C   UNL     1     -40.380  52.352 -52.898  1.00  0.00     0.044 A 
HETATM   30  C   UNL     1     -40.265  52.269 -54.279  1.00  0.00     0.116 A 
HETATM   31  F   UNL     1     -40.045  51.081 -54.856  1.00  0.00    -0.206 F 
HETATM   32  C   UNL     1     -40.373  53.405 -55.070  1.00  0.00     0.044 A 
HETATM   33  C   UNL     1     -40.602  54.644 -54.466  1.00  0.00     0.032 A 
ENDBRANCH  24  27
ENDBRANCH   3  23
TORSDOF 6
ENDMDL
MODEL 7
REMARK VINA RESULT:      -7.2      1.907      2.716
REMARK  6 active torsions:
REMARK  status: ('A' for Active; 'I' for Inactive)
REMARK    1  A    between atoms: C_3  and  C_4 
REMARK       I    between atoms: C_4  and  N_5 
REMARK    2  A    between atoms: N_5  and  C_6 
REMARK    3  A    between atoms: C_14  and  N_15 
REMARK       I    between atoms: N_15  and  C_16 
REMARK    4  A    between atoms: C_16  and  C_17 
REMARK    5  A    between atoms: C_17  and  S_18 
REMARK    6  A    between atoms: S_18  and  C_19 
ROOT
HETATM    1  C   UNL     1     -39.745  50.569 -53.668  1.00  0.00     0.001 A 
HETATM    2  C   UNL     1     -40.171  51.707 -54.350  1.00  0.00     0.019 A 
HETATM    3  C   UNL     1     -40.420  52.906 -53.655  1.00  0.00     0.059 A 
HETATM    4  C   UNL     1     -40.291  52.949 -52.248  1.00  0.00     0.050 A 
HETATM    5  C   UNL     1     -39.848  51.796 -51.587  1.00  0.00     0.030 A 
HETATM    6  C   UNL     1     -39.572  50.620 -52.290  1.00  0.00     0.002 A 
ENDROOT
BRANCH   4   7
HETATM    7  N   UNL     1     -40.645  54.127 -51.544  1.00  0.00    -0.326 N 
HETATM    8  C   UNL     1     -41.903  54.633 -51.296  1.00  0.00     0.231 C 
HETATM    9  O   UNL     1     -42.958  54.053 -51.568  1.00  0.00    -0.272 OA
HETATM   10  H   UNL     1     -39.854  54.678 -51.198  1.00  0.00     0.169 HD
BRANCH   8  11
HETATM   11  C   UNL     1     -41.969  56.026 -50.682  1.00  0.00     0.185 C 
BRANCH  11  12
HETATM   12  S   UNL     1     -41.244  57.347 -51.692  1.00  0.00    -0.083 SA
BRANCH  12  13
HETATM   13  C   UNL     1     -42.309  58.652 -51.327  1.00  0.00     0.168 A 
HETATM   14  N   UNL     1     -41.994  59.917 -51.211  1.00  0.00    -0.223 NA
HETATM   15  C   UNL     1     -43.167  60.533 -50.846  1.00  0.00     0.086 A 
HETATM   16  C   UNL     1     -44.212  59.614 -50.766  1.00  0.00     0.063 A 
HETATM   17  C   UNL     1     -43.421  61.882 -50.563  1.00  0.00     0.034 A 
HETATM   18  N   UNL     1     -43.625  58.414 -51.071  1.00  0.00    -0.333 N 
HETATM   19  C   UNL     1     -45.520  59.967 -50.427  1.00  0.00     0.032 A 
HETATM   20  H   UNL     1     -44.068  57.508 -51.088  1.00  0.00     0.168 HD
HETATM   21  C   UNL     1     -45.753  61.320 -50.153  1.00  0.00     0.002 A 
HETATM   22  C   UNL     1     -44.723  62.263 -50.216  1.00  0.00     0.002 A 
ENDBRANCH  12  13
ENDBRANCH  11  12
ENDBRANCH   8  11
ENDBRANCH   4   7
BRANCH   3  23
HETATM   23  C   UNL     1     -40.796  54.129 -54.432  1.00  0.00     0.258 C 
HETATM   24  N   UNL     1     -42.143  54.240 -54.735  1.00  0.00    -0.323 N 
HETATM   25  H   UNL     1     -42.727  53.438 -54.531  1.00  0.00     0.169 HD
HETATM   26  O   UNL     1     -39.914  54.898 -54.795  1.00  0.00    -0.267 OA
BRANCH  24  27
HETATM   27  C   UNL     1     -42.785  55.306 -55.399  1.00  0.00     0.035 A 
HETATM   28  C   UNL     1     -43.466  56.337 -54.743  1.00  0.00     0.032 A 
HETATM   29  C   UNL     1     -44.080  57.357 -55.476  1.00  0.00     0.044 A 
HETATM   30  C   UNL     1     -44.018  57.342 -56.863  1.00  0.00     0.116 A 
HETATM   31  F   UNL     1     -44.608  58.320 -57.563  1.00  0.00    -0.206 F 
HETATM   32  C   UNL     1     -43.355  56.323 -57.533  1.00  0.00     0.044 A 
HETATM   33  C   UNL     1     -42.741  55.304 -56.801  1.00  0.00     0.032 A 
ENDBRANCH  24  27
ENDBRANCH   3  23
TORSDOF 6
ENDMDL
MODEL 8
REMARK VINA RESULT:      -7.2      3.838      6.711
REMARK  6 active torsions:
REMARK  status: ('A' for Active; 'I' for Inactive)
REMARK    1  A    between atoms: C_3  and  C_4 
REMARK       I    between atoms: C_4  and  N_5 
REMARK    2  A    between atoms: N_5  and  C_6 
REMARK    3  A    between atoms: C_14  and  N_15 
REMARK       I    between atoms: N_15  and  C_16 
REMARK    4  A    between atoms: C_16  and  C_17 
REMARK    5  A    between atoms: C_17  and  S_18 
REMARK    6  A    between atoms: S_18  and  C_19 
ROOT
HETATM    1  C   UNL     1     -44.743  54.680 -60.264  1.00  0.00     0.001 A 
HETATM    2  C   UNL     1     -43.974  54.713 -59.102  1.00  0.00     0.019 A 
HETATM    3  C   UNL     1     -43.666  55.940 -58.483  1.00  0.00     0.059 A 
HETATM    4  C   UNL     1     -44.091  57.155 -59.068  1.00  0.00     0.050 A 
HETATM    5  C   UNL     1     -44.875  57.095 -60.228  1.00  0.00     0.030 A 
HETATM    6  C   UNL     1     -45.203  55.870 -60.816  1.00  0.00     0.002 A 
ENDROOT
BRANCH   4   7
HETATM    7  N   UNL     1     -43.688  58.389 -58.500  1.00  0.00    -0.326 N 
HETATM    8  C   UNL     1     -42.692  59.244 -58.923  1.00  0.00     0.231 C 
HETATM    9  O   UNL     1     -42.048  59.108 -59.966  1.00  0.00    -0.272 OA
HETATM   10  H   UNL     1     -44.194  58.661 -57.653  1.00  0.00     0.169 HD
BRANCH   8  11
HETATM   11  C   UNL     1     -42.351  60.405 -57.996  1.00  0.00     0.185 C 
BRANCH  11  12
HETATM   12  S   UNL     1     -43.604  60.779 -56.739  1.00  0.00    -0.083 SA
BRANCH  12  13
HETATM   13  C   UNL     1     -42.938  59.969 -55.372  1.00  0.00     0.168 A 
HETATM   14  N   UNL     1     -41.680  59.671 -55.168  1.00  0.00    -0.223 NA
HETATM   15  C   UNL     1     -41.678  58.974 -53.983  1.00  0.00     0.086 A 
HETATM   16  C   UNL     1     -42.965  58.876 -53.456  1.00  0.00     0.063 A 
HETATM   17  C   UNL     1     -40.610  58.391 -53.288  1.00  0.00     0.034 A 
HETATM   18  N   UNL     1     -43.752  59.517 -54.377  1.00  0.00    -0.333 N 
HETATM   19  C   UNL     1     -43.254  58.231 -52.252  1.00  0.00     0.032 A 
HETATM   20  H   UNL     1     -44.754  59.624 -54.349  1.00  0.00     0.168 HD
HETATM   21  C   UNL     1     -42.172  57.658 -51.572  1.00  0.00     0.002 A 
HETATM   22  C   UNL     1     -40.872  57.732 -52.080  1.00  0.00     0.002 A 
ENDBRANCH  12  13
ENDBRANCH  11  12
ENDBRANCH   8  11
ENDBRANCH   4   7
BRANCH   3  23
HETATM   23  C   UNL     1     -42.908  55.930 -57.192  1.00  0.00     0.258 C 
HETATM   24  N   UNL     1     -43.238  54.900 -56.327  1.00  0.00    -0.323 N 
HETATM   25  H   UNL     1     -44.041  54.334 -56.572  1.00  0.00     0.169 HD
HETATM   26  O   UNL     1     -42.117  56.836 -56.961  1.00  0.00    -0.267 OA
BRANCH  24  27
HETATM   27  C   UNL     1     -42.649  54.612 -55.078  1.00  0.00     0.035 A 
HETATM   28  C   UNL     1     -41.299  54.285 -54.909  1.00  0.00     0.032 A 
HETATM   29  C   UNL     1     -40.793  54.008 -53.635  1.00  0.00     0.044 A 
HETATM   30  C   UNL     1     -41.637  54.052 -52.534  1.00  0.00     0.116 A 
HETATM   31  F   UNL     1     -41.150  53.786 -51.315  1.00  0.00    -0.206 F 
HETATM   32  C   UNL     1     -42.981  54.365 -52.682  1.00  0.00     0.044 A 
HETATM   33  C   UNL     1     -43.487  54.643 -53.954  1.00  0.00     0.032 A 
ENDBRANCH  24  27
ENDBRANCH   3  23
TORSDOF 6
ENDMDL
MODEL 9
REMARK VINA RESULT:      -7.1      1.905      2.647
REMARK  6 active torsions:
REMARK  status: ('A' for Active; 'I' for Inactive)
REMARK    1  A    between atoms: C_3  and  C_4 
REMARK       I    between atoms: C_4  and  N_5 
REMARK    2  A    between atoms: N_5  and  C_6 
REMARK    3  A    between atoms: C_14  and  N_15 
REMARK       I    between atoms: N_15  and  C_16 
REMARK    4  A    between atoms: C_16  and  C_17 
REMARK    5  A    between atoms: C_17  and  S_18 
REMARK    6  A    between atoms: S_18  and  C_19 
ROOT
HETATM    1  C   UNL     1     -40.273  51.331 -54.016  1.00  0.00     0.001 A 
HETATM    2  C   UNL     1     -41.172  52.251 -54.553  1.00  0.00     0.019 A 
HETATM    3  C   UNL     1     -41.389  53.491 -53.920  1.00  0.00     0.059 A 
HETATM    4  C   UNL     1     -40.735  53.790 -52.703  1.00  0.00     0.050 A 
HETATM    5  C   UNL     1     -39.826  52.855 -52.192  1.00  0.00     0.030 A 
HETATM    6  C   UNL     1     -39.592  51.641 -52.845  1.00  0.00     0.002 A 
ENDROOT
BRANCH   4   7
HETATM    7  N   UNL     1     -41.038  54.993 -52.017  1.00  0.00    -0.326 N 
HETATM    8  C   UNL     1     -41.534  55.150 -50.740  1.00  0.00     0.231 C 
HETATM    9  O   UNL     1     -41.693  54.232 -49.932  1.00  0.00    -0.272 OA
HETATM   10  H   UNL     1     -40.886  55.848 -52.558  1.00  0.00     0.169 HD
BRANCH   8  11
HETATM   11  C   UNL     1     -41.950  56.560 -50.340  1.00  0.00     0.185 C 
BRANCH  11  12
HETATM   12  S   UNL     1     -40.812  57.875 -50.858  1.00  0.00    -0.083 SA
BRANCH  12  13
HETATM   13  C   UNL     1     -41.784  58.702 -52.016  1.00  0.00     0.168 A 
HETATM   14  N   UNL     1     -41.434  59.728 -52.750  1.00  0.00    -0.223 NA
HETATM   15  C   UNL     1     -42.571  60.058 -53.448  1.00  0.00     0.086 A 
HETATM   16  C   UNL     1     -43.618  59.191 -53.140  1.00  0.00     0.063 A 
HETATM   17  C   UNL     1     -42.789  61.091 -54.370  1.00  0.00     0.034 A 
HETATM   18  N   UNL     1     -43.082  58.338 -52.210  1.00  0.00    -0.333 N 
HETATM   19  C   UNL     1     -44.887  59.286 -53.714  1.00  0.00     0.032 A 
HETATM   20  H   UNL     1     -43.555  57.587 -51.732  1.00  0.00     0.168 HD
HETATM   21  C   UNL     1     -45.083  60.322 -54.635  1.00  0.00     0.002 A 
HETATM   22  C   UNL     1     -44.054  61.213 -54.957  1.00  0.00     0.002 A 
ENDBRANCH  12  13
ENDBRANCH  11  12
ENDBRANCH   8  11
ENDBRANCH   4   7
BRANCH   3  23
HETATM   23  C   UNL     1     -42.300  54.486 -54.570  1.00  0.00     0.258 C 
HETATM   24  N   UNL     1     -41.774  55.124 -55.681  1.00  0.00    -0.323 N 
HETATM   25  H   UNL     1     -40.792  54.971 -55.876  1.00  0.00     0.169 HD
HETATM   26  O   UNL     1     -43.391  54.713 -54.062  1.00  0.00    -0.267 OA
BRANCH  24  27
HETATM   27  C   UNL     1     -42.422  56.056 -56.518  1.00  0.00     0.035 A 
HETATM   28  C   UNL     1     -42.513  57.424 -56.240  1.00  0.00     0.032 A 
HETATM   29  C   UNL     1     -43.178  58.282 -57.121  1.00  0.00     0.044 A 
HETATM   30  C   UNL     1     -43.757  57.772 -58.275  1.00  0.00     0.116 A 
HETATM   31  F   UNL     1     -44.394  58.595 -59.117  1.00  0.00    -0.206 F 
HETATM   32  C   UNL     1     -43.686  56.416 -58.564  1.00  0.00     0.044 A 
HETATM   33  C   UNL     1     -43.021  55.558 -57.685  1.00  0.00     0.032 A 
ENDBRANCH  24  27
ENDBRANCH   3  23
TORSDOF 6
ENDMDL
MODEL 10
REMARK VINA RESULT:      -7.0      2.502      6.653
REMARK  6 active torsions:
REMARK  status: ('A' for Active; 'I' for Inactive)
REMARK    1  A    between atoms: C_3  and  C_4 
REMARK       I    between atoms: C_4  and  N_5 
REMARK    2  A    between atoms: N_5  and  C_6 
REMARK    3  A    between atoms: C_14  and  N_15 
REMARK       I    between atoms: N_15  and  C_16 
REMARK    4  A    between atoms: C_16  and  C_17 
REMARK    5  A    between atoms: C_17  and  S_18 
REMARK    6  A    between atoms: S_18  and  C_19 
ROOT
HETATM    1  C   UNL     1     -43.280  61.756 -52.413  1.00  0.00     0.001 A 
HETATM    2  C   UNL     1     -43.601  60.830 -53.404  1.00  0.00     0.019 A 
HETATM    3  C   UNL     1     -43.531  59.448 -53.141  1.00  0.00     0.059 A 
HETATM    4  C   UNL     1     -43.082  58.988 -51.882  1.00  0.00     0.050 A 
HETATM    5  C   UNL     1     -42.779  59.939 -50.898  1.00  0.00     0.030 A 
HETATM    6  C   UNL     1     -42.883  61.308 -51.159  1.00  0.00     0.002 A 
ENDROOT
BRANCH   4   7
HETATM    7  N   UNL     1     -42.912  57.599 -51.659  1.00  0.00    -0.326 N 
HETATM    8  C   UNL     1     -43.763  56.724 -51.017  1.00  0.00     0.231 C 
HETATM    9  O   UNL     1     -44.895  57.010 -50.620  1.00  0.00    -0.272 OA
HETATM   10  H   UNL     1     -42.030  57.210 -52.003  1.00  0.00     0.169 HD
BRANCH   8  11
HETATM   11  C   UNL     1     -43.225  55.323 -50.752  1.00  0.00     0.185 C 
BRANCH  11  12
HETATM   12  S   UNL     1     -41.468  55.244 -50.308  1.00  0.00    -0.083 SA
BRANCH  12  13
HETATM   13  C   UNL     1     -40.978  53.844 -51.187  1.00  0.00     0.168 A 
HETATM   14  N   UNL     1     -40.400  52.773 -50.704  1.00  0.00    -0.223 NA
HETATM   15  C   UNL     1     -40.151  51.990 -51.806  1.00  0.00     0.086 A 
HETATM   16  C   UNL     1     -40.616  52.598 -52.970  1.00  0.00     0.063 A 
HETATM   17  C   UNL     1     -39.530  50.736 -51.892  1.00  0.00     0.034 A 
HETATM   18  N   UNL     1     -41.133  53.792 -52.539  1.00  0.00    -0.333 N 
HETATM   19  C   UNL     1     -40.507  52.018 -54.235  1.00  0.00     0.032 A 
HETATM   20  H   UNL     1     -41.537  54.519 -53.108  1.00  0.00     0.168 HD
HETATM   21  C   UNL     1     -39.886  50.764 -54.299  1.00  0.00     0.002 A 
HETATM   22  C   UNL     1     -39.402  50.133 -53.149  1.00  0.00     0.002 A 
ENDBRANCH  12  13
ENDBRANCH  11  12
ENDBRANCH   8  11
ENDBRANCH   4   7
BRANCH   3  23
HETATM   23  C   UNL     1     -43.962  58.486 -54.204  1.00  0.00     0.258 C 
HETATM   24  N   UNL     1     -43.157  58.459 -55.332  1.00  0.00    -0.323 N 
HETATM   25  H   UNL     1     -42.441  59.172 -55.401  1.00  0.00     0.169 HD
HETATM   26  O   UNL     1     -44.997  57.850 -54.046  1.00  0.00    -0.267 OA
BRANCH  24  27
HETATM   27  C   UNL     1     -43.288  57.615 -56.454  1.00  0.00     0.035 A 
HETATM   28  C   UNL     1     -43.865  58.011 -57.666  1.00  0.00     0.032 A 
HETATM   29  C   UNL     1     -43.961  57.111 -58.731  1.00  0.00     0.044 A 
HETATM   30  C   UNL     1     -43.485  55.815 -58.583  1.00  0.00     0.116 A 
HETATM   31  F   UNL     1     -43.578  54.955 -59.605  1.00  0.00    -0.206 F 
HETATM   32  C   UNL     1     -42.917  55.400 -57.386  1.00  0.00     0.044 A 
HETATM   33  C   UNL     1     -42.821  56.299 -56.321  1.00  0.00     0.032 A 
ENDBRANCH  24  27
ENDBRANCH   3  23
TORSDOF 6
ENDMDL
