MODEL 1
REMARK VINA RESULT:      -8.5      0.000      0.000
REMARK  9 active torsions:
REMARK  status: ('A' for Active; 'I' for Inactive)
REMARK    1  A    between atoms: C_7  and  C_8 
REMARK    2  A    between atoms: C_9  and  O_10 
REMARK    3  A    between atoms: C_13  and  N_14 
REMARK    4  A    between atoms: N_14  and  C_15 
REMARK    5  A    between atoms: C_15  and  N_16 
REMARK       I    between atoms: N_16  and  C_17 
REMARK    6  A    between atoms: C_17  and  C_18 
REMARK    7  A    between atoms: C_21  and  O_22 
REMARK    8  A    between atoms: O_22  and  C_23 
REMARK    9  A    between atoms: C_23  and  C_24 
ROOT
HETATM    1  N   UNL     1     -42.711  59.886 -53.188  1.00  0.00    -0.337 N 
HETATM    2  H   UNL     1     -42.160  59.955 -52.340  1.00  0.00     0.168 HD
ENDROOT
BRANCH   1   3
HETATM    3  C   UNL     1     -43.146  58.589 -53.542  1.00  0.00     0.035 A 
HETATM    4  C   UNL     1     -44.445  58.441 -54.033  1.00  0.00     0.032 A 
HETATM    5  C   UNL     1     -44.941  57.172 -54.338  1.00  0.00     0.040 A 
HETATM    6  C   UNL     1     -44.152  56.044 -54.121  1.00  0.00     0.080 A 
HETATM    7  C   UNL     1     -42.855  56.158 -53.602  1.00  0.00     0.052 A 
HETATM    8  C   UNL     1     -42.366  57.447 -53.320  1.00  0.00     0.048 A 
BRANCH   6   9
HETATM    9  O   UNL     1     -44.730  54.837 -54.427  1.00  0.00    -0.360 OA
HETATM   10  H   UNL     1     -44.490  54.603 -55.349  1.00  0.00     0.217 HD
ENDBRANCH   6   9
BRANCH   7  11
HETATM   11  C   UNL     1     -42.053  54.969 -53.324  1.00  0.00     0.183 A 
HETATM   12  N   UNL     1     -41.356  54.694 -52.231  1.00  0.00    -0.221 NA
HETATM   13  C   UNL     1     -40.768  53.486 -52.522  1.00  0.00     0.093 A 
HETATM   14  C   UNL     1     -41.150  53.068 -53.786  1.00  0.00     0.107 A 
HETATM   15  C   UNL     1     -39.894  52.682 -51.782  1.00  0.00     0.035 A 
HETATM   16  C   UNL     1     -40.738  51.886 -54.391  1.00  0.00     0.046 A 
HETATM   17  O   UNL     1     -41.977  54.017 -54.308  1.00  0.00    -0.289 OA
HETATM   18  C   UNL     1     -39.871  51.075 -53.638  1.00  0.00    -0.059 A 
HETATM   19  C   UNL     1     -39.345  49.797 -54.227  1.00  0.00     0.048 C 
HETATM   20  C   UNL     1     -39.448  51.481 -52.357  1.00  0.00     0.009 A 
ENDBRANCH   7  11
ENDBRANCH   1   3
BRANCH   1  21
HETATM   21  C   UNL     1     -43.066  61.080 -53.768  1.00  0.00     0.157 C 
HETATM   22  S   UNL     1     -44.133  62.209 -53.140  1.00  0.00    -0.047 SA
BRANCH  21  23
HETATM   23  N   UNL     1     -42.461  61.384 -54.969  1.00  0.00    -0.201 NA
HETATM   24  C   UNL     1     -43.166  61.382 -56.153  1.00  0.00     0.237 C 
HETATM   25  O   UNL     1     -43.606  62.413 -56.651  1.00  0.00    -0.274 OA
HETATM   26  H   UNL     1     -42.012  62.285 -54.837  1.00  0.00     0.139 HD
BRANCH  24  27
HETATM   27  C   UNL     1     -43.297  60.090 -56.863  1.00  0.00     0.026 A 
HETATM   28  C   UNL     1     -42.185  59.248 -56.945  1.00  0.00     0.019 A 
HETATM   29  C   UNL     1     -42.310  57.976 -57.516  1.00  0.00     0.038 A 
HETATM   30  C   UNL     1     -43.554  57.534 -57.972  1.00  0.00     0.068 A 
HETATM   31  C   UNL     1     -44.656  58.393 -57.914  1.00  0.00     0.038 A 
HETATM   32  C   UNL     1     -44.534  59.672 -57.363  1.00  0.00     0.019 A 
BRANCH  30  33
HETATM   33  O   UNL     1     -43.819  56.293 -58.485  1.00  0.00    -0.351 OA
BRANCH  33  34
HETATM   34  C   UNL     1     -43.507  56.094 -59.867  1.00  0.00     0.179 C 
BRANCH  34  35
HETATM   35  C   UNL     1     -44.587  55.208 -60.505  1.00  0.00     0.002 C 
HETATM   36  C   UNL     1     -44.774  53.929 -59.689  1.00  0.00     0.011 C 
HETATM   37  C   UNL     1     -45.917  55.955 -60.626  1.00  0.00     0.011 C 
ENDBRANCH  34  35
ENDBRANCH  33  34
ENDBRANCH  30  33
ENDBRANCH  24  27
ENDBRANCH  21  23
ENDBRANCH   1  21
TORSDOF 9
ENDMDL
MODEL 2
REMARK VINA RESULT:      -8.2      1.818      2.373
REMARK  9 active torsions:
REMARK  status: ('A' for Active; 'I' for Inactive)
REMARK    1  A    between atoms: C_7  and  C_8 
REMARK    2  A    between atoms: C_9  and  O_10 
REMARK    3  A    between atoms: C_13  and  N_14 
REMARK    4  A    between atoms: N_14  and  C_15 
REMARK    5  A    between atoms: C_15  and  N_16 
REMARK       I    between atoms: N_16  and  C_17 
REMARK    6  A    between atoms: C_17  and  C_18 
REMARK    7  A    between atoms: C_21  and  O_22 
REMARK    8  A    between atoms: O_22  and  C_23 
REMARK    9  A    between atoms: C_23  and  C_24 
ROOT
HETATM    1  N   UNL     1     -43.453  59.524 -54.638  1.00  0.00    -0.337 N 
HETATM    2  H   UNL     1     -44.313  59.146 -55.017  1.00  0.00     0.168 HD
ENDROOT
BRANCH   1   3
HETATM    3  C   UNL     1     -42.961  58.896 -53.471  1.00  0.00     0.035 A 
HETATM    4  C   UNL     1     -42.830  59.666 -52.314  1.00  0.00     0.032 A 
HETATM    5  C   UNL     1     -42.290  59.108 -51.154  1.00  0.00     0.040 A 
HETATM    6  C   UNL     1     -41.847  57.786 -51.158  1.00  0.00     0.080 A 
HETATM    7  C   UNL     1     -41.939  56.996 -52.312  1.00  0.00     0.052 A 
HETATM    8  C   UNL     1     -42.504  57.572 -53.465  1.00  0.00     0.048 A 
BRANCH   6   9
HETATM    9  O   UNL     1     -41.310  57.328 -49.981  1.00  0.00    -0.360 OA
HETATM   10  H   UNL     1     -40.927  58.090 -49.496  1.00  0.00     0.217 HD
ENDBRANCH   6   9
BRANCH   7  11
HETATM   11  C   UNL     1     -41.422  55.630 -52.328  1.00  0.00     0.183 A 
HETATM   12  N   UNL     1     -40.944  54.928 -51.310  1.00  0.00    -0.221 NA
HETATM   13  C   UNL     1     -40.562  53.742 -51.891  1.00  0.00     0.093 A 
HETATM   14  C   UNL     1     -40.843  53.769 -53.247  1.00  0.00     0.107 A 
HETATM   15  C   UNL     1     -39.965  52.599 -51.349  1.00  0.00     0.035 A 
HETATM   16  C   UNL     1     -40.585  52.730 -54.133  1.00  0.00     0.046 A 
HETATM   17  O   UNL     1     -41.396  54.980 -53.536  1.00  0.00    -0.289 OA
HETATM   18  C   UNL     1     -39.997  51.578 -53.582  1.00  0.00    -0.059 A 
HETATM   19  C   UNL     1     -39.649  50.419 -54.472  1.00  0.00     0.048 C 
HETATM   20  C   UNL     1     -39.682  51.526 -52.210  1.00  0.00     0.009 A 
ENDBRANCH   7  11
ENDBRANCH   1   3
BRANCH   1  21
HETATM   21  C   UNL     1     -42.834  60.483 -55.402  1.00  0.00     0.157 C 
HETATM   22  S   UNL     1     -43.336  62.069 -55.602  1.00  0.00    -0.047 SA
BRANCH  21  23
HETATM   23  N   UNL     1     -41.672  60.105 -56.041  1.00  0.00    -0.201 NA
HETATM   24  C   UNL     1     -41.504  60.283 -57.397  1.00  0.00     0.237 C 
HETATM   25  O   UNL     1     -40.889  61.239 -57.857  1.00  0.00    -0.274 OA
HETATM   26  H   UNL     1     -40.915  60.555 -55.537  1.00  0.00     0.139 HD
BRANCH  24  27
HETATM   27  C   UNL     1     -42.014  59.218 -58.290  1.00  0.00     0.026 A 
HETATM   28  C   UNL     1     -42.263  57.950 -57.757  1.00  0.00     0.019 A 
HETATM   29  C   UNL     1     -42.847  56.959 -58.554  1.00  0.00     0.038 A 
HETATM   30  C   UNL     1     -43.213  57.245 -59.871  1.00  0.00     0.068 A 
HETATM   31  C   UNL     1     -42.933  58.506 -60.406  1.00  0.00     0.038 A 
HETATM   32  C   UNL     1     -42.333  59.496 -59.622  1.00  0.00     0.019 A 
BRANCH  30  33
HETATM   33  O   UNL     1     -43.849  56.385 -60.725  1.00  0.00    -0.351 OA
BRANCH  33  34
HETATM   34  C   UNL     1     -45.089  55.835 -60.271  1.00  0.00     0.179 C 
BRANCH  34  35
HETATM   35  C   UNL     1     -46.183  56.909 -60.370  1.00  0.00     0.002 C 
HETATM   36  C   UNL     1     -47.358  56.394 -61.200  1.00  0.00     0.011 C 
HETATM   37  C   UNL     1     -46.665  57.340 -58.984  1.00  0.00     0.011 C 
ENDBRANCH  34  35
ENDBRANCH  33  34
ENDBRANCH  30  33
ENDBRANCH  24  27
ENDBRANCH  21  23
ENDBRANCH   1  21
TORSDOF 9
ENDMDL
MODEL 3
REMARK VINA RESULT:      -8.1      2.677      5.216
REMARK  9 active torsions:
REMARK  status: ('A' for Active; 'I' for Inactive)
REMARK    1  A    between atoms: C_7  and  C_8 
REMARK    2  A    between atoms: C_9  and  O_10 
REMARK    3  A    between atoms: C_13  and  N_14 
REMARK    4  A    between atoms: N_14  and  C_15 
REMARK    5  A    between atoms: C_15  and  N_16 
REMARK       I    between atoms: N_16  and  C_17 
REMARK    6  A    between atoms: C_17  and  C_18 
REMARK    7  A    between atoms: C_21  and  O_22 
REMARK    8  A    between atoms: O_22  and  C_23 
REMARK    9  A    between atoms: C_23  and  C_24 
ROOT
HETATM    1  N   UNL     1     -44.435  57.832 -56.754  1.00  0.00    -0.337 N 
HETATM    2  H   UNL     1     -45.314  57.634 -57.217  1.00  0.00     0.168 HD
ENDROOT
BRANCH   1   3
HETATM    3  C   UNL     1     -44.304  57.344 -55.434  1.00  0.00     0.035 A 
HETATM    4  C   UNL     1     -44.948  58.038 -54.408  1.00  0.00     0.032 A 
HETATM    5  C   UNL     1     -44.798  57.631 -53.081  1.00  0.00     0.040 A 
HETATM    6  C   UNL     1     -43.976  56.548 -52.772  1.00  0.00     0.080 A 
HETATM    7  C   UNL     1     -43.294  55.849 -53.778  1.00  0.00     0.052 A 
HETATM    8  C   UNL     1     -43.474  56.263 -55.111  1.00  0.00     0.048 A 
BRANCH   6   9
HETATM    9  O   UNL     1     -43.870  56.234 -51.441  1.00  0.00    -0.360 OA
HETATM   10  H   UNL     1     -43.515  55.322 -51.365  1.00  0.00     0.217 HD
ENDBRANCH   6   9
BRANCH   7  11
HETATM   11  C   UNL     1     -42.390  54.752 -53.444  1.00  0.00     0.183 A 
HETATM   12  N   UNL     1     -41.686  54.584 -52.334  1.00  0.00    -0.221 NA
HETATM   13  C   UNL     1     -40.985  53.425 -52.571  1.00  0.00     0.093 A 
HETATM   14  C   UNL     1     -41.309  52.926 -53.822  1.00  0.00     0.107 A 
HETATM   15  C   UNL     1     -40.051  52.735 -51.790  1.00  0.00     0.035 A 
HETATM   16  C   UNL     1     -40.781  51.765 -54.376  1.00  0.00     0.046 A 
HETATM   17  O   UNL     1     -42.212  53.773 -54.390  1.00  0.00    -0.289 OA
HETATM   18  C   UNL     1     -39.854  51.068 -53.582  1.00  0.00    -0.059 A 
HETATM   19  C   UNL     1     -39.203  49.822 -54.115  1.00  0.00     0.048 C 
HETATM   20  C   UNL     1     -39.488  51.559 -52.314  1.00  0.00     0.009 A 
ENDBRANCH   7  11
ENDBRANCH   1   3
BRANCH   1  21
HETATM   21  C   UNL     1     -43.465  58.412 -57.536  1.00  0.00     0.157 C 
HETATM   22  S   UNL     1     -42.538  57.641 -58.700  1.00  0.00    -0.047 SA
BRANCH  21  23
HETATM   23  N   UNL     1     -43.259  59.764 -57.359  1.00  0.00    -0.201 NA
HETATM   24  C   UNL     1     -42.139  60.245 -56.717  1.00  0.00     0.237 C 
HETATM   25  O   UNL     1     -41.160  60.654 -57.332  1.00  0.00    -0.274 OA
HETATM   26  H   UNL     1     -43.335  60.182 -58.281  1.00  0.00     0.139 HD
BRANCH  24  27
HETATM   27  C   UNL     1     -42.191  60.341 -55.241  1.00  0.00     0.026 A 
HETATM   28  C   UNL     1     -43.043  61.282 -54.654  1.00  0.00     0.019 A 
HETATM   29  C   UNL     1     -43.191  61.320 -53.263  1.00  0.00     0.038 A 
HETATM   30  C   UNL     1     -42.516  60.397 -52.462  1.00  0.00     0.068 A 
HETATM   31  C   UNL     1     -41.642  59.479 -53.054  1.00  0.00     0.038 A 
HETATM   32  C   UNL     1     -41.474  59.447 -54.441  1.00  0.00     0.019 A 
BRANCH  30  33
HETATM   33  O   UNL     1     -42.630  60.288 -51.102  1.00  0.00    -0.351 OA
BRANCH  33  34
HETATM   34  C   UNL     1     -43.318  61.349 -50.433  1.00  0.00     0.179 C 
BRANCH  34  35
HETATM   35  C   UNL     1     -44.568  60.784 -49.744  1.00  0.00     0.002 C 
HETATM   36  C   UNL     1     -44.839  61.532 -48.440  1.00  0.00     0.011 C 
HETATM   37  C   UNL     1     -45.790  60.861 -50.661  1.00  0.00     0.011 C 
ENDBRANCH  34  35
ENDBRANCH  33  34
ENDBRANCH  30  33
ENDBRANCH  24  27
ENDBRANCH  21  23
ENDBRANCH   1  21
TORSDOF 9
ENDMDL
MODEL 4
REMARK VINA RESULT:      -7.9      1.617      2.317
REMARK  9 active torsions:
REMARK  status: ('A' for Active; 'I' for Inactive)
REMARK    1  A    between atoms: C_7  and  C_8 
REMARK    2  A    between atoms: C_9  and  O_10 
REMARK    3  A    between atoms: C_13  and  N_14 
REMARK    4  A    between atoms: N_14  and  C_15 
REMARK    5  A    between atoms: C_15  and  N_16 
REMARK       I    between atoms: N_16  and  C_17 
REMARK    6  A    between atoms: C_17  and  C_18 
REMARK    7  A    between atoms: C_21  and  O_22 
REMARK    8  A    between atoms: O_22  and  C_23 
REMARK    9  A    between atoms: C_23  and  C_24 
ROOT
HETATM    1  N   UNL     1     -43.810  59.051 -50.770  1.00  0.00    -0.337 N 
HETATM    2  H   UNL     1     -43.834  58.685 -49.826  1.00  0.00     0.168 HD
ENDROOT
BRANCH   1   3
HETATM    3  C   UNL     1     -43.780  58.091 -51.807  1.00  0.00     0.035 A 
HETATM    4  C   UNL     1     -44.705  58.213 -52.845  1.00  0.00     0.032 A 
HETATM    5  C   UNL     1     -44.756  57.255 -53.859  1.00  0.00     0.040 A 
HETATM    6  C   UNL     1     -43.903  56.153 -53.821  1.00  0.00     0.080 A 
HETATM    7  C   UNL     1     -42.983  55.987 -52.775  1.00  0.00     0.052 A 
HETATM    8  C   UNL     1     -42.935  56.974 -51.774  1.00  0.00     0.048 A 
BRANCH   6   9
HETATM    9  O   UNL     1     -44.039  55.251 -54.846  1.00  0.00    -0.360 OA
HETATM   10  H   UNL     1     -44.705  54.580 -54.583  1.00  0.00     0.217 HD
ENDBRANCH   6   9
BRANCH   7  11
HETATM   11  C   UNL     1     -42.132  54.802 -52.709  1.00  0.00     0.183 A 
HETATM   12  N   UNL     1     -41.359  54.410 -51.707  1.00  0.00    -0.221 NA
HETATM   13  C   UNL     1     -40.757  53.273 -52.193  1.00  0.00     0.093 A 
HETATM   14  C   UNL     1     -41.208  53.013 -53.477  1.00  0.00     0.107 A 
HETATM   15  C   UNL     1     -39.815  52.410 -51.622  1.00  0.00     0.035 A 
HETATM   16  C   UNL     1     -40.803  51.939 -54.260  1.00  0.00     0.046 A 
HETATM   17  O   UNL     1     -42.093  53.992 -53.816  1.00  0.00    -0.289 OA
HETATM   18  C   UNL     1     -39.867  51.067 -53.676  1.00  0.00    -0.059 A 
HETATM   19  C   UNL     1     -39.344  49.899 -54.464  1.00  0.00     0.048 C 
HETATM   20  C   UNL     1     -39.374  51.313 -52.380  1.00  0.00     0.009 A 
ENDBRANCH   7  11
ENDBRANCH   1   3
BRANCH   1  21
HETATM   21  C   UNL     1     -43.960  60.412 -50.888  1.00  0.00     0.157 C 
HETATM   22  S   UNL     1     -45.263  61.316 -50.346  1.00  0.00    -0.047 SA
BRANCH  21  23
HETATM   23  N   UNL     1     -42.923  61.096 -51.486  1.00  0.00    -0.201 NA
HETATM   24  C   UNL     1     -43.111  61.827 -52.639  1.00  0.00     0.237 C 
HETATM   25  O   UNL     1     -43.278  63.042 -52.620  1.00  0.00    -0.274 OA
HETATM   26  H   UNL     1     -42.524  61.686 -50.764  1.00  0.00     0.139 HD
BRANCH  24  27
HETATM   27  C   UNL     1     -43.009  61.103 -53.926  1.00  0.00     0.026 A 
HETATM   28  C   UNL     1     -41.989  60.163 -54.094  1.00  0.00     0.019 A 
HETATM   29  C   UNL     1     -41.935  59.389 -55.259  1.00  0.00     0.038 A 
HETATM   30  C   UNL     1     -42.920  59.530 -56.238  1.00  0.00     0.068 A 
HETATM   31  C   UNL     1     -43.921  60.494 -56.077  1.00  0.00     0.038 A 
HETATM   32  C   UNL     1     -43.969  61.284 -54.925  1.00  0.00     0.019 A 
BRANCH  30  33
HETATM   33  O   UNL     1     -43.016  58.788 -57.385  1.00  0.00    -0.351 OA
BRANCH  33  34
HETATM   34  C   UNL     1     -42.818  57.378 -57.250  1.00  0.00     0.179 C 
BRANCH  34  35
HETATM   35  C   UNL     1     -42.736  56.745 -58.647  1.00  0.00     0.002 C 
HETATM   36  C   UNL     1     -44.128  56.333 -59.126  1.00  0.00     0.011 C 
HETATM   37  C   UNL     1     -42.095  57.703 -59.654  1.00  0.00     0.011 C 
ENDBRANCH  34  35
ENDBRANCH  33  34
ENDBRANCH  30  33
ENDBRANCH  24  27
ENDBRANCH  21  23
ENDBRANCH   1  21
TORSDOF 9
ENDMDL
MODEL 5
REMARK VINA RESULT:      -7.8      1.598      1.876
REMARK  9 active torsions:
REMARK  status: ('A' for Active; 'I' for Inactive)
REMARK    1  A    between atoms: C_7  and  C_8 
REMARK    2  A    between atoms: C_9  and  O_10 
REMARK    3  A    between atoms: C_13  and  N_14 
REMARK    4  A    between atoms: N_14  and  C_15 
REMARK    5  A    between atoms: C_15  and  N_16 
REMARK       I    between atoms: N_16  and  C_17 
REMARK    6  A    between atoms: C_17  and  C_18 
REMARK    7  A    between atoms: C_21  and  O_22 
REMARK    8  A    between atoms: O_22  and  C_23 
REMARK    9  A    between atoms: C_23  and  C_24 
ROOT
HETATM    1  N   UNL     1     -42.119  60.327 -52.410  1.00  0.00    -0.337 N 
HETATM    2  H   UNL     1     -41.125  60.390 -52.226  1.00  0.00     0.168 HD
ENDROOT
BRANCH   1   3
HETATM    3  C   UNL     1     -42.735  59.100 -52.072  1.00  0.00     0.035 A 
HETATM    4  C   UNL     1     -44.006  59.138 -51.494  1.00  0.00     0.032 A 
HETATM    5  C   UNL     1     -44.629  57.958 -51.086  1.00  0.00     0.040 A 
HETATM    6  C   UNL     1     -43.970  56.738 -51.223  1.00  0.00     0.080 A 
HETATM    7  C   UNL     1     -42.682  56.670 -51.773  1.00  0.00     0.052 A 
HETATM    8  C   UNL     1     -42.079  57.869 -52.197  1.00  0.00     0.048 A 
BRANCH   6   9
HETATM    9  O   UNL     1     -44.648  55.633 -50.774  1.00  0.00    -0.360 OA
HETATM   10  H   UNL     1     -44.043  54.861 -50.811  1.00  0.00     0.217 HD
ENDBRANCH   6   9
BRANCH   7  11
HETATM   11  C   UNL     1     -41.972  55.397 -51.863  1.00  0.00     0.183 A 
HETATM   12  N   UNL     1     -41.341  54.746 -50.896  1.00  0.00    -0.221 NA
HETATM   13  C   UNL     1     -40.822  53.645 -51.537  1.00  0.00     0.093 A 
HETATM   14  C   UNL     1     -41.179  53.667 -52.876  1.00  0.00     0.107 A 
HETATM   15  C   UNL     1     -40.035  52.589 -51.067  1.00  0.00     0.035 A 
HETATM   16  C   UNL     1     -40.821  52.703 -53.810  1.00  0.00     0.046 A 
HETATM   17  O   UNL     1     -41.919  54.791 -53.093  1.00  0.00    -0.289 OA
HETATM   18  C   UNL     1     -40.041  51.636 -53.330  1.00  0.00    -0.059 A 
HETATM   19  C   UNL     1     -39.577  50.566 -54.277  1.00  0.00     0.048 C 
HETATM   20  C   UNL     1     -39.646  51.593 -51.979  1.00  0.00     0.009 A 
ENDBRANCH   7  11
ENDBRANCH   1   3
BRANCH   1  21
HETATM   21  C   UNL     1     -42.728  61.489 -52.818  1.00  0.00     0.157 C 
HETATM   22  S   UNL     1     -43.371  62.673 -51.822  1.00  0.00    -0.047 SA
BRANCH  21  23
HETATM   23  N   UNL     1     -42.787  61.709 -54.178  1.00  0.00    -0.201 NA
HETATM   24  C   UNL     1     -43.836  61.243 -54.939  1.00  0.00     0.237 C 
HETATM   25  O   UNL     1     -44.779  61.961 -55.258  1.00  0.00    -0.274 OA
HETATM   26  H   UNL     1     -42.686  62.711 -54.305  1.00  0.00     0.139 HD
BRANCH  24  27
HETATM   27  C   UNL     1     -43.744  59.856 -55.447  1.00  0.00     0.026 A 
HETATM   28  C   UNL     1     -42.534  59.413 -55.988  1.00  0.00     0.019 A 
HETATM   29  C   UNL     1     -42.388  58.076 -56.376  1.00  0.00     0.038 A 
HETATM   30  C   UNL     1     -43.439  57.175 -56.190  1.00  0.00     0.068 A 
HETATM   31  C   UNL     1     -44.657  57.632 -55.676  1.00  0.00     0.038 A 
HETATM   32  C   UNL     1     -44.816  58.971 -55.304  1.00  0.00     0.019 A 
BRANCH  30  33
HETATM   33  O   UNL     1     -43.397  55.835 -56.464  1.00  0.00    -0.351 OA
BRANCH  33  34
HETATM   34  C   UNL     1     -42.812  55.457 -57.713  1.00  0.00     0.179 C 
BRANCH  34  35
HETATM   35  C   UNL     1     -43.786  55.800 -58.850  1.00  0.00     0.002 C 
HETATM   36  C   UNL     1     -43.092  56.667 -59.900  1.00  0.00     0.011 C 
HETATM   37  C   UNL     1     -44.349  54.534 -59.500  1.00  0.00     0.011 C 
ENDBRANCH  34  35
ENDBRANCH  33  34
ENDBRANCH  30  33
ENDBRANCH  24  27
ENDBRANCH  21  23
ENDBRANCH   1  21
TORSDOF 9
ENDMDL
MODEL 6
REMARK VINA RESULT:      -7.6      3.572      6.427
REMARK  9 active torsions:
REMARK  status: ('A' for Active; 'I' for Inactive)
REMARK    1  A    between atoms: C_7  and  C_8 
REMARK    2  A    between atoms: C_9  and  O_10 
REMARK    3  A    between atoms: C_13  and  N_14 
REMARK    4  A    between atoms: N_14  and  C_15 
REMARK    5  A    between atoms: C_15  and  N_16 
REMARK       I    between atoms: N_16  and  C_17 
REMARK    6  A    between atoms: C_17  and  C_18 
REMARK    7  A    between atoms: C_21  and  O_22 
REMARK    8  A    between atoms: O_22  and  C_23 
REMARK    9  A    between atoms: C_23  and  C_24 
ROOT
HETATM    1  N   UNL     1     -41.539  59.642 -54.406  1.00  0.00    -0.337 N 
HETATM    2  H   UNL     1     -40.747  60.270 -54.475  1.00  0.00     0.168 HD
ENDROOT
BRANCH   1   3
HETATM    3  C   UNL     1     -41.572  58.809 -53.264  1.00  0.00     0.035 A 
HETATM    4  C   UNL     1     -41.795  59.403 -52.021  1.00  0.00     0.032 A 
HETATM    5  C   UNL     1     -41.774  58.630 -50.858  1.00  0.00     0.040 A 
HETATM    6  C   UNL     1     -41.497  57.266 -50.932  1.00  0.00     0.080 A 
HETATM    7  C   UNL     1     -41.240  56.647 -52.163  1.00  0.00     0.052 A 
HETATM    8  C   UNL     1     -41.285  57.439 -53.325  1.00  0.00     0.048 A 
BRANCH   6   9
HETATM    9  O   UNL     1     -41.474  56.591 -49.738  1.00  0.00    -0.360 OA
HETATM   10  H   UNL     1     -40.560  56.619 -49.382  1.00  0.00     0.217 HD
ENDBRANCH   6   9
BRANCH   7  11
HETATM   11  C   UNL     1     -40.894  55.229 -52.229  1.00  0.00     0.183 A 
HETATM   12  N   UNL     1     -40.556  54.425 -51.231  1.00  0.00    -0.221 NA
HETATM   13  C   UNL     1     -40.294  53.230 -51.858  1.00  0.00     0.093 A 
HETATM   14  C   UNL     1     -40.501  53.357 -53.222  1.00  0.00     0.107 A 
HETATM   15  C   UNL     1     -39.868  51.997 -51.353  1.00  0.00     0.035 A 
HETATM   16  C   UNL     1     -40.327  52.338 -54.151  1.00  0.00     0.046 A 
HETATM   17  O   UNL     1     -40.887  54.640 -53.468  1.00  0.00    -0.289 OA
HETATM   18  C   UNL     1     -39.913  51.097 -53.637  1.00  0.00    -0.059 A 
HETATM   19  C   UNL     1     -39.665  49.947 -54.573  1.00  0.00     0.048 C 
HETATM   20  C   UNL     1     -39.675  50.939 -52.258  1.00  0.00     0.009 A 
ENDBRANCH   7  11
ENDBRANCH   1   3
BRANCH   1  21
HETATM   21  C   UNL     1     -42.521  59.810 -55.353  1.00  0.00     0.157 C 
HETATM   22  S   UNL     1     -42.333  60.516 -56.861  1.00  0.00    -0.047 SA
BRANCH  21  23
HETATM   23  N   UNL     1     -43.772  59.325 -55.035  1.00  0.00    -0.201 NA
HETATM   24  C   UNL     1     -44.808  60.167 -54.696  1.00  0.00     0.237 C 
HETATM   25  O   UNL     1     -45.663  60.508 -55.507  1.00  0.00    -0.274 OA
HETATM   26  H   UNL     1     -44.048  58.733 -55.811  1.00  0.00     0.139 HD
BRANCH  24  27
HETATM   27  C   UNL     1     -44.912  60.579 -53.278  1.00  0.00     0.026 A 
HETATM   28  C   UNL     1     -45.423  59.672 -52.346  1.00  0.00     0.019 A 
HETATM   29  C   UNL     1     -45.431  59.997 -50.985  1.00  0.00     0.038 A 
HETATM   30  C   UNL     1     -44.898  61.213 -50.553  1.00  0.00     0.068 A 
HETATM   31  C   UNL     1     -44.417  62.129 -51.494  1.00  0.00     0.038 A 
HETATM   32  C   UNL     1     -44.423  61.819 -52.857  1.00  0.00     0.019 A 
BRANCH  30  33
HETATM   33  O   UNL     1     -44.788  61.616 -49.249  1.00  0.00    -0.351 OA
BRANCH  33  34
HETATM   34  C   UNL     1     -45.711  61.038 -48.322  1.00  0.00     0.179 C 
BRANCH  34  35
HETATM   35  C   UNL     1     -45.585  61.758 -46.971  1.00  0.00     0.002 C 
HETATM   36  C   UNL     1     -46.966  61.975 -46.355  1.00  0.00     0.011 C 
HETATM   37  C   UNL     1     -44.694  60.973 -46.005  1.00  0.00     0.011 C 
ENDBRANCH  34  35
ENDBRANCH  33  34
ENDBRANCH  30  33
ENDBRANCH  24  27
ENDBRANCH  21  23
ENDBRANCH   1  21
TORSDOF 9
ENDMDL
MODEL 7
REMARK VINA RESULT:      -7.6      2.709      4.978
REMARK  9 active torsions:
REMARK  status: ('A' for Active; 'I' for Inactive)
REMARK    1  A    between atoms: C_7  and  C_8 
REMARK    2  A    between atoms: C_9  and  O_10 
REMARK    3  A    between atoms: C_13  and  N_14 
REMARK    4  A    between atoms: N_14  and  C_15 
REMARK    5  A    between atoms: C_15  and  N_16 
REMARK       I    between atoms: N_16  and  C_17 
REMARK    6  A    between atoms: C_17  and  C_18 
REMARK    7  A    between atoms: C_21  and  O_22 
REMARK    8  A    between atoms: O_22  and  C_23 
REMARK    9  A    between atoms: C_23  and  C_24 
ROOT
HETATM    1  N   UNL     1     -45.462  57.970 -54.759  1.00  0.00    -0.337 N 
HETATM    2  H   UNL     1     -46.302  57.425 -54.609  1.00  0.00     0.168 HD
ENDROOT
BRANCH   1   3
HETATM    3  C   UNL     1     -44.667  58.211 -53.615  1.00  0.00     0.035 A 
HETATM    4  C   UNL     1     -44.410  59.537 -53.259  1.00  0.00     0.032 A 
HETATM    5  C   UNL     1     -43.580  59.826 -52.175  1.00  0.00     0.040 A 
HETATM    6  C   UNL     1     -42.977  58.791 -51.462  1.00  0.00     0.080 A 
HETATM    7  C   UNL     1     -43.193  57.451 -51.813  1.00  0.00     0.052 A 
HETATM    8  C   UNL     1     -44.049  57.180 -52.897  1.00  0.00     0.048 A 
BRANCH   6   9
HETATM    9  O   UNL     1     -42.160  59.169 -50.427  1.00  0.00    -0.360 OA
HETATM   10  H   UNL     1     -42.680  59.146 -49.596  1.00  0.00     0.217 HD
ENDBRANCH   6   9
BRANCH   7  11
HETATM   11  C   UNL     1     -42.515  56.372 -51.100  1.00  0.00     0.183 A 
HETATM   12  N   UNL     1     -41.891  56.433 -49.932  1.00  0.00    -0.221 NA
HETATM   13  C   UNL     1     -41.404  55.159 -49.762  1.00  0.00     0.093 A 
HETATM   14  C   UNL     1     -41.770  54.366 -50.838  1.00  0.00     0.107 A 
HETATM   15  C   UNL     1     -40.638  54.592 -48.738  1.00  0.00     0.035 A 
HETATM   16  C   UNL     1     -41.442  53.024 -50.984  1.00  0.00     0.046 A 
HETATM   17  O   UNL     1     -42.485  55.140 -51.702  1.00  0.00    -0.289 OA
HETATM   18  C   UNL     1     -40.684  52.455 -49.946  1.00  0.00    -0.059 A 
HETATM   19  C   UNL     1     -40.253  51.019 -50.038  1.00  0.00     0.048 C 
HETATM   20  C   UNL     1     -40.279  53.238 -48.848  1.00  0.00     0.009 A 
ENDBRANCH   7  11
ENDBRANCH   1   3
BRANCH   1  21
HETATM   21  C   UNL     1     -45.159  58.255 -56.068  1.00  0.00     0.157 C 
HETATM   22  S   UNL     1     -46.258  58.529 -57.303  1.00  0.00    -0.047 SA
BRANCH  21  23
HETATM   23  N   UNL     1     -43.820  58.352 -56.383  1.00  0.00    -0.201 NA
HETATM   24  C   UNL     1     -43.153  57.327 -57.018  1.00  0.00     0.237 C 
HETATM   25  O   UNL     1     -42.955  57.330 -58.228  1.00  0.00    -0.274 OA
HETATM   26  H   UNL     1     -43.718  59.211 -56.913  1.00  0.00     0.139 HD
BRANCH  24  27
HETATM   27  C   UNL     1     -42.591  56.253 -56.168  1.00  0.00     0.026 A 
HETATM   28  C   UNL     1     -43.214  55.002 -56.160  1.00  0.00     0.019 A 
HETATM   29  C   UNL     1     -42.642  53.940 -55.450  1.00  0.00     0.038 A 
HETATM   30  C   UNL     1     -41.431  54.120 -54.777  1.00  0.00     0.068 A 
HETATM   31  C   UNL     1     -40.830  55.383 -54.764  1.00  0.00     0.038 A 
HETATM   32  C   UNL     1     -41.406  56.453 -55.455  1.00  0.00     0.019 A 
BRANCH  30  33
HETATM   33  O   UNL     1     -40.740  53.147 -54.107  1.00  0.00    -0.351 OA
BRANCH  33  34
HETATM   34  C   UNL     1     -41.105  51.794 -54.392  1.00  0.00     0.179 C 
BRANCH  34  35
HETATM   35  C   UNL     1     -40.076  50.849 -53.753  1.00  0.00     0.002 C 
HETATM   36  C   UNL     1     -39.612  49.806 -54.768  1.00  0.00     0.011 C 
HETATM   37  C   UNL     1     -38.876  51.624 -53.206  1.00  0.00     0.011 C 
ENDBRANCH  34  35
ENDBRANCH  33  34
ENDBRANCH  30  33
ENDBRANCH  24  27
ENDBRANCH  21  23
ENDBRANCH   1  21
TORSDOF 9
ENDMDL
MODEL 8
REMARK VINA RESULT:      -7.6      2.951      7.564
REMARK  9 active torsions:
REMARK  status: ('A' for Active; 'I' for Inactive)
REMARK    1  A    between atoms: C_7  and  C_8 
REMARK    2  A    between atoms: C_9  and  O_10 
REMARK    3  A    between atoms: C_13  and  N_14 
REMARK    4  A    between atoms: N_14  and  C_15 
REMARK    5  A    between atoms: C_15  and  N_16 
REMARK       I    between atoms: N_16  and  C_17 
REMARK    6  A    between atoms: C_17  and  C_18 
REMARK    7  A    between atoms: C_21  and  O_22 
REMARK    8  A    between atoms: O_22  and  C_23 
REMARK    9  A    between atoms: C_23  and  C_24 
ROOT
HETATM    1  N   UNL     1     -45.565  59.349 -54.051  1.00  0.00    -0.337 N 
HETATM    2  H   UNL     1     -46.548  59.141 -54.172  1.00  0.00     0.168 HD
ENDROOT
BRANCH   1   3
HETATM    3  C   UNL     1     -44.696  58.847 -55.047  1.00  0.00     0.035 A 
HETATM    4  C   UNL     1     -44.478  57.469 -55.096  1.00  0.00     0.032 A 
HETATM    5  C   UNL     1     -43.581  56.932 -56.021  1.00  0.00     0.040 A 
HETATM    6  C   UNL     1     -42.875  57.774 -56.878  1.00  0.00     0.080 A 
HETATM    7  C   UNL     1     -43.051  59.164 -56.833  1.00  0.00     0.052 A 
HETATM    8  C   UNL     1     -43.974  59.684 -55.906  1.00  0.00     0.048 A 
BRANCH   6   9
HETATM    9  O   UNL     1     -41.998  57.161 -57.738  1.00  0.00    -0.360 OA
HETATM   10  H   UNL     1     -42.206  57.451 -58.652  1.00  0.00     0.217 HD
ENDBRANCH   6   9
BRANCH   7  11
HETATM   11  C   UNL     1     -42.267  60.046 -57.693  1.00  0.00     0.183 A 
HETATM   12  N   UNL     1     -41.325  60.908 -57.335  1.00  0.00    -0.221 NA
HETATM   13  C   UNL     1     -40.960  61.495 -58.523  1.00  0.00     0.093 A 
HETATM   14  C   UNL     1     -41.692  60.949 -59.564  1.00  0.00     0.107 A 
HETATM   15  C   UNL     1     -40.030  62.501 -58.808  1.00  0.00     0.035 A 
HETATM   16  C   UNL     1     -41.572  61.315 -60.899  1.00  0.00     0.046 A 
HETATM   17  O   UNL     1     -42.535  60.016 -59.038  1.00  0.00    -0.289 OA
HETATM   18  C   UNL     1     -40.627  62.316 -61.183  1.00  0.00    -0.059 A 
HETATM   19  C   UNL     1     -40.456  62.802 -62.594  1.00  0.00     0.048 C 
HETATM   20  C   UNL     1     -39.880  62.906 -60.145  1.00  0.00     0.009 A 
ENDBRANCH   7  11
ENDBRANCH   1   3
BRANCH   1  21
HETATM   21  C   UNL     1     -45.257  60.207 -53.022  1.00  0.00     0.157 C 
HETATM   22  S   UNL     1     -45.206  61.880 -53.108  1.00  0.00    -0.047 SA
BRANCH  21  23
HETATM   23  N   UNL     1     -44.994  59.630 -51.798  1.00  0.00    -0.201 NA
HETATM   24  C   UNL     1     -43.705  59.402 -51.371  1.00  0.00     0.237 C 
HETATM   25  O   UNL     1     -43.126  60.167 -50.606  1.00  0.00    -0.274 OA
HETATM   26  H   UNL     1     -45.491  60.190 -51.112  1.00  0.00     0.139 HD
BRANCH  24  27
HETATM   27  C   UNL     1     -43.064  58.136 -51.794  1.00  0.00     0.026 A 
HETATM   28  C   UNL     1     -41.917  58.192 -52.590  1.00  0.00     0.019 A 
HETATM   29  C   UNL     1     -41.231  57.016 -52.913  1.00  0.00     0.038 A 
HETATM   30  C   UNL     1     -41.671  55.789 -52.413  1.00  0.00     0.068 A 
HETATM   31  C   UNL     1     -42.837  55.737 -51.641  1.00  0.00     0.038 A 
HETATM   32  C   UNL     1     -43.539  56.906 -51.330  1.00  0.00     0.019 A 
BRANCH  30  33
HETATM   33  O   UNL     1     -41.052  54.583 -52.601  1.00  0.00    -0.351 OA
BRANCH  33  34
HETATM   34  C   UNL     1     -41.798  53.585 -53.303  1.00  0.00     0.179 C 
BRANCH  34  35
HETATM   35  C   UNL     1     -40.894  52.929 -54.357  1.00  0.00     0.002 C 
HETATM   36  C   UNL     1     -40.133  53.996 -55.142  1.00  0.00     0.011 C 
HETATM   37  C   UNL     1     -39.912  51.948 -53.713  1.00  0.00     0.011 C 
ENDBRANCH  34  35
ENDBRANCH  33  34
ENDBRANCH  30  33
ENDBRANCH  24  27
ENDBRANCH  21  23
ENDBRANCH   1  21
TORSDOF 9
ENDMDL
MODEL 9
REMARK VINA RESULT:      -7.5      3.026      4.776
REMARK  9 active torsions:
REMARK  status: ('A' for Active; 'I' for Inactive)
REMARK    1  A    between atoms: C_7  and  C_8 
REMARK    2  A    between atoms: C_9  and  O_10 
REMARK    3  A    between atoms: C_13  and  N_14 
REMARK    4  A    between atoms: N_14  and  C_15 
REMARK    5  A    between atoms: C_15  and  N_16 
REMARK       I    between atoms: N_16  and  C_17 
REMARK    6  A    between atoms: C_17  and  C_18 
REMARK    7  A    between atoms: C_21  and  O_22 
REMARK    8  A    between atoms: O_22  and  C_23 
REMARK    9  A    between atoms: C_23  and  C_24 
ROOT
HETATM    1  N   UNL     1     -46.410  61.045 -54.454  1.00  0.00    -0.337 N 
HETATM    2  H   UNL     1     -47.421  60.989 -54.425  1.00  0.00     0.168 HD
ENDROOT
BRANCH   1   3
HETATM    3  C   UNL     1     -45.740  60.810 -53.232  1.00  0.00     0.035 A 
HETATM    4  C   UNL     1     -45.555  61.889 -52.364  1.00  0.00     0.032 A 
HETATM    5  C   UNL     1     -44.845  61.721 -51.174  1.00  0.00     0.040 A 
HETATM    6  C   UNL     1     -44.289  60.481 -50.863  1.00  0.00     0.080 A 
HETATM    7  C   UNL     1     -44.433  59.387 -51.727  1.00  0.00     0.052 A 
HETATM    8  C   UNL     1     -45.169  59.572 -52.913  1.00  0.00     0.048 A 
BRANCH   6   9
HETATM    9  O   UNL     1     -43.589  60.414 -49.685  1.00  0.00    -0.360 OA
HETATM   10  H   UNL     1     -42.860  59.766 -49.793  1.00  0.00     0.217 HD
ENDBRANCH   6   9
BRANCH   7  11
HETATM   11  C   UNL     1     -43.801  58.106 -51.424  1.00  0.00     0.183 A 
HETATM   12  N   UNL     1     -44.343  56.898 -51.471  1.00  0.00    -0.221 NA
HETATM   13  C   UNL     1     -43.327  56.073 -51.050  1.00  0.00     0.093 A 
HETATM   14  C   UNL     1     -42.194  56.823 -50.778  1.00  0.00     0.107 A 
HETATM   15  C   UNL     1     -43.280  54.688 -50.860  1.00  0.00     0.035 A 
HETATM   16  C   UNL     1     -40.985  56.303 -50.332  1.00  0.00     0.046 A 
HETATM   17  O   UNL     1     -42.491  58.131 -51.017  1.00  0.00    -0.289 OA
HETATM   18  C   UNL     1     -40.938  54.909 -50.156  1.00  0.00    -0.059 A 
HETATM   19  C   UNL     1     -39.682  54.264 -49.642  1.00  0.00     0.048 C 
HETATM   20  C   UNL     1     -42.078  54.120 -50.405  1.00  0.00     0.009 A 
ENDBRANCH   7  11
ENDBRANCH   1   3
BRANCH   1  21
HETATM   21  C   UNL     1     -45.854  61.192 -55.702  1.00  0.00     0.157 C 
HETATM   22  S   UNL     1     -46.646  61.008 -57.168  1.00  0.00    -0.047 SA
BRANCH  21  23
HETATM   23  N   UNL     1     -44.524  61.553 -55.745  1.00  0.00    -0.201 NA
HETATM   24  C   UNL     1     -43.589  60.784 -56.402  1.00  0.00     0.237 C 
HETATM   25  O   UNL     1     -43.211  61.048 -57.539  1.00  0.00    -0.274 OA
HETATM   26  H   UNL     1     -44.503  62.503 -56.102  1.00  0.00     0.139 HD
BRANCH  24  27
HETATM   27  C   UNL     1     -42.976  59.669 -55.647  1.00  0.00     0.026 A 
HETATM   28  C   UNL     1     -43.356  58.358 -55.950  1.00  0.00     0.019 A 
HETATM   29  C   UNL     1     -42.713  57.282 -55.327  1.00  0.00     0.038 A 
HETATM   30  C   UNL     1     -41.670  57.514 -54.430  1.00  0.00     0.068 A 
HETATM   31  C   UNL     1     -41.315  58.829 -54.109  1.00  0.00     0.038 A 
HETATM   32  C   UNL     1     -41.966  59.910 -54.712  1.00  0.00     0.019 A 
BRANCH  30  33
HETATM   33  O   UNL     1     -40.922  56.550 -53.810  1.00  0.00    -0.351 OA
BRANCH  33  34
HETATM   34  C   UNL     1     -40.528  55.434 -54.613  1.00  0.00     0.179 C 
BRANCH  34  35
HETATM   35  C   UNL     1     -41.044  54.140 -53.965  1.00  0.00     0.002 C 
HETATM   36  C   UNL     1     -42.484  53.868 -54.396  1.00  0.00     0.011 C 
HETATM   37  C   UNL     1     -40.153  52.948 -54.321  1.00  0.00     0.011 C 
ENDBRANCH  34  35
ENDBRANCH  33  34
ENDBRANCH  30  33
ENDBRANCH  24  27
ENDBRANCH  21  23
ENDBRANCH   1  21
TORSDOF 9
ENDMDL
MODEL 10
REMARK VINA RESULT:      -7.3      3.332      7.667
REMARK  9 active torsions:
REMARK  status: ('A' for Active; 'I' for Inactive)
REMARK    1  A    between atoms: C_7  and  C_8 
REMARK    2  A    between atoms: C_9  and  O_10 
REMARK    3  A    between atoms: C_13  and  N_14 
REMARK    4  A    between atoms: N_14  and  C_15 
REMARK    5  A    between atoms: C_15  and  N_16 
REMARK       I    between atoms: N_16  and  C_17 
REMARK    6  A    between atoms: C_17  and  C_18 
REMARK    7  A    between atoms: C_21  and  O_22 
REMARK    8  A    between atoms: O_22  and  C_23 
REMARK    9  A    between atoms: C_23  and  C_24 
ROOT
HETATM    1  N   UNL     1     -40.190  53.964 -52.642  1.00  0.00    -0.337 N 
HETATM    2  H   UNL     1     -39.409  53.785 -53.262  1.00  0.00     0.168 HD
ENDROOT
BRANCH   1   3
HETATM    3  C   UNL     1     -41.318  54.582 -53.228  1.00  0.00     0.035 A 
HETATM    4  C   UNL     1     -42.558  53.955 -53.091  1.00  0.00     0.032 A 
HETATM    5  C   UNL     1     -43.690  54.494 -53.704  1.00  0.00     0.040 A 
HETATM    6  C   UNL     1     -43.581  55.643 -54.485  1.00  0.00     0.080 A 
HETATM    7  C   UNL     1     -42.344  56.279 -54.665  1.00  0.00     0.052 A 
HETATM    8  C   UNL     1     -41.218  55.731 -54.023  1.00  0.00     0.048 A 
BRANCH   6   9
HETATM    9  O   UNL     1     -44.740  56.088 -55.068  1.00  0.00    -0.360 OA
HETATM   10  H   UNL     1     -44.589  56.173 -56.034  1.00  0.00     0.217 HD
ENDBRANCH   6   9
BRANCH   7  11
HETATM   11  C   UNL     1     -42.224  57.449 -55.530  1.00  0.00     0.183 A 
HETATM   12  N   UNL     1     -42.113  58.720 -55.171  1.00  0.00    -0.221 NA
HETATM   13  C   UNL     1     -42.080  59.390 -56.371  1.00  0.00     0.093 A 
HETATM   14  C   UNL     1     -42.156  58.486 -57.418  1.00  0.00     0.107 A 
HETATM   15  C   UNL     1     -41.997  60.756 -56.664  1.00  0.00     0.035 A 
HETATM   16  C   UNL     1     -42.147  58.828 -58.766  1.00  0.00     0.046 A 
HETATM   17  O   UNL     1     -42.248  57.236 -56.886  1.00  0.00    -0.289 OA
HETATM   18  C   UNL     1     -42.049  60.200 -59.055  1.00  0.00    -0.059 A 
HETATM   19  C   UNL     1     -42.070  60.664 -60.484  1.00  0.00     0.048 C 
HETATM   20  C   UNL     1     -41.990  61.146 -58.014  1.00  0.00     0.009 A 
ENDBRANCH   7  11
ENDBRANCH   1   3
BRANCH   1  21
HETATM   21  C   UNL     1     -40.079  53.444 -51.375  1.00  0.00     0.157 C 
HETATM   22  S   UNL     1     -40.119  51.820 -50.963  1.00  0.00    -0.047 SA
BRANCH  21  23
HETATM   23  N   UNL     1     -39.891  54.349 -50.352  1.00  0.00    -0.201 NA
HETATM   24  C   UNL     1     -40.951  54.855 -49.632  1.00  0.00     0.237 C 
HETATM   25  O   UNL     1     -41.272  54.401 -48.539  1.00  0.00    -0.274 OA
HETATM   26  H   UNL     1     -39.217  53.925 -49.723  1.00  0.00     0.139 HD
BRANCH  24  27
HETATM   27  C   UNL     1     -41.641  56.043 -50.184  1.00  0.00     0.026 A 
HETATM   28  C   UNL     1     -40.882  57.160 -50.542  1.00  0.00     0.019 A 
HETATM   29  C   UNL     1     -41.496  58.253 -51.166  1.00  0.00     0.038 A 
HETATM   30  C   UNL     1     -42.860  58.214 -51.461  1.00  0.00     0.068 A 
HETATM   31  C   UNL     1     -43.619  57.105 -51.072  1.00  0.00     0.038 A 
HETATM   32  C   UNL     1     -43.016  56.018 -50.432  1.00  0.00     0.019 A 
BRANCH  30  33
HETATM   33  O   UNL     1     -43.559  59.185 -52.125  1.00  0.00    -0.351 OA
BRANCH  33  34
HETATM   34  C   UNL     1     -44.769  58.773 -52.769  1.00  0.00     0.179 C 
BRANCH  34  35
HETATM   35  C   UNL     1     -45.615  60.014 -53.093  1.00  0.00     0.002 C 
HETATM   36  C   UNL     1     -45.389  61.099 -52.041  1.00  0.00     0.011 C 
HETATM   37  C   UNL     1     -45.294  60.556 -54.487  1.00  0.00     0.011 C 
ENDBRANCH  34  35
ENDBRANCH  33  34
ENDBRANCH  30  33
ENDBRANCH  24  27
ENDBRANCH  21  23
ENDBRANCH   1  21
TORSDOF 9
ENDMDL
