MODEL 1
REMARK VINA RESULT:      -9.1      0.000      0.000
REMARK  6 active torsions:
REMARK  status: ('A' for Active; 'I' for Inactive)
REMARK    1  A    between atoms: C_3  and  C_4 
REMARK       I    between atoms: C_4  and  N_5 
REMARK    2  A    between atoms: N_5  and  C_6 
REMARK    3  A    between atoms: C_6  and  C_7 
REMARK    4  A    between atoms: C_6  and  C_22 
REMARK       I    between atoms: C_7  and  N_8 
REMARK    5  A    between atoms: N_8  and  C_9 
REMARK    6  A    between atoms: C_11  and  C_12 
ROOT
HETATM    1  C   UNL     1     -43.134  55.657 -54.241  1.00  0.00     0.245 C 
HETATM    2  N   UNL     1     -42.515  56.674 -54.940  1.00  0.00    -0.325 N 
HETATM    3  O   UNL     1     -44.037  54.934 -54.661  1.00  0.00    -0.271 OA
HETATM    4  H   UNL     1     -41.910  57.281 -54.381  1.00  0.00     0.169 HD
ENDROOT
BRANCH   1   5
HETATM    5  C   UNL     1     -42.562  55.433 -52.814  1.00  0.00     0.180 C 
BRANCH   5   6
HETATM    6  N   UNL     1     -41.908  54.127 -52.698  1.00  0.00    -0.343 N 
HETATM    7  C   UNL     1     -40.776  53.763 -53.388  1.00  0.00     0.252 C 
HETATM    8  O   UNL     1     -40.175  54.529 -54.134  1.00  0.00    -0.268 OA
HETATM    9  H   UNL     1     -42.449  53.393 -52.259  1.00  0.00     0.163 HD
BRANCH   7  10
HETATM   10  C   UNL     1     -40.337  52.346 -53.243  1.00  0.00     0.037 A 
HETATM   11  C   UNL     1     -39.910  51.766 -52.029  1.00  0.00    -0.046 A 
HETATM   12  C   UNL     1     -39.783  52.529 -50.739  1.00  0.00     0.049 C 
HETATM   13  C   UNL     1     -39.578  50.398 -52.021  1.00  0.00     0.007 A 
HETATM   14  C   UNL     1     -39.618  49.639 -53.191  1.00  0.00     0.001 A 
HETATM   15  C   UNL     1     -39.992  50.230 -54.393  1.00  0.00     0.001 A 
HETATM   16  C   UNL     1     -40.350  51.577 -54.419  1.00  0.00     0.017 A 
ENDBRANCH   7  10
ENDBRANCH   5   6
BRANCH   5  17
HETATM   17  C   UNL     1     -43.578  55.730 -51.682  1.00  0.00     0.009 C 
HETATM   18  C   UNL     1     -43.239  54.937 -50.414  1.00  0.00     0.012 C 
HETATM   19  C   UNL     1     -43.615  57.225 -51.339  1.00  0.00     0.012 C 
ENDBRANCH   5  17
ENDBRANCH   1   5
BRANCH   2  20
HETATM   20  C   UNL     1     -42.643  57.003 -56.302  1.00  0.00     0.035 A 
HETATM   21  C   UNL     1     -43.263  56.185 -57.252  1.00  0.00     0.042 A 
HETATM   22  C   UNL     1     -43.330  56.557 -58.607  1.00  0.00    -0.021 A 
HETATM   23  C   UNL     1     -42.735  57.765 -58.995  1.00  0.00     0.012 A 
HETATM   24  C   UNL     1     -42.115  58.590 -58.056  1.00  0.00     0.003 A 
HETATM   25  C   UNL     1     -42.079  58.214 -56.714  1.00  0.00     0.029 A 
BRANCH  22  26
HETATM   26  C   UNL     1     -44.010  55.696 -59.571  1.00  0.00     0.010 A 
HETATM   27  C   UNL     1     -44.462  55.956 -60.890  1.00  0.00     0.152 A 
HETATM   28  N   UNL     1     -45.031  54.893 -61.469  1.00  0.00    -0.187 NA
HETATM   29  N   UNL     1     -44.942  53.944 -60.528  1.00  0.00    -0.289 N 
HETATM   30  H   UNL     1     -45.309  53.022 -60.739  1.00  0.00     0.188 HD
HETATM   31  C   UNL     1     -44.342  54.370 -59.377  1.00  0.00     0.123 A 
ENDBRANCH  22  26
ENDBRANCH   2  20
TORSDOF 6
ENDMDL
MODEL 2
REMARK VINA RESULT:      -8.9      1.888      2.800
REMARK  6 active torsions:
REMARK  status: ('A' for Active; 'I' for Inactive)
REMARK    1  A    between atoms: C_3  and  C_4 
REMARK       I    between atoms: C_4  and  N_5 
REMARK    2  A    between atoms: N_5  and  C_6 
REMARK    3  A    between atoms: C_6  and  C_7 
REMARK    4  A    between atoms: C_6  and  C_22 
REMARK       I    between atoms: C_7  and  N_8 
REMARK    5  A    between atoms: N_8  and  C_9 
REMARK    6  A    between atoms: C_11  and  C_12 
ROOT
HETATM    1  C   UNL     1     -41.599  56.446 -52.576  1.00  0.00     0.245 C 
HETATM    2  N   UNL     1     -42.324  55.854 -53.591  1.00  0.00    -0.325 N 
HETATM    3  O   UNL     1     -41.296  57.636 -52.502  1.00  0.00    -0.271 OA
HETATM    4  H   UNL     1     -42.334  54.831 -53.580  1.00  0.00     0.169 HD
ENDROOT
BRANCH   1   5
HETATM    5  C   UNL     1     -41.197  55.470 -51.437  1.00  0.00     0.180 C 
BRANCH   5   6
HETATM    6  N   UNL     1     -41.011  54.106 -51.940  1.00  0.00    -0.343 N 
HETATM    7  C   UNL     1     -39.976  53.279 -51.573  1.00  0.00     0.252 C 
HETATM    8  O   UNL     1     -39.134  53.595 -50.740  1.00  0.00    -0.268 OA
HETATM    9  H   UNL     1     -41.546  53.856 -52.761  1.00  0.00     0.163 HD
BRANCH   7  10
HETATM   10  C   UNL     1     -39.878  51.978 -52.295  1.00  0.00     0.037 A 
HETATM   11  C   UNL     1     -39.967  51.837 -53.696  1.00  0.00    -0.046 A 
HETATM   12  C   UNL     1     -40.238  52.982 -54.634  1.00  0.00     0.049 C 
HETATM   13  C   UNL     1     -39.798  50.556 -54.253  1.00  0.00     0.007 A 
HETATM   14  C   UNL     1     -39.600  49.438 -53.442  1.00  0.00     0.001 A 
HETATM   15  C   UNL     1     -39.563  49.578 -52.059  1.00  0.00     0.001 A 
HETATM   16  C   UNL     1     -39.701  50.842 -51.488  1.00  0.00     0.017 A 
ENDBRANCH   7  10
ENDBRANCH   5   6
BRANCH   5  17
HETATM   17  C   UNL     1     -42.109  55.560 -50.187  1.00  0.00     0.009 C 
HETATM   18  C   UNL     1     -43.323  54.632 -50.323  1.00  0.00     0.012 C 
HETATM   19  C   UNL     1     -41.346  55.195 -48.907  1.00  0.00     0.012 C 
ENDBRANCH   5  17
ENDBRANCH   1   5
BRANCH   2  20
HETATM   20  C   UNL     1     -43.008  56.473 -54.654  1.00  0.00     0.035 A 
HETATM   21  C   UNL     1     -42.544  56.505 -55.974  1.00  0.00     0.042 A 
HETATM   22  C   UNL     1     -43.261  57.169 -56.986  1.00  0.00    -0.021 A 
HETATM   23  C   UNL     1     -44.449  57.826 -56.638  1.00  0.00     0.012 A 
HETATM   24  C   UNL     1     -44.922  57.799 -55.325  1.00  0.00     0.003 A 
HETATM   25  C   UNL     1     -44.208  57.116 -54.341  1.00  0.00     0.029 A 
BRANCH  22  26
HETATM   26  C   UNL     1     -42.766  57.160 -58.360  1.00  0.00     0.010 A 
HETATM   27  C   UNL     1     -43.053  56.290 -59.443  1.00  0.00     0.152 A 
HETATM   28  N   UNL     1     -42.408  56.621 -60.566  1.00  0.00    -0.187 NA
HETATM   29  N   UNL     1     -41.709  57.708 -60.213  1.00  0.00    -0.289 N 
HETATM   30  H   UNL     1     -41.132  58.157 -60.916  1.00  0.00     0.188 HD
HETATM   31  C   UNL     1     -41.887  58.071 -58.909  1.00  0.00     0.123 A 
ENDBRANCH  22  26
ENDBRANCH   2  20
TORSDOF 6
ENDMDL
MODEL 3
REMARK VINA RESULT:      -8.7      2.374      7.814
REMARK  6 active torsions:
REMARK  status: ('A' for Active; 'I' for Inactive)
REMARK    1  A    between atoms: C_3  and  C_4 
REMARK       I    between atoms: C_4  and  N_5 
REMARK    2  A    between atoms: N_5  and  C_6 
REMARK    3  A    between atoms: C_6  and  C_7 
REMARK    4  A    between atoms: C_6  and  C_22 
REMARK       I    between atoms: C_7  and  N_8 
REMARK    5  A    between atoms: N_8  and  C_9 
REMARK    6  A    between atoms: C_11  and  C_12 
ROOT
HETATM    1  C   UNL     1     -42.536  56.011 -53.195  1.00  0.00     0.245 C 
HETATM    2  N   UNL     1     -41.294  55.783 -52.635  1.00  0.00    -0.325 N 
HETATM    3  O   UNL     1     -43.481  55.224 -53.204  1.00  0.00    -0.271 OA
HETATM    4  H   UNL     1     -40.577  56.474 -52.869  1.00  0.00     0.169 HD
ENDROOT
BRANCH   1   5
HETATM    5  C   UNL     1     -42.696  57.424 -53.819  1.00  0.00     0.180 C 
BRANCH   5   6
HETATM    6  N   UNL     1     -42.421  57.409 -55.258  1.00  0.00    -0.343 N 
HETATM    7  C   UNL     1     -43.386  57.513 -56.233  1.00  0.00     0.252 C 
HETATM    8  O   UNL     1     -44.573  57.684 -55.979  1.00  0.00    -0.268 OA
HETATM    9  H   UNL     1     -41.505  57.081 -55.535  1.00  0.00     0.163 HD
BRANCH   7  10
HETATM   10  C   UNL     1     -42.928  57.339 -57.641  1.00  0.00     0.037 A 
HETATM   11  C   UNL     1     -42.217  58.314 -58.372  1.00  0.00    -0.046 A 
HETATM   12  C   UNL     1     -41.888  59.682 -57.839  1.00  0.00     0.049 C 
HETATM   13  C   UNL     1     -41.794  57.997 -59.676  1.00  0.00     0.007 A 
HETATM   14  C   UNL     1     -42.110  56.768 -60.258  1.00  0.00     0.001 A 
HETATM   15  C   UNL     1     -42.854  55.832 -59.548  1.00  0.00     0.001 A 
HETATM   16  C   UNL     1     -43.261  56.116 -58.246  1.00  0.00     0.017 A 
ENDBRANCH   7  10
ENDBRANCH   5   6
BRANCH   5  17
HETATM   17  C   UNL     1     -41.940  58.536 -53.047  1.00  0.00     0.009 C 
HETATM   18  C   UNL     1     -41.620  59.724 -53.963  1.00  0.00     0.012 C 
HETATM   19  C   UNL     1     -42.753  59.038 -51.846  1.00  0.00     0.012 C 
ENDBRANCH   5  17
ENDBRANCH   1   5
BRANCH   2  20
HETATM   20  C   UNL     1     -40.885  54.709 -51.822  1.00  0.00     0.035 A 
HETATM   21  C   UNL     1     -40.577  53.433 -52.306  1.00  0.00     0.042 A 
HETATM   22  C   UNL     1     -40.204  52.391 -51.437  1.00  0.00    -0.021 A 
HETATM   23  C   UNL     1     -40.170  52.653 -50.060  1.00  0.00     0.012 A 
HETATM   24  C   UNL     1     -40.474  53.923 -49.567  1.00  0.00     0.003 A 
HETATM   25  C   UNL     1     -40.819  54.948 -50.447  1.00  0.00     0.029 A 
BRANCH  22  26
HETATM   26  C   UNL     1     -39.860  51.077 -51.974  1.00  0.00     0.010 A 
HETATM   27  C   UNL     1     -39.757  50.621 -53.313  1.00  0.00     0.152 A 
HETATM   28  N   UNL     1     -39.396  49.337 -53.403  1.00  0.00    -0.187 NA
HETATM   29  N   UNL     1     -39.259  48.964 -52.124  1.00  0.00    -0.289 N 
HETATM   30  H   UNL     1     -38.977  48.008 -51.930  1.00  0.00     0.188 HD
HETATM   31  C   UNL     1     -39.524  49.963 -51.232  1.00  0.00     0.123 A 
ENDBRANCH  22  26
ENDBRANCH   2  20
TORSDOF 6
ENDMDL
MODEL 4
REMARK VINA RESULT:      -8.5      1.437      2.183
REMARK  6 active torsions:
REMARK  status: ('A' for Active; 'I' for Inactive)
REMARK    1  A    between atoms: C_3  and  C_4 
REMARK       I    between atoms: C_4  and  N_5 
REMARK    2  A    between atoms: N_5  and  C_6 
REMARK    3  A    between atoms: C_6  and  C_7 
REMARK    4  A    between atoms: C_6  and  C_22 
REMARK       I    between atoms: C_7  and  N_8 
REMARK    5  A    between atoms: N_8  and  C_9 
REMARK    6  A    between atoms: C_11  and  C_12 
ROOT
HETATM    1  C   UNL     1     -43.761  57.760 -54.360  1.00  0.00     0.245 C 
HETATM    2  N   UNL     1     -42.729  57.637 -55.270  1.00  0.00    -0.325 N 
HETATM    3  O   UNL     1     -44.909  58.120 -54.612  1.00  0.00    -0.271 OA
HETATM    4  H   UNL     1     -41.802  57.494 -54.861  1.00  0.00     0.169 HD
ENDROOT
BRANCH   1   5
HETATM    5  C   UNL     1     -43.376  57.353 -52.911  1.00  0.00     0.180 C 
BRANCH   5   6
HETATM    6  N   UNL     1     -42.722  56.041 -52.880  1.00  0.00    -0.343 N 
HETATM    7  C   UNL     1     -41.387  55.847 -52.612  1.00  0.00     0.252 C 
HETATM    8  O   UNL     1     -40.626  56.764 -52.321  1.00  0.00    -0.268 OA
HETATM    9  H   UNL     1     -43.235  55.275 -53.294  1.00  0.00     0.163 HD
BRANCH   7  10
HETATM   10  C   UNL     1     -40.876  54.455 -52.759  1.00  0.00     0.037 A 
HETATM   11  C   UNL     1     -40.675  53.808 -53.997  1.00  0.00    -0.046 A 
HETATM   12  C   UNL     1     -41.015  54.426 -55.326  1.00  0.00     0.049 C 
HETATM   13  C   UNL     1     -40.131  52.511 -53.995  1.00  0.00     0.007 A 
HETATM   14  C   UNL     1     -39.842  51.852 -52.799  1.00  0.00     0.001 A 
HETATM   15  C   UNL     1     -40.089  52.478 -51.581  1.00  0.00     0.001 A 
HETATM   16  C   UNL     1     -40.603  53.773 -51.561  1.00  0.00     0.017 A 
ENDBRANCH   7  10
ENDBRANCH   5   6
BRANCH   5  17
HETATM   17  C   UNL     1     -44.535  57.502 -51.893  1.00  0.00     0.009 C 
HETATM   18  C   UNL     1     -44.440  56.441 -50.790  1.00  0.00     0.012 C 
HETATM   19  C   UNL     1     -44.539  58.893 -51.247  1.00  0.00     0.012 C 
ENDBRANCH   5  17
ENDBRANCH   1   5
BRANCH   2  20
HETATM   20  C   UNL     1     -42.785  57.724 -56.673  1.00  0.00     0.035 A 
HETATM   21  C   UNL     1     -43.375  56.759 -57.496  1.00  0.00     0.042 A 
HETATM   22  C   UNL     1     -43.370  56.888 -58.897  1.00  0.00    -0.021 A 
HETATM   23  C   UNL     1     -42.734  58.004 -59.459  1.00  0.00     0.012 A 
HETATM   24  C   UNL     1     -42.143  58.973 -58.648  1.00  0.00     0.003 A 
HETATM   25  C   UNL     1     -42.179  58.837 -57.261  1.00  0.00     0.029 A 
BRANCH  22  26
HETATM   26  C   UNL     1     -44.020  55.879 -59.729  1.00  0.00     0.010 A 
HETATM   27  C   UNL     1     -44.599  55.974 -61.021  1.00  0.00     0.152 A 
HETATM   28  N   UNL     1     -45.086  54.811 -61.464  1.00  0.00    -0.187 NA
HETATM   29  N   UNL     1     -44.819  53.962 -60.463  1.00  0.00    -0.289 N 
HETATM   30  H   UNL     1     -45.095  52.992 -60.570  1.00  0.00     0.188 HD
HETATM   31  C   UNL     1     -44.185  54.548 -59.405  1.00  0.00     0.123 A 
ENDBRANCH  22  26
ENDBRANCH   2  20
TORSDOF 6
ENDMDL
MODEL 5
REMARK VINA RESULT:      -8.2      2.155      2.482
REMARK  6 active torsions:
REMARK  status: ('A' for Active; 'I' for Inactive)
REMARK    1  A    between atoms: C_3  and  C_4 
REMARK       I    between atoms: C_4  and  N_5 
REMARK    2  A    between atoms: N_5  and  C_6 
REMARK    3  A    between atoms: C_6  and  C_7 
REMARK    4  A    between atoms: C_6  and  C_22 
REMARK       I    between atoms: C_7  and  N_8 
REMARK    5  A    between atoms: N_8  and  C_9 
REMARK    6  A    between atoms: C_11  and  C_12 
ROOT
HETATM    1  C   UNL     1     -43.087  55.323 -55.132  1.00  0.00     0.245 C 
HETATM    2  N   UNL     1     -43.101  56.463 -55.911  1.00  0.00    -0.325 N 
HETATM    3  O   UNL     1     -43.606  54.244 -55.417  1.00  0.00    -0.271 OA
HETATM    4  H   UNL     1     -42.773  57.312 -55.445  1.00  0.00     0.169 HD
ENDROOT
BRANCH   1   5
HETATM    5  C   UNL     1     -42.294  55.475 -53.805  1.00  0.00     0.180 C 
BRANCH   5   6
HETATM    6  N   UNL     1     -41.710  54.199 -53.381  1.00  0.00    -0.343 N 
HETATM    7  C   UNL     1     -40.562  53.658 -53.911  1.00  0.00     0.252 C 
HETATM    8  O   UNL     1     -39.888  54.228 -54.761  1.00  0.00    -0.268 OA
HETATM    9  H   UNL     1     -42.307  53.594 -52.834  1.00  0.00     0.163 HD
BRANCH   7  10
HETATM   10  C   UNL     1     -40.200  52.288 -53.448  1.00  0.00     0.037 A 
HETATM   11  C   UNL     1     -39.826  51.968 -52.126  1.00  0.00    -0.046 A 
HETATM   12  C   UNL     1     -39.684  52.988 -51.029  1.00  0.00     0.049 C 
HETATM   13  C   UNL     1     -39.566  50.622 -51.810  1.00  0.00     0.007 A 
HETATM   14  C   UNL     1     -39.623  49.628 -52.788  1.00  0.00     0.001 A 
HETATM   15  C   UNL     1     -39.944  49.959 -54.100  1.00  0.00     0.001 A 
HETATM   16  C   UNL     1     -40.232  51.282 -54.429  1.00  0.00     0.017 A 
ENDBRANCH   7  10
ENDBRANCH   5   6
BRANCH   5  17
HETATM   17  C   UNL     1     -43.080  56.208 -52.689  1.00  0.00     0.009 C 
HETATM   18  C   UNL     1     -43.258  55.311 -51.458  1.00  0.00     0.012 C 
HETATM   19  C   UNL     1     -42.375  57.503 -52.264  1.00  0.00     0.012 C 
ENDBRANCH   5  17
ENDBRANCH   1   5
BRANCH   2  20
HETATM   20  C   UNL     1     -43.544  56.610 -57.239  1.00  0.00     0.035 A 
HETATM   21  C   UNL     1     -44.619  57.419 -57.622  1.00  0.00     0.042 A 
HETATM   22  C   UNL     1     -45.034  57.498 -58.964  1.00  0.00    -0.021 A 
HETATM   23  C   UNL     1     -44.357  56.724 -59.916  1.00  0.00     0.012 A 
HETATM   24  C   UNL     1     -43.282  55.915 -59.545  1.00  0.00     0.003 A 
HETATM   25  C   UNL     1     -42.872  55.868 -58.213  1.00  0.00     0.029 A 
BRANCH  22  26
HETATM   26  C   UNL     1     -46.141  58.374 -59.338  1.00  0.00     0.010 A 
HETATM   27  C   UNL     1     -46.657  58.724 -60.613  1.00  0.00     0.152 A 
HETATM   28  N   UNL     1     -47.705  59.551 -60.545  1.00  0.00    -0.187 NA
HETATM   29  N   UNL     1     -47.872  59.732 -59.228  1.00  0.00    -0.289 N 
HETATM   30  H   UNL     1     -48.629  60.331 -58.918  1.00  0.00     0.188 HD
HETATM   31  C   UNL     1     -46.966  59.053 -58.465  1.00  0.00     0.123 A 
ENDBRANCH  22  26
ENDBRANCH   2  20
TORSDOF 6
ENDMDL
MODEL 6
REMARK VINA RESULT:      -8.2      2.526      8.343
REMARK  6 active torsions:
REMARK  status: ('A' for Active; 'I' for Inactive)
REMARK    1  A    between atoms: C_3  and  C_4 
REMARK       I    between atoms: C_4  and  N_5 
REMARK    2  A    between atoms: N_5  and  C_6 
REMARK    3  A    between atoms: C_6  and  C_7 
REMARK    4  A    between atoms: C_6  and  C_22 
REMARK       I    between atoms: C_7  and  N_8 
REMARK    5  A    between atoms: N_8  and  C_9 
REMARK    6  A    between atoms: C_11  and  C_12 
ROOT
HETATM    1  C   UNL     1     -42.614  55.095 -56.176  1.00  0.00     0.245 C 
HETATM    2  N   UNL     1     -41.474  55.190 -55.402  1.00  0.00    -0.325 N 
HETATM    3  O   UNL     1     -43.385  54.137 -56.214  1.00  0.00    -0.271 OA
HETATM    4  H   UNL     1     -40.863  55.980 -55.623  1.00  0.00     0.169 HD
ENDROOT
BRANCH   1   5
HETATM    5  C   UNL     1     -42.911  56.364 -57.020  1.00  0.00     0.180 C 
BRANCH   5   6
HETATM    6  N   UNL     1     -43.684  57.347 -56.255  1.00  0.00    -0.343 N 
HETATM    7  C   UNL     1     -43.137  58.230 -55.353  1.00  0.00     0.252 C 
HETATM    8  O   UNL     1     -41.931  58.309 -55.145  1.00  0.00    -0.268 OA
HETATM    9  H   UNL     1     -44.685  57.209 -56.231  1.00  0.00     0.163 HD
BRANCH   7  10
HETATM   10  C   UNL     1     -44.098  59.060 -54.571  1.00  0.00     0.037 A 
HETATM   11  C   UNL     1     -44.571  58.728 -53.284  1.00  0.00    -0.046 A 
HETATM   12  C   UNL     1     -44.212  57.457 -52.565  1.00  0.00     0.049 C 
HETATM   13  C   UNL     1     -45.431  59.632 -52.633  1.00  0.00     0.007 A 
HETATM   14  C   UNL     1     -45.852  60.806 -53.260  1.00  0.00     0.001 A 
HETATM   15  C   UNL     1     -45.420  61.101 -54.548  1.00  0.00     0.001 A 
HETATM   16  C   UNL     1     -44.547  60.233 -55.201  1.00  0.00     0.017 A 
ENDBRANCH   7  10
ENDBRANCH   5   6
BRANCH   5  17
HETATM   17  C   UNL     1     -43.498  56.058 -58.421  1.00  0.00     0.009 C 
HETATM   18  C   UNL     1     -44.625  57.036 -58.774  1.00  0.00     0.012 C 
HETATM   19  C   UNL     1     -42.418  56.130 -59.509  1.00  0.00     0.012 C 
ENDBRANCH   5  17
ENDBRANCH   1   5
BRANCH   2  20
HETATM   20  C   UNL     1     -41.031  54.323 -54.386  1.00  0.00     0.035 A 
HETATM   21  C   UNL     1     -41.103  54.614 -53.020  1.00  0.00     0.042 A 
HETATM   22  C   UNL     1     -40.612  53.717 -52.053  1.00  0.00    -0.021 A 
HETATM   23  C   UNL     1     -40.022  52.524 -52.492  1.00  0.00     0.012 A 
HETATM   24  C   UNL     1     -39.946  52.223 -53.852  1.00  0.00     0.003 A 
HETATM   25  C   UNL     1     -40.459  53.115 -54.793  1.00  0.00     0.029 A 
BRANCH  22  26
HETATM   26  C   UNL     1     -40.728  54.036 -50.633  1.00  0.00     0.010 A 
HETATM   27  C   UNL     1     -41.217  55.196 -49.979  1.00  0.00     0.152 A 
HETATM   28  N   UNL     1     -41.177  55.104 -48.646  1.00  0.00    -0.187 NA
HETATM   29  N   UNL     1     -40.669  53.882 -48.436  1.00  0.00    -0.289 N 
HETATM   30  H   UNL     1     -40.546  53.572 -47.478  1.00  0.00     0.188 HD
HETATM   31  C   UNL     1     -40.384  53.204 -49.586  1.00  0.00     0.123 A 
ENDBRANCH  22  26
ENDBRANCH   2  20
TORSDOF 6
ENDMDL
MODEL 7
REMARK VINA RESULT:      -8.2      3.103      8.058
REMARK  6 active torsions:
REMARK  status: ('A' for Active; 'I' for Inactive)
REMARK    1  A    between atoms: C_3  and  C_4 
REMARK       I    between atoms: C_4  and  N_5 
REMARK    2  A    between atoms: N_5  and  C_6 
REMARK    3  A    between atoms: C_6  and  C_7 
REMARK    4  A    between atoms: C_6  and  C_22 
REMARK       I    between atoms: C_7  and  N_8 
REMARK    5  A    between atoms: N_8  and  C_9 
REMARK    6  A    between atoms: C_11  and  C_12 
ROOT
HETATM    1  C   UNL     1     -42.460  56.544 -54.732  1.00  0.00     0.245 C 
HETATM    2  N   UNL     1     -41.248  56.169 -54.187  1.00  0.00    -0.325 N 
HETATM    3  O   UNL     1     -43.518  55.922 -54.642  1.00  0.00    -0.271 OA
HETATM    4  H   UNL     1     -40.441  56.710 -54.505  1.00  0.00     0.169 HD
ENDROOT
BRANCH   1   5
HETATM    5  C   UNL     1     -42.420  57.903 -55.482  1.00  0.00     0.180 C 
BRANCH   5   6
HETATM    6  N   UNL     1     -42.737  59.019 -54.585  1.00  0.00    -0.343 N 
HETATM    7  C   UNL     1     -41.824  59.635 -53.762  1.00  0.00     0.252 C 
HETATM    8  O   UNL     1     -40.636  59.335 -53.743  1.00  0.00    -0.268 OA
HETATM    9  H   UNL     1     -43.719  59.185 -54.408  1.00  0.00     0.163 HD
BRANCH   7  10
HETATM   10  C   UNL     1     -42.363  60.659 -52.823  1.00  0.00     0.037 A 
HETATM   11  C   UNL     1     -42.337  60.542 -51.417  1.00  0.00    -0.046 A 
HETATM   12  C   UNL     1     -41.817  59.331 -50.690  1.00  0.00     0.049 C 
HETATM   13  C   UNL     1     -42.828  61.612 -50.646  1.00  0.00     0.007 A 
HETATM   14  C   UNL     1     -43.376  62.744 -51.250  1.00  0.00     0.001 A 
HETATM   15  C   UNL     1     -43.444  62.830 -52.636  1.00  0.00     0.001 A 
HETATM   16  C   UNL     1     -42.939  61.794 -53.419  1.00  0.00     0.017 A 
ENDBRANCH   7  10
ENDBRANCH   5   6
BRANCH   5  17
HETATM   17  C   UNL     1     -43.229  57.910 -56.804  1.00  0.00     0.009 C 
HETATM   18  C   UNL     1     -44.176  59.115 -56.865  1.00  0.00     0.012 C 
HETATM   19  C   UNL     1     -42.305  57.941 -58.028  1.00  0.00     0.012 C 
ENDBRANCH   5  17
ENDBRANCH   1   5
BRANCH   2  20
HETATM   20  C   UNL     1     -40.980  55.119 -53.289  1.00  0.00     0.035 A 
HETATM   21  C   UNL     1     -40.644  53.818 -53.680  1.00  0.00     0.042 A 
HETATM   22  C   UNL     1     -40.420  52.803 -52.731  1.00  0.00    -0.021 A 
HETATM   23  C   UNL     1     -40.564  53.118 -51.373  1.00  0.00     0.012 A 
HETATM   24  C   UNL     1     -40.897  54.413 -50.972  1.00  0.00     0.003 A 
HETATM   25  C   UNL     1     -41.094  55.409 -51.927  1.00  0.00     0.029 A 
BRANCH  22  26
HETATM   26  C   UNL     1     -40.042  51.462 -53.169  1.00  0.00     0.010 A 
HETATM   27  C   UNL     1     -39.612  50.331 -52.428  1.00  0.00     0.152 A 
HETATM   28  N   UNL     1     -39.372  49.263 -53.194  1.00  0.00    -0.187 NA
HETATM   29  N   UNL     1     -39.652  49.698 -54.430  1.00  0.00    -0.289 N 
HETATM   30  H   UNL     1     -39.549  49.049 -55.203  1.00  0.00     0.188 HD
HETATM   31  C   UNL     1     -40.055  51.002 -54.470  1.00  0.00     0.123 A 
ENDBRANCH  22  26
ENDBRANCH   2  20
TORSDOF 6
ENDMDL
MODEL 8
REMARK VINA RESULT:      -8.1      2.809      7.404
REMARK  6 active torsions:
REMARK  status: ('A' for Active; 'I' for Inactive)
REMARK    1  A    between atoms: C_3  and  C_4 
REMARK       I    between atoms: C_4  and  N_5 
REMARK    2  A    between atoms: N_5  and  C_6 
REMARK    3  A    between atoms: C_6  and  C_7 
REMARK    4  A    between atoms: C_6  and  C_22 
REMARK       I    between atoms: C_7  and  N_8 
REMARK    5  A    between atoms: N_8  and  C_9 
REMARK    6  A    between atoms: C_11  and  C_12 
ROOT
HETATM    1  C   UNL     1     -41.509  58.000 -52.538  1.00  0.00     0.245 C 
HETATM    2  N   UNL     1     -42.021  56.855 -51.960  1.00  0.00    -0.325 N 
HETATM    3  O   UNL     1     -40.320  58.311 -52.599  1.00  0.00    -0.271 OA
HETATM    4  H   UNL     1     -43.037  56.841 -51.846  1.00  0.00     0.169 HD
ENDROOT
BRANCH   1   5
HETATM    5  C   UNL     1     -42.585  58.915 -53.184  1.00  0.00     0.180 C 
BRANCH   5   6
HETATM    6  N   UNL     1     -42.849  58.532 -54.574  1.00  0.00    -0.343 N 
HETATM    7  C   UNL     1     -43.724  57.541 -54.952  1.00  0.00     0.252 C 
HETATM    8  O   UNL     1     -44.410  56.916 -54.150  1.00  0.00    -0.268 OA
HETATM    9  H   UNL     1     -42.187  58.864 -55.263  1.00  0.00     0.163 HD
BRANCH   7  10
HETATM   10  C   UNL     1     -43.757  57.202 -56.403  1.00  0.00     0.037 A 
HETATM   11  C   UNL     1     -43.143  56.064 -56.968  1.00  0.00    -0.046 A 
HETATM   12  C   UNL     1     -42.320  55.081 -56.180  1.00  0.00     0.049 C 
HETATM   13  C   UNL     1     -43.302  55.832 -58.347  1.00  0.00     0.007 A 
HETATM   14  C   UNL     1     -44.005  56.729 -59.153  1.00  0.00     0.001 A 
HETATM   15  C   UNL     1     -44.565  57.874 -58.596  1.00  0.00     0.001 A 
HETATM   16  C   UNL     1     -44.442  58.110 -57.228  1.00  0.00     0.017 A 
ENDBRANCH   7  10
ENDBRANCH   5   6
BRANCH   5  17
HETATM   17  C   UNL     1     -42.314  60.428 -52.991  1.00  0.00     0.009 C 
HETATM   18  C   UNL     1     -43.219  61.272 -53.897  1.00  0.00     0.012 C 
HETATM   19  C   UNL     1     -42.532  60.856 -51.533  1.00  0.00     0.012 C 
ENDBRANCH   5  17
ENDBRANCH   1   5
BRANCH   2  20
HETATM   20  C   UNL     1     -41.323  55.732 -51.476  1.00  0.00     0.035 A 
HETATM   21  C   UNL     1     -41.052  54.589 -52.237  1.00  0.00     0.042 A 
HETATM   22  C   UNL     1     -40.377  53.485 -51.683  1.00  0.00    -0.021 A 
HETATM   23  C   UNL     1     -40.000  53.544 -50.335  1.00  0.00     0.012 A 
HETATM   24  C   UNL     1     -40.264  54.679 -49.568  1.00  0.00     0.003 A 
HETATM   25  C   UNL     1     -40.914  55.771 -50.141  1.00  0.00     0.029 A 
BRANCH  22  26
HETATM   26  C   UNL     1     -40.082  52.318 -52.510  1.00  0.00     0.010 A 
HETATM   27  C   UNL     1     -39.557  51.046 -52.165  1.00  0.00     0.152 A 
HETATM   28  N   UNL     1     -39.445  50.223 -53.213  1.00  0.00    -0.187 NA
HETATM   29  N   UNL     1     -39.903  50.959 -54.234  1.00  0.00    -0.289 N 
HETATM   30  H   UNL     1     -39.924  50.538 -55.158  1.00  0.00     0.188 HD
HETATM   31  C   UNL     1     -40.295  52.215 -53.870  1.00  0.00     0.123 A 
ENDBRANCH  22  26
ENDBRANCH   2  20
TORSDOF 6
ENDMDL
MODEL 9
REMARK VINA RESULT:      -8.1      3.020      8.546
REMARK  6 active torsions:
REMARK  status: ('A' for Active; 'I' for Inactive)
REMARK    1  A    between atoms: C_3  and  C_4 
REMARK       I    between atoms: C_4  and  N_5 
REMARK    2  A    between atoms: N_5  and  C_6 
REMARK    3  A    between atoms: C_6  and  C_7 
REMARK    4  A    between atoms: C_6  and  C_22 
REMARK       I    between atoms: C_7  and  N_8 
REMARK    5  A    between atoms: N_8  and  C_9 
REMARK    6  A    between atoms: C_11  and  C_12 
ROOT
HETATM    1  C   UNL     1     -42.500  56.644 -55.196  1.00  0.00     0.245 C 
HETATM    2  N   UNL     1     -41.269  56.188 -54.766  1.00  0.00    -0.325 N 
HETATM    3  O   UNL     1     -43.574  56.057 -55.070  1.00  0.00    -0.271 OA
HETATM    4  H   UNL     1     -40.465  56.720 -55.106  1.00  0.00     0.169 HD
ENDROOT
BRANCH   1   5
HETATM    5  C   UNL     1     -42.456  58.049 -55.856  1.00  0.00     0.180 C 
BRANCH   5   6
HETATM    6  N   UNL     1     -42.777  59.104 -54.891  1.00  0.00    -0.343 N 
HETATM    7  C   UNL     1     -41.877  59.634 -53.995  1.00  0.00     0.252 C 
HETATM    8  O   UNL     1     -40.697  59.302 -53.961  1.00  0.00    -0.268 OA
HETATM    9  H   UNL     1     -43.759  59.283 -54.733  1.00  0.00     0.163 HD
BRANCH   7  10
HETATM   10  C   UNL     1     -42.423  60.601 -53.001  1.00  0.00     0.037 A 
HETATM   11  C   UNL     1     -42.396  60.406 -51.604  1.00  0.00    -0.046 A 
HETATM   12  C   UNL     1     -41.869  59.160 -50.945  1.00  0.00     0.049 C 
HETATM   13  C   UNL     1     -42.894  61.428 -50.774  1.00  0.00     0.007 A 
HETATM   14  C   UNL     1     -43.449  62.589 -51.315  1.00  0.00     0.001 A 
HETATM   15  C   UNL     1     -43.517  62.752 -52.694  1.00  0.00     0.001 A 
HETATM   16  C   UNL     1     -43.005  61.763 -53.534  1.00  0.00     0.017 A 
ENDBRANCH   7  10
ENDBRANCH   5   6
BRANCH   5  17
HETATM   17  C   UNL     1     -43.260  58.142 -57.178  1.00  0.00     0.009 C 
HETATM   18  C   UNL     1     -44.260  59.304 -57.135  1.00  0.00     0.012 C 
HETATM   19  C   UNL     1     -42.333  58.327 -58.387  1.00  0.00     0.012 C 
ENDBRANCH   5  17
ENDBRANCH   1   5
BRANCH   2  20
HETATM   20  C   UNL     1     -40.983  55.070 -53.960  1.00  0.00     0.035 A 
HETATM   21  C   UNL     1     -40.982  55.090 -52.561  1.00  0.00     0.042 A 
HETATM   22  C   UNL     1     -40.655  53.945 -51.813  1.00  0.00    -0.021 A 
HETATM   23  C   UNL     1     -40.304  52.777 -52.503  1.00  0.00     0.012 A 
HETATM   24  C   UNL     1     -40.303  52.745 -53.898  1.00  0.00     0.003 A 
HETATM   25  C   UNL     1     -40.651  53.884 -54.621  1.00  0.00     0.029 A 
BRANCH  22  26
HETATM   26  C   UNL     1     -40.692  53.989 -50.353  1.00  0.00     0.010 A 
HETATM   27  C   UNL     1     -41.001  55.052 -49.465  1.00  0.00     0.152 A 
HETATM   28  N   UNL     1     -40.942  54.693 -48.179  1.00  0.00    -0.187 NA
HETATM   29  N   UNL     1     -40.601  53.399 -48.233  1.00  0.00    -0.289 N 
HETATM   30  H   UNL     1     -40.499  52.892 -47.360  1.00  0.00     0.188 HD
HETATM   31  C   UNL     1     -40.439  52.930 -49.505  1.00  0.00     0.123 A 
ENDBRANCH  22  26
ENDBRANCH   2  20
TORSDOF 6
ENDMDL
MODEL 10
REMARK VINA RESULT:      -8.0      2.168      3.090
REMARK  6 active torsions:
REMARK  status: ('A' for Active; 'I' for Inactive)
REMARK    1  A    between atoms: C_3  and  C_4 
REMARK       I    between atoms: C_4  and  N_5 
REMARK    2  A    between atoms: N_5  and  C_6 
REMARK    3  A    between atoms: C_6  and  C_7 
REMARK    4  A    between atoms: C_6  and  C_22 
REMARK       I    between atoms: C_7  and  N_8 
REMARK    5  A    between atoms: N_8  and  C_9 
REMARK    6  A    between atoms: C_11  and  C_12 
ROOT
HETATM    1  C   UNL     1     -44.197  57.187 -54.721  1.00  0.00     0.245 C 
HETATM    2  N   UNL     1     -43.322  57.166 -55.790  1.00  0.00    -0.325 N 
HETATM    3  O   UNL     1     -45.424  57.133 -54.789  1.00  0.00    -0.271 OA
HETATM    4  H   UNL     1     -42.351  57.393 -55.562  1.00  0.00     0.169 HD
ENDROOT
BRANCH   1   5
HETATM    5  C   UNL     1     -43.498  57.247 -53.335  1.00  0.00     0.180 C 
BRANCH   5   6
HETATM    6  N   UNL     1     -42.788  56.000 -53.040  1.00  0.00    -0.343 N 
HETATM    7  C   UNL     1     -41.418  55.875 -53.016  1.00  0.00     0.252 C 
HETATM    8  O   UNL     1     -40.660  56.822 -53.191  1.00  0.00    -0.268 OA
HETATM    9  H   UNL     1     -43.338  55.152 -53.078  1.00  0.00     0.163 HD
BRANCH   7  10
HETATM   10  C   UNL     1     -40.881  54.497 -52.831  1.00  0.00     0.037 A 
HETATM   11  C   UNL     1     -40.503  53.642 -53.888  1.00  0.00    -0.046 A 
HETATM   12  C   UNL     1     -40.657  53.994 -55.342  1.00  0.00     0.049 C 
HETATM   13  C   UNL     1     -39.954  52.385 -53.569  1.00  0.00     0.007 A 
HETATM   14  C   UNL     1     -39.831  51.967 -52.244  1.00  0.00     0.001 A 
HETATM   15  C   UNL     1     -40.253  52.796 -51.210  1.00  0.00     0.001 A 
HETATM   16  C   UNL     1     -40.774  54.055 -51.501  1.00  0.00     0.017 A 
ENDBRANCH   7  10
ENDBRANCH   5   6
BRANCH   5  17
HETATM   17  C   UNL     1     -44.425  57.729 -52.190  1.00  0.00     0.009 C 
HETATM   18  C   UNL     1     -44.379  56.763 -51.000  1.00  0.00     0.012 C 
HETATM   19  C   UNL     1     -44.037  59.133 -51.708  1.00  0.00     0.012 C 
ENDBRANCH   5  17
ENDBRANCH   1   5
BRANCH   2  20
HETATM   20  C   UNL     1     -43.603  56.913 -57.145  1.00  0.00     0.035 A 
HETATM   21  C   UNL     1     -44.380  57.750 -57.954  1.00  0.00     0.042 A 
HETATM   22  C   UNL     1     -44.652  57.424 -59.296  1.00  0.00    -0.021 A 
HETATM   23  C   UNL     1     -44.143  56.221 -59.805  1.00  0.00     0.012 A 
HETATM   24  C   UNL     1     -43.366  55.380 -59.007  1.00  0.00     0.003 A 
HETATM   25  C   UNL     1     -43.090  55.732 -57.687  1.00  0.00     0.029 A 
BRANCH  22  26
HETATM   26  C   UNL     1     -45.442  58.331 -60.124  1.00  0.00     0.010 A 
HETATM   27  C   UNL     1     -45.158  59.638 -60.599  1.00  0.00     0.152 A 
HETATM   28  N   UNL     1     -46.136  60.145 -61.355  1.00  0.00    -0.187 NA
HETATM   29  N   UNL     1     -47.050  59.166 -61.376  1.00  0.00    -0.289 N 
HETATM   30  H   UNL     1     -47.903  59.316 -61.906  1.00  0.00     0.188 HD
HETATM   31  C   UNL     1     -46.686  58.063 -60.658  1.00  0.00     0.123 A 
ENDBRANCH  22  26
ENDBRANCH   2  20
TORSDOF 6
ENDMDL
