MODEL 1
REMARK VINA RESULT:      -8.8      0.000      0.000
REMARK  5 active torsions:
REMARK  status: ('A' for Active; 'I' for Inactive)
REMARK    1  A    between atoms: C_3  and  C_4 
REMARK    2  A    between atoms: C_4  and  N_5 
REMARK    3  A    between atoms: C_9  and  C_10 
REMARK    4  A    between atoms: C_13  and  C_14 
REMARK    5  A    between atoms: C_14  and  N_15 
ROOT
HETATM    1  N   UNL     1     -41.102  54.047 -51.094  1.00  0.00    -0.067 N 
HETATM    2  H   UNL     1     -41.280  54.183 -50.091  1.00  0.00     0.280 HD
HETATM    3  C   UNL     1     -40.888  55.412 -51.704  1.00  0.00     0.236 C 
HETATM    4  C   UNL     1     -42.177  56.226 -51.682  1.00  0.00     0.040 C 
HETATM    5  C   UNL     1     -43.356  55.506 -52.344  1.00  0.00     0.060 C 
HETATM    6  C   UNL     1     -43.531  54.125 -51.702  1.00  0.00     0.040 C 
HETATM    7  C   UNL     1     -42.258  53.286 -51.691  1.00  0.00     0.236 C 
ENDROOT
BRANCH   5   8
HETATM    8  C   UNL     1     -43.166  55.411 -53.834  1.00  0.00     0.134 A 
HETATM    9  N   UNL     1     -43.187  56.452 -54.735  1.00  0.00    -0.323 N 
HETATM   10  C   UNL     1     -43.392  57.849 -54.437  1.00  0.00     0.159 C 
HETATM   11  C   UNL     1     -42.968  55.885 -55.968  1.00  0.00     0.155 A 
HETATM   12  N   UNL     1     -42.794  54.588 -55.814  1.00  0.00    -0.133 NA
HETATM   13  N   UNL     1     -42.923  54.296 -54.491  1.00  0.00    -0.134 NA
BRANCH  11  14
HETATM   14  C   UNL     1     -42.923  56.582 -57.287  1.00  0.00     0.315 C 
BRANCH  14  15
HETATM   15  N   UNL     1     -44.087  56.159 -58.167  1.00  0.00    -0.064 N 
HETATM   16  H   UNL     1     -44.724  55.662 -57.522  1.00  0.00     0.280 HD
HETATM   17  C   UNL     1     -44.868  57.337 -58.703  1.00  0.00     0.235 C 
HETATM   18  C   UNL     1     -46.125  56.835 -59.397  1.00  0.00     0.028 C 
HETATM   19  C   UNL     1     -45.795  55.831 -60.496  1.00  0.00     0.003 C 
HETATM   20  C   UNL     1     -44.941  54.687 -59.961  1.00  0.00     0.028 C 
HETATM   21  C   UNL     1     -43.691  55.193 -59.252  1.00  0.00     0.235 C 
ENDBRANCH  14  15
ENDBRANCH  11  14
ENDBRANCH   5   8
BRANCH   1  22
HETATM   22  C   UNL     1     -39.839  53.191 -51.176  1.00  0.00     0.273 C 
BRANCH  22  23
HETATM   23  C   UNL     1     -39.888  52.124 -52.238  1.00  0.00    -0.027 A 
HETATM   24  C   UNL     1     -39.814  50.746 -51.948  1.00  0.00    -0.054 A 
HETATM   25  C   UNL     1     -39.714  50.180 -50.556  1.00  0.00     0.049 C 
HETATM   26  C   UNL     1     -39.815  49.826 -53.011  1.00  0.00     0.007 A 
HETATM   27  C   UNL     1     -39.908  50.251 -54.335  1.00  0.00     0.001 A 
HETATM   28  C   UNL     1     -40.001  51.606 -54.623  1.00  0.00     0.001 A 
HETATM   29  C   UNL     1     -39.991  52.535 -53.584  1.00  0.00     0.009 A 
ENDBRANCH  22  23
ENDBRANCH   1  22
TORSDOF 5
ENDMDL
MODEL 2
REMARK VINA RESULT:      -8.8      1.598      2.528
REMARK  5 active torsions:
REMARK  status: ('A' for Active; 'I' for Inactive)
REMARK    1  A    between atoms: C_3  and  C_4 
REMARK    2  A    between atoms: C_4  and  N_5 
REMARK    3  A    between atoms: C_9  and  C_10 
REMARK    4  A    between atoms: C_13  and  C_14 
REMARK    5  A    between atoms: C_14  and  N_15 
ROOT
HETATM    1  N   UNL     1     -40.895  54.016 -53.842  1.00  0.00    -0.067 N 
HETATM    2  H   UNL     1     -40.760  54.123 -52.828  1.00  0.00     0.280 HD
HETATM    3  C   UNL     1     -40.381  55.274 -54.501  1.00  0.00     0.236 C 
HETATM    4  C   UNL     1     -41.263  56.469 -54.153  1.00  0.00     0.040 C 
HETATM    5  C   UNL     1     -42.742  56.242 -54.477  1.00  0.00     0.060 C 
HETATM    6  C   UNL     1     -43.218  54.953 -53.796  1.00  0.00     0.040 C 
HETATM    7  C   UNL     1     -42.352  53.738 -54.108  1.00  0.00     0.236 C 
ENDROOT
BRANCH   5   8
HETATM    8  C   UNL     1     -42.973  56.208 -55.963  1.00  0.00     0.134 A 
HETATM    9  N   UNL     1     -43.190  57.290 -56.789  1.00  0.00    -0.323 N 
HETATM   10  C   UNL     1     -43.237  58.678 -56.398  1.00  0.00     0.159 C 
HETATM   11  C   UNL     1     -43.346  56.772 -58.053  1.00  0.00     0.155 A 
HETATM   12  N   UNL     1     -43.198  55.464 -57.997  1.00  0.00    -0.133 NA
HETATM   13  N   UNL     1     -42.974  55.116 -56.700  1.00  0.00    -0.134 NA
BRANCH  11  14
HETATM   14  C   UNL     1     -43.629  57.527 -59.308  1.00  0.00     0.315 C 
BRANCH  14  15
HETATM   15  N   UNL     1     -45.114  57.503 -59.633  1.00  0.00    -0.064 N 
HETATM   16  H   UNL     1     -45.575  57.461 -58.709  1.00  0.00     0.280 HD
HETATM   17  C   UNL     1     -45.586  58.785 -60.279  1.00  0.00     0.235 C 
HETATM   18  C   UNL     1     -47.104  58.768 -60.385  1.00  0.00     0.028 C 
HETATM   19  C   UNL     1     -47.598  57.540 -61.141  1.00  0.00     0.003 C 
HETATM   20  C   UNL     1     -47.052  56.256 -60.528  1.00  0.00     0.028 C 
HETATM   21  C   UNL     1     -45.534  56.283 -60.409  1.00  0.00     0.235 C 
ENDBRANCH  14  15
ENDBRANCH  11  14
ENDBRANCH   5   8
BRANCH   1  22
HETATM   22  C   UNL     1     -40.067  52.795 -54.240  1.00  0.00     0.273 C 
BRANCH  22  23
HETATM   23  C   UNL     1     -39.910  51.775 -53.144  1.00  0.00    -0.027 A 
HETATM   24  C   UNL     1     -39.736  50.398 -53.394  1.00  0.00    -0.054 A 
HETATM   25  C   UNL     1     -39.654  49.792 -54.771  1.00  0.00     0.049 C 
HETATM   26  C   UNL     1     -39.650  49.514 -52.303  1.00  0.00     0.007 A 
HETATM   27  C   UNL     1     -39.711  49.978 -50.991  1.00  0.00     0.001 A 
HETATM   28  C   UNL     1     -39.862  51.334 -50.742  1.00  0.00     0.001 A 
HETATM   29  C   UNL     1     -39.960  52.226 -51.808  1.00  0.00     0.009 A 
ENDBRANCH  22  23
ENDBRANCH   1  22
TORSDOF 5
ENDMDL
MODEL 3
REMARK VINA RESULT:      -8.4      1.548      2.470
REMARK  5 active torsions:
REMARK  status: ('A' for Active; 'I' for Inactive)
REMARK    1  A    between atoms: C_3  and  C_4 
REMARK    2  A    between atoms: C_4  and  N_5 
REMARK    3  A    between atoms: C_9  and  C_10 
REMARK    4  A    between atoms: C_13  and  C_14 
REMARK    5  A    between atoms: C_14  and  N_15 
ROOT
HETATM    1  N   UNL     1     -41.415  54.263 -53.760  1.00  0.00    -0.067 N 
HETATM    2  H   UNL     1     -41.631  53.914 -52.818  1.00  0.00     0.280 HD
HETATM    3  C   UNL     1     -41.148  55.746 -53.640  1.00  0.00     0.236 C 
HETATM    4  C   UNL     1     -42.419  56.500 -53.268  1.00  0.00     0.040 C 
HETATM    5  C   UNL     1     -43.585  56.226 -54.223  1.00  0.00     0.060 C 
HETATM    6  C   UNL     1     -43.816  54.713 -54.320  1.00  0.00     0.040 C 
HETATM    7  C   UNL     1     -42.562  53.922 -54.676  1.00  0.00     0.236 C 
ENDROOT
BRANCH   5   8
HETATM    8  C   UNL     1     -43.337  56.842 -55.573  1.00  0.00     0.134 A 
HETATM    9  N   UNL     1     -44.180  57.689 -56.259  1.00  0.00    -0.323 N 
HETATM   10  C   UNL     1     -45.471  58.162 -55.824  1.00  0.00     0.159 C 
HETATM   11  C   UNL     1     -43.533  57.989 -57.435  1.00  0.00     0.155 A 
HETATM   12  N   UNL     1     -42.360  57.387 -57.440  1.00  0.00    -0.133 NA
HETATM   13  N   UNL     1     -42.245  56.672 -56.288  1.00  0.00    -0.134 NA
BRANCH  11  14
HETATM   14  C   UNL     1     -44.033  58.852 -58.545  1.00  0.00     0.315 C 
BRANCH  14  15
HETATM   15  N   UNL     1     -44.912  58.058 -59.496  1.00  0.00    -0.064 N 
HETATM   16  H   UNL     1     -44.569  58.319 -60.436  1.00  0.00     0.280 HD
HETATM   17  C   UNL     1     -44.701  56.566 -59.373  1.00  0.00     0.235 C 
HETATM   18  C   UNL     1     -45.455  55.856 -60.487  1.00  0.00     0.028 C 
HETATM   19  C   UNL     1     -46.936  56.218 -60.481  1.00  0.00     0.003 C 
HETATM   20  C   UNL     1     -47.136  57.729 -60.526  1.00  0.00     0.028 C 
HETATM   21  C   UNL     1     -46.367  58.438 -59.420  1.00  0.00     0.235 C 
ENDBRANCH  14  15
ENDBRANCH  11  14
ENDBRANCH   5   8
BRANCH   1  22
HETATM   22  C   UNL     1     -40.169  53.502 -54.206  1.00  0.00     0.273 C 
BRANCH  22  23
HETATM   23  C   UNL     1     -40.001  52.158 -53.549  1.00  0.00    -0.027 A 
HETATM   24  C   UNL     1     -39.780  52.000 -52.165  1.00  0.00    -0.054 A 
HETATM   25  C   UNL     1     -39.721  53.140 -51.183  1.00  0.00     0.049 C 
HETATM   26  C   UNL     1     -39.584  50.706 -51.651  1.00  0.00     0.007 A 
HETATM   27  C   UNL     1     -39.624  49.586 -52.478  1.00  0.00     0.001 A 
HETATM   28  C   UNL     1     -39.860  49.736 -53.837  1.00  0.00     0.001 A 
HETATM   29  C   UNL     1     -40.047  51.010 -54.369  1.00  0.00     0.009 A 
ENDBRANCH  22  23
ENDBRANCH   1  22
TORSDOF 5
ENDMDL
MODEL 4
REMARK VINA RESULT:      -8.3      1.664      2.521
REMARK  5 active torsions:
REMARK  status: ('A' for Active; 'I' for Inactive)
REMARK    1  A    between atoms: C_3  and  C_4 
REMARK    2  A    between atoms: C_4  and  N_5 
REMARK    3  A    between atoms: C_9  and  C_10 
REMARK    4  A    between atoms: C_13  and  C_14 
REMARK    5  A    between atoms: C_14  and  N_15 
ROOT
HETATM    1  N   UNL     1     -42.172  55.602 -52.273  1.00  0.00    -0.067 N 
HETATM    2  H   UNL     1     -41.422  55.750 -51.585  1.00  0.00     0.280 HD
HETATM    3  C   UNL     1     -41.615  55.955 -53.632  1.00  0.00     0.236 C 
HETATM    4  C   UNL     1     -41.335  57.450 -53.734  1.00  0.00     0.040 C 
HETATM    5  C   UNL     1     -42.552  58.316 -53.396  1.00  0.00     0.060 C 
HETATM    6  C   UNL     1     -43.089  57.919 -52.015  1.00  0.00     0.040 C 
HETATM    7  C   UNL     1     -43.367  56.427 -51.870  1.00  0.00     0.236 C 
ENDROOT
BRANCH   5   8
HETATM    8  C   UNL     1     -43.609  58.205 -54.460  1.00  0.00     0.134 A 
HETATM    9  N   UNL     1     -43.480  58.548 -55.788  1.00  0.00    -0.323 N 
HETATM   10  C   UNL     1     -42.304  59.081 -56.433  1.00  0.00     0.159 C 
HETATM   11  C   UNL     1     -44.697  58.272 -56.367  1.00  0.00     0.155 A 
HETATM   12  N   UNL     1     -45.496  57.764 -55.451  1.00  0.00    -0.133 NA
HETATM   13  N   UNL     1     -44.822  57.730 -54.269  1.00  0.00    -0.134 NA
BRANCH  11  14
HETATM   14  C   UNL     1     -45.089  58.490 -57.790  1.00  0.00     0.315 C 
BRANCH  14  15
HETATM   15  N   UNL     1     -45.181  57.170 -58.536  1.00  0.00    -0.064 N 
HETATM   16  H   UNL     1     -45.661  56.537 -57.875  1.00  0.00     0.280 HD
HETATM   17  C   UNL     1     -46.070  57.253 -59.756  1.00  0.00     0.235 C 
HETATM   18  C   UNL     1     -46.276  55.859 -60.327  1.00  0.00     0.028 C 
HETATM   19  C   UNL     1     -44.948  55.182 -60.645  1.00  0.00     0.003 C 
HETATM   20  C   UNL     1     -44.028  55.173 -59.429  1.00  0.00     0.028 C 
HETATM   21  C   UNL     1     -43.837  56.568 -58.849  1.00  0.00     0.235 C 
ENDBRANCH  14  15
ENDBRANCH  11  14
ENDBRANCH   5   8
BRANCH   1  22
HETATM   22  C   UNL     1     -42.529  54.120 -52.180  1.00  0.00     0.273 C 
BRANCH  22  23
HETATM   23  C   UNL     1     -41.401  53.192 -52.548  1.00  0.00    -0.027 A 
HETATM   24  C   UNL     1     -40.398  52.800 -51.637  1.00  0.00    -0.054 A 
HETATM   25  C   UNL     1     -40.353  53.229 -50.194  1.00  0.00     0.049 C 
HETATM   26  C   UNL     1     -39.355  51.971 -52.087  1.00  0.00     0.007 A 
HETATM   27  C   UNL     1     -39.311  51.518 -53.404  1.00  0.00     0.001 A 
HETATM   28  C   UNL     1     -40.306  51.885 -54.298  1.00  0.00     0.001 A 
HETATM   29  C   UNL     1     -41.343  52.715 -53.875  1.00  0.00     0.009 A 
ENDBRANCH  22  23
ENDBRANCH   1  22
TORSDOF 5
ENDMDL
MODEL 5
REMARK VINA RESULT:      -8.3      2.123      3.196
REMARK  5 active torsions:
REMARK  status: ('A' for Active; 'I' for Inactive)
REMARK    1  A    between atoms: C_3  and  C_4 
REMARK    2  A    between atoms: C_4  and  N_5 
REMARK    3  A    between atoms: C_9  and  C_10 
REMARK    4  A    between atoms: C_13  and  C_14 
REMARK    5  A    between atoms: C_14  and  N_15 
ROOT
HETATM    1  N   UNL     1     -40.945  54.022 -53.819  1.00  0.00    -0.067 N 
HETATM    2  H   UNL     1     -40.770  54.105 -52.810  1.00  0.00     0.280 HD
HETATM    3  C   UNL     1     -40.425  55.280 -54.473  1.00  0.00     0.236 C 
HETATM    4  C   UNL     1     -41.263  56.489 -54.069  1.00  0.00     0.040 C 
HETATM    5  C   UNL     1     -42.759  56.305 -54.341  1.00  0.00     0.060 C 
HETATM    6  C   UNL     1     -43.241  55.014 -53.668  1.00  0.00     0.040 C 
HETATM    7  C   UNL     1     -42.418  53.785 -54.036  1.00  0.00     0.236 C 
ENDROOT
BRANCH   5   8
HETATM    8  C   UNL     1     -43.046  56.306 -55.818  1.00  0.00     0.134 A 
HETATM    9  N   UNL     1     -43.817  57.217 -56.506  1.00  0.00    -0.323 N 
HETATM   10  C   UNL     1     -44.505  58.359 -55.954  1.00  0.00     0.159 C 
HETATM   11  C   UNL     1     -43.788  56.815 -57.821  1.00  0.00     0.155 A 
HETATM   12  N   UNL     1     -43.021  55.749 -57.922  1.00  0.00    -0.133 NA
HETATM   13  N   UNL     1     -42.568  55.432 -56.678  1.00  0.00    -0.134 NA
BRANCH  11  14
HETATM   14  C   UNL     1     -44.489  57.452 -58.974  1.00  0.00     0.315 C 
BRANCH  14  15
HETATM   15  N   UNL     1     -43.846  58.781 -59.334  1.00  0.00    -0.064 N 
HETATM   16  H   UNL     1     -44.254  59.450 -58.660  1.00  0.00     0.280 HD
HETATM   17  C   UNL     1     -42.355  58.791 -59.085  1.00  0.00     0.235 C 
HETATM   18  C   UNL     1     -41.822  60.203 -59.270  1.00  0.00     0.028 C 
HETATM   19  C   UNL     1     -42.166  60.756 -60.648  1.00  0.00     0.003 C 
HETATM   20  C   UNL     1     -43.664  60.669 -60.921  1.00  0.00     0.028 C 
HETATM   21  C   UNL     1     -44.198  59.257 -60.719  1.00  0.00     0.235 C 
ENDBRANCH  14  15
ENDBRANCH  11  14
ENDBRANCH   5   8
BRANCH   1  22
HETATM   22  C   UNL     1     -40.164  52.790 -54.273  1.00  0.00     0.273 C 
BRANCH  22  23
HETATM   23  C   UNL     1     -39.954  51.763 -53.192  1.00  0.00    -0.027 A 
HETATM   24  C   UNL     1     -39.769  50.390 -53.459  1.00  0.00    -0.054 A 
HETATM   25  C   UNL     1     -39.724  49.798 -54.843  1.00  0.00     0.049 C 
HETATM   26  C   UNL     1     -39.633  49.499 -52.380  1.00  0.00     0.007 A 
HETATM   27  C   UNL     1     -39.657  49.951 -51.062  1.00  0.00     0.001 A 
HETATM   28  C   UNL     1     -39.820  51.303 -50.796  1.00  0.00     0.001 A 
HETATM   29  C   UNL     1     -39.967  52.202 -51.850  1.00  0.00     0.009 A 
ENDBRANCH  22  23
ENDBRANCH   1  22
TORSDOF 5
ENDMDL
MODEL 6
REMARK VINA RESULT:      -8.2      1.271      2.232
REMARK  5 active torsions:
REMARK  status: ('A' for Active; 'I' for Inactive)
REMARK    1  A    between atoms: C_3  and  C_4 
REMARK    2  A    between atoms: C_4  and  N_5 
REMARK    3  A    between atoms: C_9  and  C_10 
REMARK    4  A    between atoms: C_13  and  C_14 
REMARK    5  A    between atoms: C_14  and  N_15 
ROOT
HETATM    1  N   UNL     1     -40.973  54.074 -50.991  1.00  0.00    -0.067 N 
HETATM    2  H   UNL     1     -41.035  53.941 -49.973  1.00  0.00     0.280 HD
HETATM    3  C   UNL     1     -41.033  55.560 -51.256  1.00  0.00     0.236 C 
HETATM    4  C   UNL     1     -42.409  56.120 -50.910  1.00  0.00     0.040 C 
HETATM    5  C   UNL     1     -43.553  55.388 -51.618  1.00  0.00     0.060 C 
HETATM    6  C   UNL     1     -43.449  53.885 -51.329  1.00  0.00     0.040 C 
HETATM    7  C   UNL     1     -42.081  53.292 -51.648  1.00  0.00     0.236 C 
ENDROOT
BRANCH   5   8
HETATM    8  C   UNL     1     -43.550  55.675 -53.095  1.00  0.00     0.134 A 
HETATM    9  N   UNL     1     -43.985  56.828 -53.710  1.00  0.00    -0.323 N 
HETATM   10  C   UNL     1     -44.530  57.998 -53.067  1.00  0.00     0.159 C 
HETATM   11  C   UNL     1     -43.787  56.631 -55.057  1.00  0.00     0.155 A 
HETATM   12  N   UNL     1     -43.236  55.448 -55.236  1.00  0.00    -0.133 NA
HETATM   13  N   UNL     1     -43.097  54.855 -54.019  1.00  0.00    -0.134 NA
BRANCH  11  14
HETATM   14  C   UNL     1     -44.119  57.574 -56.164  1.00  0.00     0.315 C 
BRANCH  14  15
HETATM   15  N   UNL     1     -43.240  57.320 -57.377  1.00  0.00    -0.064 N 
HETATM   16  H   UNL     1     -42.468  56.737 -57.013  1.00  0.00     0.280 HD
HETATM   17  C   UNL     1     -43.932  56.487 -58.432  1.00  0.00     0.235 C 
HETATM   18  C   UNL     1     -42.931  56.105 -59.511  1.00  0.00     0.028 C 
HETATM   19  C   UNL     1     -42.260  57.334 -60.114  1.00  0.00     0.003 C 
HETATM   20  C   UNL     1     -41.632  58.207 -59.034  1.00  0.00     0.028 C 
HETATM   21  C   UNL     1     -42.633  58.575 -57.946  1.00  0.00     0.235 C 
ENDBRANCH  14  15
ENDBRANCH  11  14
ENDBRANCH   5   8
BRANCH   1  22
HETATM   22  C   UNL     1     -39.626  53.485 -51.403  1.00  0.00     0.273 C 
BRANCH  22  23
HETATM   23  C   UNL     1     -39.731  52.220 -52.214  1.00  0.00    -0.027 A 
HETATM   24  C   UNL     1     -39.951  52.214 -53.607  1.00  0.00    -0.054 A 
HETATM   25  C   UNL     1     -40.073  53.458 -54.448  1.00  0.00     0.049 C 
HETATM   26  C   UNL     1     -40.087  50.981 -54.269  1.00  0.00     0.007 A 
HETATM   27  C   UNL     1     -39.986  49.775 -53.579  1.00  0.00     0.001 A 
HETATM   28  C   UNL     1     -39.750  49.777 -52.212  1.00  0.00     0.001 A 
HETATM   29  C   UNL     1     -39.623  50.987 -51.534  1.00  0.00     0.009 A 
ENDBRANCH  22  23
ENDBRANCH   1  22
TORSDOF 5
ENDMDL
MODEL 7
REMARK VINA RESULT:      -8.2      4.879      7.587
REMARK  5 active torsions:
REMARK  status: ('A' for Active; 'I' for Inactive)
REMARK    1  A    between atoms: C_3  and  C_4 
REMARK    2  A    between atoms: C_4  and  N_5 
REMARK    3  A    between atoms: C_9  and  C_10 
REMARK    4  A    between atoms: C_13  and  C_14 
REMARK    5  A    between atoms: C_14  and  N_15 
ROOT
HETATM    1  N   UNL     1     -41.526  55.980 -52.022  1.00  0.00    -0.067 N 
HETATM    2  H   UNL     1     -40.568  55.842 -52.368  1.00  0.00     0.280 HD
HETATM    3  C   UNL     1     -42.251  56.838 -53.031  1.00  0.00     0.236 C 
HETATM    4  C   UNL     1     -41.679  58.251 -53.057  1.00  0.00     0.040 C 
HETATM    5  C   UNL     1     -41.660  58.919 -51.679  1.00  0.00     0.060 C 
HETATM    6  C   UNL     1     -40.922  58.012 -50.686  1.00  0.00     0.040 C 
HETATM    7  C   UNL     1     -41.457  56.585 -50.643  1.00  0.00     0.236 C 
ENDROOT
BRANCH   5   8
HETATM    8  C   UNL     1     -43.054  59.242 -51.213  1.00  0.00     0.134 A 
HETATM    9  N   UNL     1     -43.497  60.447 -50.714  1.00  0.00    -0.323 N 
HETATM   10  C   UNL     1     -42.718  61.649 -50.538  1.00  0.00     0.159 C 
HETATM   11  C   UNL     1     -44.829  60.266 -50.426  1.00  0.00     0.155 A 
HETATM   12  N   UNL     1     -45.173  59.039 -50.762  1.00  0.00    -0.133 NA
HETATM   13  N   UNL     1     -44.070  58.405 -51.243  1.00  0.00    -0.134 NA
BRANCH  11  14
HETATM   14  C   UNL     1     -45.768  61.265 -49.836  1.00  0.00     0.315 C 
BRANCH  14  15
HETATM   15  N   UNL     1     -45.327  61.667 -48.439  1.00  0.00    -0.064 N 
HETATM   16  H   UNL     1     -44.298  61.739 -48.509  1.00  0.00     0.280 HD
HETATM   17  C   UNL     1     -45.818  63.043 -48.049  1.00  0.00     0.235 C 
HETATM   18  C   UNL     1     -45.171  63.456 -46.736  1.00  0.00     0.028 C 
HETATM   19  C   UNL     1     -45.433  62.432 -45.636  1.00  0.00     0.003 C 
HETATM   20  C   UNL     1     -45.006  61.034 -46.070  1.00  0.00     0.028 C 
HETATM   21  C   UNL     1     -45.642  60.630 -47.393  1.00  0.00     0.235 C 
ENDBRANCH  14  15
ENDBRANCH  11  14
ENDBRANCH   5   8
BRANCH   1  22
HETATM   22  C   UNL     1     -42.137  54.583 -51.930  1.00  0.00     0.273 C 
BRANCH  22  23
HETATM   23  C   UNL     1     -41.223  53.481 -52.397  1.00  0.00    -0.027 A 
HETATM   24  C   UNL     1     -40.378  52.761 -51.526  1.00  0.00    -0.054 A 
HETATM   25  C   UNL     1     -40.314  52.980 -50.038  1.00  0.00     0.049 C 
HETATM   26  C   UNL     1     -39.522  51.783 -52.064  1.00  0.00     0.007 A 
HETATM   27  C   UNL     1     -39.510  51.504 -53.429  1.00  0.00     0.001 A 
HETATM   28  C   UNL     1     -40.354  52.197 -54.285  1.00  0.00     0.001 A 
HETATM   29  C   UNL     1     -41.203  53.177 -53.775  1.00  0.00     0.009 A 
ENDBRANCH  22  23
ENDBRANCH   1  22
TORSDOF 5
ENDMDL
MODEL 8
REMARK VINA RESULT:      -8.1      2.195      3.069
REMARK  5 active torsions:
REMARK  status: ('A' for Active; 'I' for Inactive)
REMARK    1  A    between atoms: C_3  and  C_4 
REMARK    2  A    between atoms: C_4  and  N_5 
REMARK    3  A    between atoms: C_9  and  C_10 
REMARK    4  A    between atoms: C_13  and  C_14 
REMARK    5  A    between atoms: C_14  and  N_15 
ROOT
HETATM    1  N   UNL     1     -41.709  54.237 -53.572  1.00  0.00    -0.067 N 
HETATM    2  H   UNL     1     -42.192  53.501 -53.040  1.00  0.00     0.280 HD
HETATM    3  C   UNL     1     -41.607  55.448 -52.675  1.00  0.00     0.236 C 
HETATM    4  C   UNL     1     -42.983  56.049 -52.414  1.00  0.00     0.040 C 
HETATM    5  C   UNL     1     -43.752  56.377 -53.697  1.00  0.00     0.060 C 
HETATM    6  C   UNL     1     -43.825  55.124 -54.578  1.00  0.00     0.040 C 
HETATM    7  C   UNL     1     -42.467  54.485 -54.850  1.00  0.00     0.236 C 
ENDROOT
BRANCH   5   8
HETATM    8  C   UNL     1     -43.127  57.537 -54.423  1.00  0.00     0.134 A 
HETATM    9  N   UNL     1     -43.727  58.335 -55.373  1.00  0.00    -0.323 N 
HETATM   10  C   UNL     1     -45.079  58.225 -55.864  1.00  0.00     0.159 C 
HETATM   11  C   UNL     1     -42.775  59.253 -55.746  1.00  0.00     0.155 A 
HETATM   12  N   UNL     1     -41.682  59.042 -55.042  1.00  0.00    -0.133 NA
HETATM   13  N   UNL     1     -41.900  57.974 -54.227  1.00  0.00    -0.134 NA
BRANCH  11  14
HETATM   14  C   UNL     1     -42.913  60.330 -56.770  1.00  0.00     0.315 C 
BRANCH  14  15
HETATM   15  N   UNL     1     -42.868  59.754 -58.175  1.00  0.00    -0.064 N 
HETATM   16  H   UNL     1     -43.839  59.447 -58.354  1.00  0.00     0.280 HD
HETATM   17  C   UNL     1     -42.560  60.800 -59.222  1.00  0.00     0.235 C 
HETATM   18  C   UNL     1     -42.734  60.195 -60.607  1.00  0.00     0.028 C 
HETATM   19  C   UNL     1     -41.875  58.949 -60.786  1.00  0.00     0.003 C 
HETATM   20  C   UNL     1     -42.137  57.933 -59.680  1.00  0.00     0.028 C 
HETATM   21  C   UNL     1     -41.978  58.545 -58.295  1.00  0.00     0.235 C 
ENDBRANCH  14  15
ENDBRANCH  11  14
ENDBRANCH   5   8
BRANCH   1  22
HETATM   22  C   UNL     1     -40.331  53.667 -53.905  1.00  0.00     0.273 C 
BRANCH  22  23
HETATM   23  C   UNL     1     -40.110  52.262 -53.409  1.00  0.00    -0.027 A 
HETATM   24  C   UNL     1     -39.807  51.960 -52.066  1.00  0.00    -0.054 A 
HETATM   25  C   UNL     1     -39.702  52.988 -50.970  1.00  0.00     0.049 C 
HETATM   26  C   UNL     1     -39.566  50.621 -51.708  1.00  0.00     0.007 A 
HETATM   27  C   UNL     1     -39.642  49.597 -52.649  1.00  0.00     0.001 A 
HETATM   28  C   UNL     1     -39.960  49.889 -53.967  1.00  0.00     0.001 A 
HETATM   29  C   UNL     1     -40.192  51.210 -54.346  1.00  0.00     0.009 A 
ENDBRANCH  22  23
ENDBRANCH   1  22
TORSDOF 5
ENDMDL
MODEL 9
REMARK VINA RESULT:      -8.1      1.556      2.016
REMARK  5 active torsions:
REMARK  status: ('A' for Active; 'I' for Inactive)
REMARK    1  A    between atoms: C_3  and  C_4 
REMARK    2  A    between atoms: C_4  and  N_5 
REMARK    3  A    between atoms: C_9  and  C_10 
REMARK    4  A    between atoms: C_13  and  C_14 
REMARK    5  A    between atoms: C_14  and  N_15 
ROOT
HETATM    1  N   UNL     1     -40.892  53.671 -50.775  1.00  0.00    -0.067 N 
HETATM    2  H   UNL     1     -41.291  53.152 -49.983  1.00  0.00     0.280 HD
HETATM    3  C   UNL     1     -40.635  55.083 -50.306  1.00  0.00     0.236 C 
HETATM    4  C   UNL     1     -41.946  55.813 -50.032  1.00  0.00     0.040 C 
HETATM    5  C   UNL     1     -42.907  55.795 -51.224  1.00  0.00     0.060 C 
HETATM    6  C   UNL     1     -43.132  54.345 -51.672  1.00  0.00     0.040 C 
HETATM    7  C   UNL     1     -41.843  53.578 -51.941  1.00  0.00     0.236 C 
ENDROOT
BRANCH   5   8
HETATM    8  C   UNL     1     -42.394  56.654 -52.347  1.00  0.00     0.134 A 
HETATM    9  N   UNL     1     -43.146  57.263 -53.328  1.00  0.00    -0.323 N 
HETATM   10  C   UNL     1     -44.580  57.206 -53.478  1.00  0.00     0.159 C 
HETATM   11  C   UNL     1     -42.249  57.937 -54.124  1.00  0.00     0.155 A 
HETATM   12  N   UNL     1     -41.038  57.770 -53.633  1.00  0.00    -0.133 NA
HETATM   13  N   UNL     1     -41.129  56.969 -52.536  1.00  0.00    -0.134 NA
BRANCH  11  14
HETATM   14  C   UNL     1     -42.552  58.739 -55.345  1.00  0.00     0.315 C 
BRANCH  14  15
HETATM   15  N   UNL     1     -43.176  57.871 -56.425  1.00  0.00    -0.064 N 
HETATM   16  H   UNL     1     -44.056  57.532 -56.001  1.00  0.00     0.280 HD
HETATM   17  C   UNL     1     -43.578  58.664 -57.647  1.00  0.00     0.235 C 
HETATM   18  C   UNL     1     -44.373  57.773 -58.588  1.00  0.00     0.028 C 
HETATM   19  C   UNL     1     -43.594  56.517 -58.963  1.00  0.00     0.003 C 
HETATM   20  C   UNL     1     -43.126  55.766 -57.722  1.00  0.00     0.028 C 
HETATM   21  C   UNL     1     -42.344  56.665 -56.774  1.00  0.00     0.235 C 
ENDBRANCH  14  15
ENDBRANCH  11  14
ENDBRANCH   5   8
BRANCH   1  22
HETATM   22  C   UNL     1     -39.591  52.951 -51.127  1.00  0.00     0.273 C 
BRANCH  22  23
HETATM   23  C   UNL     1     -39.741  51.896 -52.192  1.00  0.00    -0.027 A 
HETATM   24  C   UNL     1     -39.740  50.514 -51.911  1.00  0.00    -0.054 A 
HETATM   25  C   UNL     1     -39.626  49.933 -50.526  1.00  0.00     0.049 C 
HETATM   26  C   UNL     1     -39.834  49.603 -52.979  1.00  0.00     0.007 A 
HETATM   27  C   UNL     1     -39.947  50.043 -54.296  1.00  0.00     0.001 A 
HETATM   28  C   UNL     1     -39.968  51.402 -54.574  1.00  0.00     0.001 A 
HETATM   29  C   UNL     1     -39.866  52.322 -53.531  1.00  0.00     0.009 A 
ENDBRANCH  22  23
ENDBRANCH   1  22
TORSDOF 5
ENDMDL
MODEL 10
REMARK VINA RESULT:      -7.6      2.010      2.737
REMARK  5 active torsions:
REMARK  status: ('A' for Active; 'I' for Inactive)
REMARK    1  A    between atoms: C_3  and  C_4 
REMARK    2  A    between atoms: C_4  and  N_5 
REMARK    3  A    between atoms: C_9  and  C_10 
REMARK    4  A    between atoms: C_13  and  C_14 
REMARK    5  A    between atoms: C_14  and  N_15 
ROOT
HETATM    1  N   UNL     1     -41.217  53.975 -50.691  1.00  0.00    -0.067 N 
HETATM    2  H   UNL     1     -41.570  53.861 -49.732  1.00  0.00     0.280 HD
HETATM    3  C   UNL     1     -40.859  55.432 -50.869  1.00  0.00     0.236 C 
HETATM    4  C   UNL     1     -42.107  56.307 -50.847  1.00  0.00     0.040 C 
HETATM    5  C   UNL     1     -43.167  55.872 -51.864  1.00  0.00     0.060 C 
HETATM    6  C   UNL     1     -43.494  54.389 -51.652  1.00  0.00     0.040 C 
HETATM    7  C   UNL     1     -42.267  53.483 -51.653  1.00  0.00     0.236 C 
ENDROOT
BRANCH   5   8
HETATM    8  C   UNL     1     -42.714  56.150 -53.272  1.00  0.00     0.134 A 
HETATM    9  N   UNL     1     -43.476  56.669 -54.295  1.00  0.00    -0.323 N 
HETATM   10  C   UNL     1     -44.864  57.058 -54.227  1.00  0.00     0.159 C 
HETATM   11  C   UNL     1     -42.640  56.745 -55.384  1.00  0.00     0.155 A 
HETATM   12  N   UNL     1     -41.442  56.328 -55.029  1.00  0.00    -0.133 NA
HETATM   13  N   UNL     1     -41.492  55.953 -53.721  1.00  0.00    -0.134 NA
BRANCH  11  14
HETATM   14  C   UNL     1     -42.987  57.218 -56.756  1.00  0.00     0.315 C 
BRANCH  14  15
HETATM   15  N   UNL     1     -42.722  58.707 -56.901  1.00  0.00    -0.064 N 
HETATM   16  H   UNL     1     -42.131  58.940 -56.085  1.00  0.00     0.280 HD
HETATM   17  C   UNL     1     -41.896  59.033 -58.124  1.00  0.00     0.235 C 
HETATM   18  C   UNL     1     -41.502  60.502 -58.090  1.00  0.00     0.028 C 
HETATM   19  C   UNL     1     -42.723  61.408 -57.976  1.00  0.00     0.003 C 
HETATM   20  C   UNL     1     -43.591  61.020 -56.784  1.00  0.00     0.028 C 
HETATM   21  C   UNL     1     -43.970  59.545 -56.813  1.00  0.00     0.235 C 
ENDBRANCH  14  15
ENDBRANCH  11  14
ENDBRANCH   5   8
BRANCH   1  22
HETATM   22  C   UNL     1     -39.985  53.078 -50.786  1.00  0.00     0.273 C 
BRANCH  22  23
HETATM   23  C   UNL     1     -39.980  52.166 -51.985  1.00  0.00    -0.027 A 
HETATM   24  C   UNL     1     -39.829  50.767 -51.887  1.00  0.00    -0.054 A 
HETATM   25  C   UNL     1     -39.692  50.021 -50.586  1.00  0.00     0.049 C 
HETATM   26  C   UNL     1     -39.785  50.004 -53.067  1.00  0.00     0.007 A 
HETATM   27  C   UNL     1     -39.908  50.602 -54.320  1.00  0.00     0.001 A 
HETATM   28  C   UNL     1     -40.075  51.975 -54.419  1.00  0.00     0.001 A 
HETATM   29  C   UNL     1     -40.112  52.752 -53.262  1.00  0.00     0.009 A 
ENDBRANCH  22  23
ENDBRANCH   1  22
TORSDOF 5
ENDMDL
