MODEL 1
REMARK VINA RESULT:      -9.1      0.000      0.000
REMARK  6 active torsions:
REMARK  status: ('A' for Active; 'I' for Inactive)
REMARK    1  A    between atoms: O_2  and  C_3 
REMARK    2  A    between atoms: C_6  and  C_7 
REMARK    3  A    between atoms: C_12  and  C_13 
REMARK       I    between atoms: C_13  and  N_14 
REMARK    4  A    between atoms: N_14  and  C_15 
REMARK    5  A    between atoms: C_15  and  C_16 
REMARK    6  A    between atoms: C_24  and  C_25 
ROOT
HETATM    1  C   UNL     1     -43.355  58.227 -59.657  1.00  0.00     0.118 C 
HETATM    2  N   UNL     1     -43.823  58.283 -58.270  1.00  0.00    -0.366 N 
HETATM    3  C   UNL     1     -43.531  57.317 -57.377  1.00  0.00     0.123 A 
HETATM    4  N   UNL     1     -43.133  56.079 -57.791  1.00  0.00    -0.240 N 
HETATM    5  N   UNL     1     -42.737  55.269 -56.794  1.00  0.00    -0.165 NA
HETATM    6  C   UNL     1     -43.007  55.993 -55.681  1.00  0.00     0.148 A 
HETATM    7  C   UNL     1     -43.529  57.276 -56.010  1.00  0.00     0.088 A 
HETATM    8  C   UNL     1     -42.985  55.729 -59.187  1.00  0.00     0.221 C 
HETATM    9  C   UNL     1     -42.506  56.968 -59.955  1.00  0.00     0.066 C 
HETATM   10  H   UNL     1     -44.086  59.215 -57.949  1.00  0.00     0.161 HD
ENDROOT
BRANCH   6  11
HETATM   11  C   UNL     1     -42.739  55.480 -54.330  1.00  0.00     0.272 C 
HETATM   12  N   UNL     1     -41.491  54.922 -54.202  1.00  0.00    -0.351 N 
HETATM   13  H   UNL     1     -40.880  55.006 -55.009  1.00  0.00     0.163 HD
HETATM   14  O   UNL     1     -43.547  55.562 -53.410  1.00  0.00    -0.266 OA
BRANCH  12  15
HETATM   15  C   UNL     1     -40.989  54.441 -52.945  1.00  0.00     0.161 C 
BRANCH  15  16
HETATM   16  C   UNL     1     -40.522  53.013 -53.056  1.00  0.00    -0.041 A 
HETATM   17  C   UNL     1     -40.664  52.302 -54.254  1.00  0.00     0.009 A 
HETATM   18  C   UNL     1     -40.224  50.981 -54.350  1.00  0.00     0.001 A 
HETATM   19  C   UNL     1     -39.636  50.359 -53.250  1.00  0.00     0.000 A 
HETATM   20  C   UNL     1     -39.484  51.057 -52.055  1.00  0.00     0.001 A 
HETATM   21  C   UNL     1     -39.919  52.379 -51.958  1.00  0.00     0.009 A 
ENDBRANCH  15  16
ENDBRANCH  12  15
ENDBRANCH   6  11
BRANCH   8  22
HETATM   22  C   UNL     1     -44.277  55.167 -59.731  1.00  0.00     0.409 C 
HETATM   23  F   UNL     1     -44.439  53.861 -59.428  1.00  0.00    -0.169 F 
HETATM   24  F   UNL     1     -45.376  55.829 -59.314  1.00  0.00    -0.169 F 
HETATM   25  F   UNL     1     -44.271  55.249 -61.089  1.00  0.00    -0.169 F 
ENDBRANCH   8  22
BRANCH   1  26
HETATM   26  C   UNL     1     -42.562  59.495 -59.938  1.00  0.00    -0.035 A 
HETATM   27  C   UNL     1     -42.045  60.267 -58.881  1.00  0.00     0.012 A 
HETATM   28  C   UNL     1     -41.311  61.429 -59.127  1.00  0.00     0.037 A 
HETATM   29  C   UNL     1     -41.088  61.850 -60.436  1.00  0.00     0.068 A 
HETATM   30  C   UNL     1     -41.627  61.109 -61.491  1.00  0.00     0.037 A 
HETATM   31  C   UNL     1     -42.355  59.938 -61.248  1.00  0.00     0.012 A 
BRANCH  29  32
HETATM   32  O   UNL     1     -40.385  62.962 -60.808  1.00  0.00    -0.356 OA
HETATM   33  C   UNL     1     -39.778  62.926 -62.094  1.00  0.00     0.210 C 
ENDBRANCH  29  32
ENDBRANCH   1  26
TORSDOF 6
ENDMDL
MODEL 2
REMARK VINA RESULT:      -8.8      4.151      5.206
REMARK  6 active torsions:
REMARK  status: ('A' for Active; 'I' for Inactive)
REMARK    1  A    between atoms: O_2  and  C_3 
REMARK    2  A    between atoms: C_6  and  C_7 
REMARK    3  A    between atoms: C_12  and  C_13 
REMARK       I    between atoms: C_13  and  N_14 
REMARK    4  A    between atoms: N_14  and  C_15 
REMARK    5  A    between atoms: C_15  and  C_16 
REMARK    6  A    between atoms: C_24  and  C_25 
ROOT
HETATM    1  C   UNL     1     -43.863  58.170 -55.782  1.00  0.00     0.118 C 
HETATM    2  N   UNL     1     -42.532  57.981 -55.201  1.00  0.00    -0.366 N 
HETATM    3  C   UNL     1     -42.350  57.372 -54.013  1.00  0.00     0.123 A 
HETATM    4  N   UNL     1     -43.378  57.251 -53.124  1.00  0.00    -0.240 N 
HETATM    5  N   UNL     1     -43.089  56.496 -52.050  1.00  0.00    -0.165 NA
HETATM    6  C   UNL     1     -41.772  56.219 -52.213  1.00  0.00     0.148 A 
HETATM    7  C   UNL     1     -41.270  56.774 -53.423  1.00  0.00     0.088 A 
HETATM    8  C   UNL     1     -44.712  57.745 -53.395  1.00  0.00     0.221 C 
HETATM    9  C   UNL     1     -44.994  57.595 -54.895  1.00  0.00     0.066 C 
HETATM   10  H   UNL     1     -41.766  58.035 -55.872  1.00  0.00     0.161 HD
ENDROOT
BRANCH   6  11
HETATM   11  C   UNL     1     -41.018  55.410 -51.244  1.00  0.00     0.272 C 
HETATM   12  N   UNL     1     -40.716  54.155 -51.709  1.00  0.00    -0.351 N 
HETATM   13  H   UNL     1     -40.963  53.965 -52.676  1.00  0.00     0.163 HD
HETATM   14  O   UNL     1     -40.681  55.829 -50.141  1.00  0.00    -0.266 OA
BRANCH  12  15
HETATM   15  C   UNL     1     -39.907  53.232 -50.962  1.00  0.00     0.161 C 
BRANCH  15  16
HETATM   16  C   UNL     1     -39.803  51.905 -51.667  1.00  0.00    -0.041 A 
HETATM   17  C   UNL     1     -39.769  51.836 -53.065  1.00  0.00     0.009 A 
HETATM   18  C   UNL     1     -39.667  50.602 -53.711  1.00  0.00     0.001 A 
HETATM   19  C   UNL     1     -39.595  49.428 -52.965  1.00  0.00     0.000 A 
HETATM   20  C   UNL     1     -39.623  49.483 -51.573  1.00  0.00     0.001 A 
HETATM   21  C   UNL     1     -39.720  50.715 -50.926  1.00  0.00     0.009 A 
ENDBRANCH  15  16
ENDBRANCH  12  15
ENDBRANCH   6  11
BRANCH   8  22
HETATM   22  C   UNL     1     -44.857  59.169 -52.912  1.00  0.00     0.409 C 
HETATM   23  F   UNL     1     -45.422  59.243 -51.687  1.00  0.00    -0.169 F 
HETATM   24  F   UNL     1     -43.693  59.851 -52.873  1.00  0.00    -0.169 F 
HETATM   25  F   UNL     1     -45.675  59.852 -53.755  1.00  0.00    -0.169 F 
ENDBRANCH   8  22
BRANCH   1  26
HETATM   26  C   UNL     1     -43.872  57.524 -57.159  1.00  0.00    -0.035 A 
HETATM   27  C   UNL     1     -42.936  56.528 -57.491  1.00  0.00     0.012 A 
HETATM   28  C   UNL     1     -42.937  55.924 -58.749  1.00  0.00     0.037 A 
HETATM   29  C   UNL     1     -43.871  56.311 -59.708  1.00  0.00     0.068 A 
HETATM   30  C   UNL     1     -44.783  57.323 -59.400  1.00  0.00     0.037 A 
HETATM   31  C   UNL     1     -44.790  57.924 -58.136  1.00  0.00     0.012 A 
BRANCH  29  32
HETATM   32  O   UNL     1     -43.979  55.796 -60.969  1.00  0.00    -0.356 OA
HETATM   33  C   UNL     1     -45.217  55.172 -61.294  1.00  0.00     0.210 C 
ENDBRANCH  29  32
ENDBRANCH   1  26
TORSDOF 6
ENDMDL
MODEL 3
REMARK VINA RESULT:      -8.8      2.710      9.334
REMARK  6 active torsions:
REMARK  status: ('A' for Active; 'I' for Inactive)
REMARK    1  A    between atoms: O_2  and  C_3 
REMARK    2  A    between atoms: C_6  and  C_7 
REMARK    3  A    between atoms: C_12  and  C_13 
REMARK       I    between atoms: C_13  and  N_14 
REMARK    4  A    between atoms: N_14  and  C_15 
REMARK    5  A    between atoms: C_15  and  C_16 
REMARK    6  A    between atoms: C_24  and  C_25 
ROOT
HETATM    1  C   UNL     1     -42.978  54.927 -53.844  1.00  0.00     0.118 C 
HETATM    2  N   UNL     1     -43.283  54.677 -55.255  1.00  0.00    -0.366 N 
HETATM    3  C   UNL     1     -43.165  55.637 -56.193  1.00  0.00     0.123 A 
HETATM    4  N   UNL     1     -43.139  56.956 -55.845  1.00  0.00    -0.240 N 
HETATM    5  N   UNL     1     -42.871  57.787 -56.867  1.00  0.00    -0.165 NA
HETATM    6  C   UNL     1     -42.840  56.959 -57.939  1.00  0.00     0.148 A 
HETATM    7  C   UNL     1     -43.045  55.604 -57.556  1.00  0.00     0.088 A 
HETATM    8  C   UNL     1     -43.218  57.406 -54.472  1.00  0.00     0.221 C 
HETATM    9  C   UNL     1     -42.512  56.379 -53.578  1.00  0.00     0.066 C 
HETATM   10  H   UNL     1     -43.266  53.693 -55.524  1.00  0.00     0.161 HD
ENDROOT
BRANCH   6  11
HETATM   11  C   UNL     1     -42.586  57.452 -59.301  1.00  0.00     0.272 C 
HETATM   12  N   UNL     1     -42.847  58.792 -59.447  1.00  0.00    -0.351 N 
HETATM   13  H   UNL     1     -43.093  59.294 -58.599  1.00  0.00     0.163 HD
HETATM   14  O   UNL     1     -42.166  56.736 -60.204  1.00  0.00    -0.266 OA
BRANCH  12  15
HETATM   15  C   UNL     1     -42.582  59.498 -60.670  1.00  0.00     0.161 C 
BRANCH  15  16
HETATM   16  C   UNL     1     -41.733  60.717 -60.421  1.00  0.00    -0.041 A 
HETATM   17  C   UNL     1     -41.328  61.538 -61.480  1.00  0.00     0.009 A 
HETATM   18  C   UNL     1     -40.546  62.670 -61.240  1.00  0.00     0.001 A 
HETATM   19  C   UNL     1     -40.164  62.991 -59.940  1.00  0.00     0.000 A 
HETATM   20  C   UNL     1     -40.564  62.185 -58.876  1.00  0.00     0.001 A 
HETATM   21  C   UNL     1     -41.349  61.057 -59.114  1.00  0.00     0.009 A 
ENDBRANCH  15  16
ENDBRANCH  12  15
ENDBRANCH   6  11
BRANCH   8  22
HETATM   22  C   UNL     1     -44.657  57.639 -54.074  1.00  0.00     0.409 C 
HETATM   23  F   UNL     1     -45.029  58.929 -54.215  1.00  0.00    -0.169 F 
HETATM   24  F   UNL     1     -45.539  56.876 -54.754  1.00  0.00    -0.169 F 
HETATM   25  F   UNL     1     -44.818  57.333 -52.759  1.00  0.00    -0.169 F 
ENDBRANCH   8  22
BRANCH   1  26
HETATM   26  C   UNL     1     -41.917  53.929 -53.407  1.00  0.00    -0.035 A 
HETATM   27  C   UNL     1     -41.332  53.049 -54.337  1.00  0.00     0.012 A 
HETATM   28  C   UNL     1     -40.354  52.132 -53.949  1.00  0.00     0.037 A 
HETATM   29  C   UNL     1     -39.947  52.068 -52.618  1.00  0.00     0.068 A 
HETATM   30  C   UNL     1     -40.546  52.913 -51.681  1.00  0.00     0.037 A 
HETATM   31  C   UNL     1     -41.520  53.840 -52.069  1.00  0.00     0.012 A 
BRANCH  29  32
HETATM   32  O   UNL     1     -38.999  51.221 -52.114  1.00  0.00    -0.356 OA
HETATM   33  C   UNL     1     -39.455  50.234 -51.197  1.00  0.00     0.210 C 
ENDBRANCH  29  32
ENDBRANCH   1  26
TORSDOF 6
ENDMDL
MODEL 4
REMARK VINA RESULT:      -8.8      5.216      9.497
REMARK  6 active torsions:
REMARK  status: ('A' for Active; 'I' for Inactive)
REMARK    1  A    between atoms: O_2  and  C_3 
REMARK    2  A    between atoms: C_6  and  C_7 
REMARK    3  A    between atoms: C_12  and  C_13 
REMARK       I    between atoms: C_13  and  N_14 
REMARK    4  A    between atoms: N_14  and  C_15 
REMARK    5  A    between atoms: C_15  and  C_16 
REMARK    6  A    between atoms: C_24  and  C_25 
ROOT
HETATM    1  C   UNL     1     -41.394  55.238 -54.025  1.00  0.00     0.118 C 
HETATM    2  N   UNL     1     -41.380  56.316 -53.033  1.00  0.00    -0.366 N 
HETATM    3  C   UNL     1     -42.500  56.976 -52.678  1.00  0.00     0.123 A 
HETATM    4  N   UNL     1     -43.607  56.955 -53.475  1.00  0.00    -0.240 N 
HETATM    5  N   UNL     1     -44.689  57.532 -52.926  1.00  0.00    -0.165 NA
HETATM    6  C   UNL     1     -44.211  58.046 -51.767  1.00  0.00     0.148 A 
HETATM    7  C   UNL     1     -42.833  57.736 -51.591  1.00  0.00     0.088 A 
HETATM    8  C   UNL     1     -43.660  56.226 -54.724  1.00  0.00     0.221 C 
HETATM    9  C   UNL     1     -42.808  54.957 -54.587  1.00  0.00     0.066 C 
HETATM   10  H   UNL     1     -40.570  56.310 -52.412  1.00  0.00     0.161 HD
ENDROOT
BRANCH   6  11
HETATM   11  C   UNL     1     -45.065  58.792 -50.831  1.00  0.00     0.272 C 
HETATM   12  N   UNL     1     -44.425  59.856 -50.247  1.00  0.00    -0.351 N 
HETATM   13  H   UNL     1     -43.488  60.055 -50.587  1.00  0.00     0.163 HD
HETATM   14  O   UNL     1     -46.235  58.496 -50.613  1.00  0.00    -0.266 OA
BRANCH  12  15
HETATM   15  C   UNL     1     -45.099  60.772 -49.370  1.00  0.00     0.161 C 
BRANCH  15  16
HETATM   16  C   UNL     1     -44.391  62.101 -49.321  1.00  0.00    -0.041 A 
HETATM   17  C   UNL     1     -43.367  62.402 -50.228  1.00  0.00     0.009 A 
HETATM   18  C   UNL     1     -42.719  63.638 -50.179  1.00  0.00     0.001 A 
HETATM   19  C   UNL     1     -43.091  64.584 -49.227  1.00  0.00     0.000 A 
HETATM   20  C   UNL     1     -44.112  64.299 -48.323  1.00  0.00     0.001 A 
HETATM   21  C   UNL     1     -44.763  63.066 -48.373  1.00  0.00     0.009 A 
ENDBRANCH  15  16
ENDBRANCH  12  15
ENDBRANCH   6  11
BRANCH   8  22
HETATM   22  C   UNL     1     -43.219  57.106 -55.870  1.00  0.00     0.409 C 
HETATM   23  F   UNL     1     -44.260  57.689 -56.503  1.00  0.00    -0.169 F 
HETATM   24  F   UNL     1     -42.357  58.079 -55.507  1.00  0.00    -0.169 F 
HETATM   25  F   UNL     1     -42.577  56.351 -56.801  1.00  0.00    -0.169 F 
ENDBRANCH   8  22
BRANCH   1  26
HETATM   26  C   UNL     1     -40.811  53.992 -53.375  1.00  0.00    -0.035 A 
HETATM   27  C   UNL     1     -40.650  53.919 -51.979  1.00  0.00     0.012 A 
HETATM   28  C   UNL     1     -40.122  52.779 -51.371  1.00  0.00     0.037 A 
HETATM   29  C   UNL     1     -39.732  51.691 -52.148  1.00  0.00     0.068 A 
HETATM   30  C   UNL     1     -39.855  51.767 -53.538  1.00  0.00     0.037 A 
HETATM   31  C   UNL     1     -40.394  52.905 -54.150  1.00  0.00     0.012 A 
BRANCH  29  32
HETATM   32  O   UNL     1     -39.208  50.520 -51.676  1.00  0.00    -0.356 OA
HETATM   33  C   UNL     1     -39.845  49.956 -50.536  1.00  0.00     0.210 C 
ENDBRANCH  29  32
ENDBRANCH   1  26
TORSDOF 6
ENDMDL
MODEL 5
REMARK VINA RESULT:      -8.7      3.822      4.986
REMARK  6 active torsions:
REMARK  status: ('A' for Active; 'I' for Inactive)
REMARK    1  A    between atoms: O_2  and  C_3 
REMARK    2  A    between atoms: C_6  and  C_7 
REMARK    3  A    between atoms: C_12  and  C_13 
REMARK       I    between atoms: C_13  and  N_14 
REMARK    4  A    between atoms: N_14  and  C_15 
REMARK    5  A    between atoms: C_15  and  C_16 
REMARK    6  A    between atoms: C_24  and  C_25 
ROOT
HETATM    1  C   UNL     1     -43.097  57.973 -57.383  1.00  0.00     0.118 C 
HETATM    2  N   UNL     1     -42.195  56.931 -56.887  1.00  0.00    -0.366 N 
HETATM    3  C   UNL     1     -42.132  56.602 -55.582  1.00  0.00     0.123 A 
HETATM    4  N   UNL     1     -42.594  57.455 -54.622  1.00  0.00    -0.240 N 
HETATM    5  N   UNL     1     -42.601  56.934 -53.382  1.00  0.00    -0.165 NA
HETATM    6  C   UNL     1     -42.005  55.729 -53.550  1.00  0.00     0.148 A 
HETATM    7  C   UNL     1     -41.675  55.498 -54.915  1.00  0.00     0.088 A 
HETATM    8  C   UNL     1     -43.185  58.739 -54.933  1.00  0.00     0.221 C 
HETATM    9  C   UNL     1     -43.944  58.620 -56.261  1.00  0.00     0.066 C 
HETATM   10  H   UNL     1     -41.879  56.270 -57.597  1.00  0.00     0.161 HD
ENDROOT
BRANCH   6  11
HETATM   11  C   UNL     1     -41.785  54.803 -52.430  1.00  0.00     0.272 C 
HETATM   12  N   UNL     1     -40.544  54.216 -52.450  1.00  0.00    -0.351 N 
HETATM   13  H   UNL     1     -39.905  54.548 -53.167  1.00  0.00     0.163 HD
HETATM   14  O   UNL     1     -42.624  54.594 -51.560  1.00  0.00    -0.266 OA
BRANCH  12  15
HETATM   15  C   UNL     1     -40.087  53.348 -51.401  1.00  0.00     0.161 C 
BRANCH  15  16
HETATM   16  C   UNL     1     -39.885  51.944 -51.906  1.00  0.00    -0.041 A 
HETATM   17  C   UNL     1     -39.737  50.874 -51.014  1.00  0.00     0.009 A 
HETATM   18  C   UNL     1     -39.555  49.574 -51.491  1.00  0.00     0.001 A 
HETATM   19  C   UNL     1     -39.521  49.332 -52.862  1.00  0.00     0.000 A 
HETATM   20  C   UNL     1     -39.672  50.386 -53.760  1.00  0.00     0.001 A 
HETATM   21  C   UNL     1     -39.859  51.685 -53.286  1.00  0.00     0.009 A 
ENDBRANCH  15  16
ENDBRANCH  12  15
ENDBRANCH   6  11
BRANCH   8  22
HETATM   22  C   UNL     1     -42.127  59.816 -54.957  1.00  0.00     0.409 C 
HETATM   23  F   UNL     1     -41.000  59.447 -54.310  1.00  0.00    -0.169 F 
HETATM   24  F   UNL     1     -41.781  60.210 -56.201  1.00  0.00    -0.169 F 
HETATM   25  F   UNL     1     -42.592  60.923 -54.319  1.00  0.00    -0.169 F 
ENDBRANCH   8  22
BRANCH   1  26
HETATM   26  C   UNL     1     -43.989  57.355 -58.449  1.00  0.00    -0.035 A 
HETATM   27  C   UNL     1     -43.608  56.172 -59.107  1.00  0.00     0.012 A 
HETATM   28  C   UNL     1     -44.421  55.592 -60.083  1.00  0.00     0.037 A 
HETATM   29  C   UNL     1     -45.630  56.192 -60.429  1.00  0.00     0.068 A 
HETATM   30  C   UNL     1     -46.001  57.386 -59.806  1.00  0.00     0.037 A 
HETATM   31  C   UNL     1     -45.193  57.964 -58.820  1.00  0.00     0.012 A 
BRANCH  29  32
HETATM   32  O   UNL     1     -46.514  55.724 -61.361  1.00  0.00    -0.356 OA
HETATM   33  C   UNL     1     -47.700  56.488 -61.548  1.00  0.00     0.210 C 
ENDBRANCH  29  32
ENDBRANCH   1  26
TORSDOF 6
ENDMDL
MODEL 6
REMARK VINA RESULT:      -8.2      3.272      9.464
REMARK  6 active torsions:
REMARK  status: ('A' for Active; 'I' for Inactive)
REMARK    1  A    between atoms: O_2  and  C_3 
REMARK    2  A    between atoms: C_6  and  C_7 
REMARK    3  A    between atoms: C_12  and  C_13 
REMARK       I    between atoms: C_13  and  N_14 
REMARK    4  A    between atoms: N_14  and  C_15 
REMARK    5  A    between atoms: C_15  and  C_16 
REMARK    6  A    between atoms: C_24  and  C_25 
ROOT
HETATM    1  C   UNL     1     -42.037  55.682 -53.301  1.00  0.00     0.118 C 
HETATM    2  N   UNL     1     -42.906  55.683 -54.479  1.00  0.00    -0.366 N 
HETATM    3  C   UNL     1     -42.790  56.607 -55.453  1.00  0.00     0.123 A 
HETATM    4  N   UNL     1     -42.147  57.788 -55.224  1.00  0.00    -0.240 N 
HETATM    5  N   UNL     1     -41.981  58.545 -56.322  1.00  0.00    -0.165 NA
HETATM    6  C   UNL     1     -42.657  57.858 -57.275  1.00  0.00     0.148 A 
HETATM    7  C   UNL     1     -43.198  56.647 -56.758  1.00  0.00     0.088 A 
HETATM    8  C   UNL     1     -41.543  58.118 -53.950  1.00  0.00     0.221 C 
HETATM    9  C   UNL     1     -40.999  56.830 -53.318  1.00  0.00     0.066 C 
HETATM   10  H   UNL     1     -43.359  54.789 -54.672  1.00  0.00     0.161 HD
ENDROOT
BRANCH   6  11
HETATM   11  C   UNL     1     -42.754  58.335 -58.662  1.00  0.00     0.272 C 
HETATM   12  N   UNL     1     -42.681  59.702 -58.769  1.00  0.00    -0.351 N 
HETATM   13  H   UNL     1     -42.483  60.207 -57.910  1.00  0.00     0.163 HD
HETATM   14  O   UNL     1     -42.871  57.581 -59.623  1.00  0.00    -0.266 OA
BRANCH  12  15
HETATM   15  C   UNL     1     -42.663  60.374 -60.039  1.00  0.00     0.161 C 
BRANCH  15  16
HETATM   16  C   UNL     1     -41.551  61.387 -60.103  1.00  0.00    -0.041 A 
HETATM   17  C   UNL     1     -41.169  61.958 -61.324  1.00  0.00     0.009 A 
HETATM   18  C   UNL     1     -40.140  62.900 -61.374  1.00  0.00     0.001 A 
HETATM   19  C   UNL     1     -39.485  63.282 -60.205  1.00  0.00     0.000 A 
HETATM   20  C   UNL     1     -39.859  62.726 -58.983  1.00  0.00     0.001 A 
HETATM   21  C   UNL     1     -40.890  61.788 -58.931  1.00  0.00     0.009 A 
ENDBRANCH  15  16
ENDBRANCH  12  15
ENDBRANCH   6  11
BRANCH   8  22
HETATM   22  C   UNL     1     -42.537  58.831 -53.063  1.00  0.00     0.409 C 
HETATM   23  F   UNL     1     -42.522  58.367 -51.795  1.00  0.00    -0.169 F 
HETATM   24  F   UNL     1     -42.362  60.168 -53.018  1.00  0.00    -0.169 F 
HETATM   25  F   UNL     1     -43.795  58.624 -53.535  1.00  0.00    -0.169 F 
ENDBRANCH   8  22
BRANCH   1  26
HETATM   26  C   UNL     1     -41.346  54.329 -53.225  1.00  0.00    -0.035 A 
HETATM   27  C   UNL     1     -40.760  53.888 -52.025  1.00  0.00     0.012 A 
HETATM   28  C   UNL     1     -40.129  52.646 -51.941  1.00  0.00     0.037 A 
HETATM   29  C   UNL     1     -40.060  51.822 -53.062  1.00  0.00     0.068 A 
HETATM   30  C   UNL     1     -40.608  52.265 -54.268  1.00  0.00     0.037 A 
HETATM   31  C   UNL     1     -41.251  53.506 -54.353  1.00  0.00     0.012 A 
BRANCH  29  32
HETATM   32  O   UNL     1     -39.476  50.586 -53.110  1.00  0.00    -0.356 OA
HETATM   33  C   UNL     1     -39.595  49.877 -54.337  1.00  0.00     0.210 C 
ENDBRANCH  29  32
ENDBRANCH   1  26
TORSDOF 6
ENDMDL
MODEL 7
REMARK VINA RESULT:      -8.0      3.761      9.595
REMARK  6 active torsions:
REMARK  status: ('A' for Active; 'I' for Inactive)
REMARK    1  A    between atoms: O_2  and  C_3 
REMARK    2  A    between atoms: C_6  and  C_7 
REMARK    3  A    between atoms: C_12  and  C_13 
REMARK       I    between atoms: C_13  and  N_14 
REMARK    4  A    between atoms: N_14  and  C_15 
REMARK    5  A    between atoms: C_15  and  C_16 
REMARK    6  A    between atoms: C_24  and  C_25 
ROOT
HETATM    1  C   UNL     1     -42.125  55.412 -52.306  1.00  0.00     0.118 C 
HETATM    2  N   UNL     1     -42.899  55.265 -53.540  1.00  0.00    -0.366 N 
HETATM    3  C   UNL     1     -42.807  56.150 -54.552  1.00  0.00     0.123 A 
HETATM    4  N   UNL     1     -42.310  57.403 -54.342  1.00  0.00    -0.240 N 
HETATM    5  N   UNL     1     -42.142  58.122 -55.466  1.00  0.00    -0.165 NA
HETATM    6  C   UNL     1     -42.669  57.323 -56.425  1.00  0.00     0.148 A 
HETATM    7  C   UNL     1     -43.118  56.086 -55.883  1.00  0.00     0.088 A 
HETATM    8  C   UNL     1     -41.841  57.854 -53.050  1.00  0.00     0.221 C 
HETATM    9  C   UNL     1     -41.214  56.664 -52.313  1.00  0.00     0.066 C 
HETATM   10  H   UNL     1     -43.240  54.319 -53.716  1.00  0.00     0.161 HD
ENDROOT
BRANCH   6  11
HETATM   11  C   UNL     1     -42.712  57.722 -57.839  1.00  0.00     0.272 C 
HETATM   12  N   UNL     1     -43.214  56.745 -58.662  1.00  0.00    -0.351 N 
HETATM   13  H   UNL     1     -43.572  55.914 -58.200  1.00  0.00     0.163 HD
HETATM   14  O   UNL     1     -42.349  58.827 -58.234  1.00  0.00    -0.266 OA
BRANCH  12  15
HETATM   15  C   UNL     1     -43.427  56.957 -60.066  1.00  0.00     0.161 C 
BRANCH  15  16
HETATM   16  C   UNL     1     -44.884  57.197 -60.365  1.00  0.00    -0.041 A 
HETATM   17  C   UNL     1     -45.408  58.496 -60.384  1.00  0.00     0.009 A 
HETATM   18  C   UNL     1     -46.759  58.710 -60.667  1.00  0.00     0.001 A 
HETATM   19  C   UNL     1     -47.596  57.629 -60.936  1.00  0.00     0.000 A 
HETATM   20  C   UNL     1     -47.086  56.333 -60.925  1.00  0.00     0.001 A 
HETATM   21  C   UNL     1     -45.736  56.117 -60.647  1.00  0.00     0.009 A 
ENDBRANCH  15  16
ENDBRANCH  12  15
ENDBRANCH   6  11
BRANCH   8  22
HETATM   22  C   UNL     1     -42.967  58.496 -52.274  1.00  0.00     0.409 C 
HETATM   23  F   UNL     1     -42.963  59.843 -52.378  1.00  0.00    -0.169 F 
HETATM   24  F   UNL     1     -44.192  58.056 -52.630  1.00  0.00    -0.169 F 
HETATM   25  F   UNL     1     -42.826  58.212 -50.952  1.00  0.00    -0.169 F 
ENDBRANCH   8  22
BRANCH   1  26
HETATM   26  C   UNL     1     -41.304  54.146 -52.110  1.00  0.00    -0.035 A 
HETATM   27  C   UNL     1     -40.835  53.416 -53.217  1.00  0.00     0.012 A 
HETATM   28  C   UNL     1     -40.077  52.256 -53.050  1.00  0.00     0.037 A 
HETATM   29  C   UNL     1     -39.781  51.795 -51.770  1.00  0.00     0.068 A 
HETATM   30  C   UNL     1     -40.271  52.493 -50.664  1.00  0.00     0.037 A 
HETATM   31  C   UNL     1     -41.023  53.662 -50.828  1.00  0.00     0.012 A 
BRANCH  29  32
HETATM   32  O   UNL     1     -39.047  50.680 -51.473  1.00  0.00    -0.356 OA
HETATM   33  C   UNL     1     -39.718  49.654 -50.751  1.00  0.00     0.210 C 
ENDBRANCH  29  32
ENDBRANCH   1  26
TORSDOF 6
ENDMDL
MODEL 8
REMARK VINA RESULT:      -8.0      4.426      5.816
REMARK  6 active torsions:
REMARK  status: ('A' for Active; 'I' for Inactive)
REMARK    1  A    between atoms: O_2  and  C_3 
REMARK    2  A    between atoms: C_6  and  C_7 
REMARK    3  A    between atoms: C_12  and  C_13 
REMARK       I    between atoms: C_13  and  N_14 
REMARK    4  A    between atoms: N_14  and  C_15 
REMARK    5  A    between atoms: C_15  and  C_16 
REMARK    6  A    between atoms: C_24  and  C_25 
ROOT
HETATM    1  C   UNL     1     -43.506  59.305 -54.336  1.00  0.00     0.118 C 
HETATM    2  N   UNL     1     -42.277  58.597 -53.967  1.00  0.00    -0.366 N 
HETATM    3  C   UNL     1     -42.238  57.716 -52.949  1.00  0.00     0.123 A 
HETATM    4  N   UNL     1     -43.200  57.721 -51.981  1.00  0.00    -0.240 N 
HETATM    5  N   UNL     1     -43.113  56.696 -51.116  1.00  0.00    -0.165 NA
HETATM    6  C   UNL     1     -41.967  56.075 -51.487  1.00  0.00     0.148 A 
HETATM    7  C   UNL     1     -41.379  56.703 -52.620  1.00  0.00     0.088 A 
HETATM    8  C   UNL     1     -44.315  58.643 -51.989  1.00  0.00     0.221 C 
HETATM    9  C   UNL     1     -44.712  58.920 -53.445  1.00  0.00     0.066 C 
HETATM   10  H   UNL     1     -41.572  58.562 -54.704  1.00  0.00     0.161 HD
ENDROOT
BRANCH   6  11
HETATM   11  C   UNL     1     -41.463  54.883 -50.790  1.00  0.00     0.272 C 
HETATM   12  N   UNL     1     -40.567  54.160 -51.537  1.00  0.00    -0.351 N 
HETATM   13  H   UNL     1     -40.293  54.569 -52.425  1.00  0.00     0.163 HD
HETATM   14  O   UNL     1     -41.801  54.581 -49.649  1.00  0.00    -0.266 OA
BRANCH  12  15
HETATM   15  C   UNL     1     -39.883  53.009 -51.015  1.00  0.00     0.161 C 
BRANCH  15  16
HETATM   16  C   UNL     1     -39.855  51.890 -52.022  1.00  0.00    -0.041 A 
HETATM   17  C   UNL     1     -39.582  50.574 -51.626  1.00  0.00     0.009 A 
HETATM   18  C   UNL     1     -39.563  49.541 -52.566  1.00  0.00     0.001 A 
HETATM   19  C   UNL     1     -39.820  49.813 -53.908  1.00  0.00     0.000 A 
HETATM   20  C   UNL     1     -40.099  51.116 -54.314  1.00  0.00     0.001 A 
HETATM   21  C   UNL     1     -40.122  52.149 -53.376  1.00  0.00     0.009 A 
ENDBRANCH  15  16
ENDBRANCH  12  15
ENDBRANCH   6  11
BRANCH   8  22
HETATM   22  C   UNL     1     -43.966  59.901 -51.228  1.00  0.00     0.409 C 
HETATM   23  F   UNL     1     -42.679  59.916 -50.821  1.00  0.00    -0.169 F 
HETATM   24  F   UNL     1     -44.196  61.036 -51.920  1.00  0.00    -0.169 F 
HETATM   25  F   UNL     1     -44.727  59.975 -50.103  1.00  0.00    -0.169 F 
ENDBRANCH   8  22
BRANCH   1  26
HETATM   26  C   UNL     1     -43.797  59.012 -55.799  1.00  0.00    -0.035 A 
HETATM   27  C   UNL     1     -44.068  60.058 -56.700  1.00  0.00     0.012 A 
HETATM   28  C   UNL     1     -44.332  59.802 -58.047  1.00  0.00     0.037 A 
HETATM   29  C   UNL     1     -44.341  58.492 -58.520  1.00  0.00     0.068 A 
HETATM   30  C   UNL     1     -44.108  57.444 -57.626  1.00  0.00     0.037 A 
HETATM   31  C   UNL     1     -43.833  57.698 -56.277  1.00  0.00     0.012 A 
BRANCH  29  32
HETATM   32  O   UNL     1     -44.580  58.111 -59.811  1.00  0.00    -0.356 OA
HETATM   33  C   UNL     1     -45.402  56.964 -59.991  1.00  0.00     0.210 C 
ENDBRANCH  29  32
ENDBRANCH   1  26
TORSDOF 6
ENDMDL
MODEL 9
REMARK VINA RESULT:      -8.0      4.185      8.606
REMARK  6 active torsions:
REMARK  status: ('A' for Active; 'I' for Inactive)
REMARK    1  A    between atoms: O_2  and  C_3 
REMARK    2  A    between atoms: C_6  and  C_7 
REMARK    3  A    between atoms: C_12  and  C_13 
REMARK       I    between atoms: C_13  and  N_14 
REMARK    4  A    between atoms: N_14  and  C_15 
REMARK    5  A    between atoms: C_15  and  C_16 
REMARK    6  A    between atoms: C_24  and  C_25 
ROOT
HETATM    1  C   UNL     1     -42.104  56.857 -53.257  1.00  0.00     0.118 C 
HETATM    2  N   UNL     1     -41.999  57.430 -54.601  1.00  0.00    -0.366 N 
HETATM    3  C   UNL     1     -42.309  56.724 -55.706  1.00  0.00     0.123 A 
HETATM    4  N   UNL     1     -42.355  55.360 -55.675  1.00  0.00    -0.240 N 
HETATM    5  N   UNL     1     -42.818  54.802 -56.806  1.00  0.00    -0.165 NA
HETATM    6  C   UNL     1     -42.963  55.862 -57.638  1.00  0.00     0.148 A 
HETATM    7  C   UNL     1     -42.629  57.083 -56.987  1.00  0.00     0.088 A 
HETATM    8  C   UNL     1     -42.097  54.594 -54.474  1.00  0.00     0.221 C 
HETATM    9  C   UNL     1     -42.604  55.392 -53.266  1.00  0.00     0.066 C 
HETATM   10  H   UNL     1     -42.001  58.450 -54.627  1.00  0.00     0.161 HD
ENDROOT
BRANCH   6  11
HETATM   11  C   UNL     1     -43.444  55.713 -59.019  1.00  0.00     0.272 C 
HETATM   12  N   UNL     1     -44.777  55.397 -59.095  1.00  0.00    -0.351 N 
HETATM   13  H   UNL     1     -45.285  55.391 -58.215  1.00  0.00     0.163 HD
HETATM   14  O   UNL     1     -42.723  55.873 -59.999  1.00  0.00    -0.266 OA
BRANCH  12  15
HETATM   15  C   UNL     1     -45.473  55.294 -60.347  1.00  0.00     0.161 C 
BRANCH  15  16
HETATM   16  C   UNL     1     -46.308  56.519 -60.608  1.00  0.00    -0.041 A 
HETATM   17  C   UNL     1     -45.992  57.745 -60.009  1.00  0.00     0.009 A 
HETATM   18  C   UNL     1     -46.768  58.878 -60.260  1.00  0.00     0.001 A 
HETATM   19  C   UNL     1     -47.866  58.796 -61.114  1.00  0.00     0.000 A 
HETATM   20  C   UNL     1     -48.189  57.585 -61.721  1.00  0.00     0.001 A 
HETATM   21  C   UNL     1     -47.412  56.453 -61.474  1.00  0.00     0.009 A 
ENDBRANCH  15  16
ENDBRANCH  12  15
ENDBRANCH   6  11
BRANCH   8  22
HETATM   22  C   UNL     1     -40.630  54.248 -54.373  1.00  0.00     0.409 C 
HETATM   23  F   UNL     1     -39.850  55.100 -55.073  1.00  0.00    -0.169 F 
HETATM   24  F   UNL     1     -40.168  54.207 -53.107  1.00  0.00    -0.169 F 
HETATM   25  F   UNL     1     -40.420  53.012 -54.900  1.00  0.00    -0.169 F 
ENDBRANCH   8  22
BRANCH   1  26
HETATM   26  C   UNL     1     -43.031  57.741 -52.438  1.00  0.00    -0.035 A 
HETATM   27  C   UNL     1     -44.233  57.231 -51.915  1.00  0.00     0.012 A 
HETATM   28  C   UNL     1     -45.090  58.031 -51.156  1.00  0.00     0.037 A 
HETATM   29  C   UNL     1     -44.767  59.365 -50.915  1.00  0.00     0.068 A 
HETATM   30  C   UNL     1     -43.593  59.890 -51.459  1.00  0.00     0.037 A 
HETATM   31  C   UNL     1     -42.727  59.088 -52.211  1.00  0.00     0.012 A 
BRANCH  29  32
HETATM   32  O   UNL     1     -45.515  60.247 -50.187  1.00  0.00    -0.356 OA
HETATM   33  C   UNL     1     -44.799  61.124 -49.325  1.00  0.00     0.210 C 
ENDBRANCH  29  32
ENDBRANCH   1  26
TORSDOF 6
ENDMDL
MODEL 10
REMARK VINA RESULT:      -7.9      2.944      9.581
REMARK  6 active torsions:
REMARK  status: ('A' for Active; 'I' for Inactive)
REMARK    1  A    between atoms: O_2  and  C_3 
REMARK    2  A    between atoms: C_6  and  C_7 
REMARK    3  A    between atoms: C_12  and  C_13 
REMARK       I    between atoms: C_13  and  N_14 
REMARK    4  A    between atoms: N_14  and  C_15 
REMARK    5  A    between atoms: C_15  and  C_16 
REMARK    6  A    between atoms: C_24  and  C_25 
ROOT
HETATM    1  C   UNL     1     -43.051  55.018 -53.907  1.00  0.00     0.118 C 
HETATM    2  N   UNL     1     -43.299  54.739 -55.323  1.00  0.00    -0.366 N 
HETATM    3  C   UNL     1     -43.152  55.682 -56.275  1.00  0.00     0.123 A 
HETATM    4  N   UNL     1     -43.151  57.007 -55.951  1.00  0.00    -0.240 N 
HETATM    5  N   UNL     1     -42.850  57.822 -56.978  1.00  0.00    -0.165 NA
HETATM    6  C   UNL     1     -42.771  56.974 -58.032  1.00  0.00     0.148 A 
HETATM    7  C   UNL     1     -42.979  55.624 -57.631  1.00  0.00     0.088 A 
HETATM    8  C   UNL     1     -43.287  57.483 -54.591  1.00  0.00     0.221 C 
HETATM    9  C   UNL     1     -42.608  56.478 -53.651  1.00  0.00     0.066 C 
HETATM   10  H   UNL     1     -43.264  53.749 -55.573  1.00  0.00     0.161 HD
ENDROOT
BRANCH   6  11
HETATM   11  C   UNL     1     -42.469  57.443 -59.392  1.00  0.00     0.272 C 
HETATM   12  N   UNL     1     -42.813  58.756 -59.599  1.00  0.00    -0.351 N 
HETATM   13  H   UNL     1     -43.145  59.264 -58.784  1.00  0.00     0.163 HD
HETATM   14  O   UNL     1     -41.945  56.733 -60.244  1.00  0.00    -0.266 OA
BRANCH  12  15
HETATM   15  C   UNL     1     -42.522  59.443 -60.826  1.00  0.00     0.161 C 
BRANCH  15  16
HETATM   16  C   UNL     1     -43.758  60.089 -61.394  1.00  0.00    -0.041 A 
HETATM   17  C   UNL     1     -45.014  59.871 -60.814  1.00  0.00     0.009 A 
HETATM   18  C   UNL     1     -46.154  60.478 -61.343  1.00  0.00     0.001 A 
HETATM   19  C   UNL     1     -46.049  61.311 -62.455  1.00  0.00     0.000 A 
HETATM   20  C   UNL     1     -44.805  61.541 -63.038  1.00  0.00     0.001 A 
HETATM   21  C   UNL     1     -43.664  60.939 -62.508  1.00  0.00     0.009 A 
ENDBRANCH  15  16
ENDBRANCH  12  15
ENDBRANCH   6  11
BRANCH   8  22
HETATM   22  C   UNL     1     -44.742  57.710 -54.253  1.00  0.00     0.409 C 
HETATM   23  F   UNL     1     -45.137  58.977 -54.501  1.00  0.00    -0.169 F 
HETATM   24  F   UNL     1     -45.585  56.878 -54.899  1.00  0.00    -0.169 F 
HETATM   25  F   UNL     1     -44.936  57.499 -52.924  1.00  0.00    -0.169 F 
ENDBRANCH   8  22
BRANCH   1  26
HETATM   26  C   UNL     1     -41.999  54.037 -53.411  1.00  0.00    -0.035 A 
HETATM   27  C   UNL     1     -41.623  54.014 -52.055  1.00  0.00     0.012 A 
HETATM   28  C   UNL     1     -40.663  53.115 -51.586  1.00  0.00     0.037 A 
HETATM   29  C   UNL     1     -40.051  52.226 -52.467  1.00  0.00     0.068 A 
HETATM   30  C   UNL     1     -40.392  52.265 -53.821  1.00  0.00     0.037 A 
HETATM   31  C   UNL     1     -41.361  53.158 -54.292  1.00  0.00     0.012 A 
BRANCH  29  32
HETATM   32  O   UNL     1     -39.104  51.298 -52.133  1.00  0.00    -0.356 OA
HETATM   33  C   UNL     1     -39.539  50.216 -51.317  1.00  0.00     0.210 C 
ENDBRANCH  29  32
ENDBRANCH   1  26
TORSDOF 6
ENDMDL
