MODEL 1
REMARK VINA RESULT:      -8.7      0.000      0.000
REMARK  3 active torsions:
REMARK  status: ('A' for Active; 'I' for Inactive)
REMARK    1  A    between atoms: C_12  and  C_13 
REMARK    2  A    between atoms: C_13  and  N_14 
REMARK       I    between atoms: N_14  and  C_15 
REMARK    3  A    between atoms: C_15  and  C_16 
ROOT
HETATM    1  N   UNL     1     -42.814  55.208 -52.694  1.00  0.00    -0.352 N 
HETATM    2  C   UNL     1     -41.612  55.283 -52.038  1.00  0.00     0.254 C 
HETATM    3  O   UNL     1     -41.063  56.358 -51.803  1.00  0.00    -0.268 OA
HETATM    4  H   UNL     1     -43.199  54.297 -52.897  1.00  0.00     0.163 HD
ENDROOT
BRANCH   1   5
HETATM    5  C   UNL     1     -43.489  56.361 -53.238  1.00  0.00     0.165 C 
BRANCH   5   6
HETATM    6  C   UNL     1     -43.011  56.668 -54.628  1.00  0.00     0.008 C 
HETATM    7  C   UNL     1     -42.560  58.093 -54.967  1.00  0.00     0.043 C 
HETATM    8  C   UNL     1     -42.381  59.087 -53.836  1.00  0.00     0.071 C 
HETATM    9  N   UNL     1     -42.279  58.547 -56.157  1.00  0.00    -0.234 NA
HETATM   10  C   UNL     1     -42.404  57.616 -57.145  1.00  0.00     0.154 C 
HETATM   11  C   UNL     1     -42.323  57.900 -58.451  1.00  0.00     0.128 C 
HETATM   12  N   UNL     1     -42.667  56.275 -56.938  1.00  0.00    -0.239 N 
HETATM   13  C   UNL     1     -42.542  56.606 -59.127  1.00  0.00     0.263 C 
HETATM   14  N   UNL     1     -42.885  55.677 -58.159  1.00  0.00    -0.258 N 
HETATM   15  O   UNL     1     -42.395  56.405 -60.320  1.00  0.00    -0.267 OA
HETATM   16  H   UNL     1     -42.672  54.701 -58.305  1.00  0.00     0.191 HD
HETATM   17  C   UNL     1     -43.042  55.815 -55.686  1.00  0.00     0.042 C 
HETATM   18  C   UNL     1     -43.472  54.371 -55.601  1.00  0.00     0.071 C 
ENDBRANCH   5   6
ENDBRANCH   1   5
BRANCH   2  19
HETATM   19  C   UNL     1     -41.013  54.005 -51.636  1.00  0.00     0.062 A 
HETATM   20  C   UNL     1     -40.555  52.867 -52.395  1.00  0.00     0.046 A 
HETATM   21  C   UNL     1     -40.052  51.929 -51.485  1.00  0.00     0.046 A 
HETATM   22  C   UNL     1     -40.495  52.516 -53.763  1.00  0.00     0.130 A 
HETATM   23  C   UNL     1     -39.512  50.694 -51.875  1.00  0.00     0.030 A 
HETATM   24  N   UNL     1     -40.199  52.460 -50.226  1.00  0.00    -0.364 N 
HETATM   25  C   UNL     1     -39.476  50.392 -53.238  1.00  0.00     0.005 A 
HETATM   26  C   UNL     1     -39.963  51.294 -54.176  1.00  0.00     0.043 A 
HETATM   27  H   UNL     1     -39.920  52.001 -49.370  1.00  0.00     0.165 HD
HETATM   28  C   UNL     1     -40.765  53.699 -50.306  1.00  0.00     0.106 A 
HETATM   29  F   UNL     1     -40.952  53.355 -54.705  1.00  0.00    -0.205 F 
ENDBRANCH   2  19
TORSDOF 3
ENDMDL
MODEL 2
REMARK VINA RESULT:      -8.6      2.946      4.967
REMARK  3 active torsions:
REMARK  status: ('A' for Active; 'I' for Inactive)
REMARK    1  A    between atoms: C_12  and  C_13 
REMARK    2  A    between atoms: C_13  and  N_14 
REMARK       I    between atoms: N_14  and  C_15 
REMARK    3  A    between atoms: C_15  and  C_16 
ROOT
HETATM    1  N   UNL     1     -40.983  55.980 -52.466  1.00  0.00    -0.352 N 
HETATM    2  C   UNL     1     -40.901  54.776 -53.116  1.00  0.00     0.254 C 
HETATM    3  O   UNL     1     -41.115  54.670 -54.322  1.00  0.00    -0.268 OA
HETATM    4  H   UNL     1     -40.839  56.002 -51.467  1.00  0.00     0.163 HD
ENDROOT
BRANCH   1   5
HETATM    5  C   UNL     1     -41.405  57.198 -53.113  1.00  0.00     0.165 C 
BRANCH   5   6
HETATM    6  C   UNL     1     -42.642  57.757 -52.473  1.00  0.00     0.008 C 
HETATM    7  C   UNL     1     -44.008  57.478 -53.111  1.00  0.00     0.043 C 
HETATM    8  C   UNL     1     -44.092  56.455 -54.225  1.00  0.00     0.071 C 
HETATM    9  N   UNL     1     -45.141  58.025 -52.769  1.00  0.00    -0.234 NA
HETATM   10  C   UNL     1     -45.037  58.905 -51.732  1.00  0.00     0.154 C 
HETATM   11  C   UNL     1     -46.038  59.696 -51.324  1.00  0.00     0.128 C 
HETATM   12  N   UNL     1     -43.889  59.127 -50.996  1.00  0.00    -0.239 N 
HETATM   13  C   UNL     1     -45.462  60.479 -50.212  1.00  0.00     0.263 C 
HETATM   14  N   UNL     1     -44.109  60.189 -50.149  1.00  0.00    -0.258 N 
HETATM   15  O   UNL     1     -46.094  61.208 -49.469  1.00  0.00    -0.267 OA
HETATM   16  H   UNL     1     -43.624  60.260 -49.266  1.00  0.00     0.191 HD
HETATM   17  C   UNL     1     -42.673  58.607 -51.411  1.00  0.00     0.042 C 
HETATM   18  C   UNL     1     -41.455  59.045 -50.637  1.00  0.00     0.071 C 
ENDBRANCH   5   6
ENDBRANCH   1   5
BRANCH   2  19
HETATM   19  C   UNL     1     -40.552  53.615 -52.289  1.00  0.00     0.062 A 
HETATM   20  C   UNL     1     -40.195  52.258 -52.622  1.00  0.00     0.046 A 
HETATM   21  C   UNL     1     -39.944  51.581 -51.422  1.00  0.00     0.046 A 
HETATM   22  C   UNL     1     -40.043  51.511 -53.813  1.00  0.00     0.130 A 
HETATM   23  C   UNL     1     -39.561  50.233 -51.366  1.00  0.00     0.030 A 
HETATM   24  N   UNL     1     -40.142  52.477 -50.399  1.00  0.00    -0.364 N 
HETATM   25  C   UNL     1     -39.424  49.537 -52.569  1.00  0.00     0.005 A 
HETATM   26  C   UNL     1     -39.663  50.168 -53.784  1.00  0.00     0.043 A 
HETATM   27  H   UNL     1     -40.032  52.264 -49.416  1.00  0.00     0.165 HD
HETATM   28  C   UNL     1     -40.500  53.692 -50.905  1.00  0.00     0.106 A 
HETATM   29  F   UNL     1     -40.260  52.078 -55.009  1.00  0.00    -0.205 F 
ENDBRANCH   2  19
TORSDOF 3
ENDMDL
MODEL 3
REMARK VINA RESULT:      -8.4      2.385      6.818
REMARK  3 active torsions:
REMARK  status: ('A' for Active; 'I' for Inactive)
REMARK    1  A    between atoms: C_12  and  C_13 
REMARK    2  A    between atoms: C_13  and  N_14 
REMARK       I    between atoms: N_14  and  C_15 
REMARK    3  A    between atoms: C_15  and  C_16 
ROOT
HETATM    1  N   UNL     1     -42.420  56.776 -53.984  1.00  0.00    -0.352 N 
HETATM    2  C   UNL     1     -43.345  57.193 -54.906  1.00  0.00     0.254 C 
HETATM    3  O   UNL     1     -44.552  57.036 -54.736  1.00  0.00    -0.268 OA
HETATM    4  H   UNL     1     -41.439  56.893 -54.195  1.00  0.00     0.163 HD
ENDROOT
BRANCH   1   5
HETATM    5  C   UNL     1     -42.770  56.048 -52.790  1.00  0.00     0.165 C 
BRANCH   5   6
HETATM    6  C   UNL     1     -41.994  54.767 -52.683  1.00  0.00     0.008 C 
HETATM    7  C   UNL     1     -41.027  54.573 -51.509  1.00  0.00     0.043 C 
HETATM    8  C   UNL     1     -41.060  55.570 -50.369  1.00  0.00     0.071 C 
HETATM    9  N   UNL     1     -40.173  53.597 -51.372  1.00  0.00    -0.234 NA
HETATM   10  C   UNL     1     -40.202  52.692 -52.391  1.00  0.00     0.154 C 
HETATM   11  C   UNL     1     -39.308  51.706 -52.537  1.00  0.00     0.128 C 
HETATM   12  N   UNL     1     -41.122  52.693 -53.422  1.00  0.00    -0.239 N 
HETATM   13  C   UNL     1     -39.720  51.011 -53.774  1.00  0.00     0.263 C 
HETATM   14  N   UNL     1     -40.748  51.742 -54.345  1.00  0.00    -0.258 N 
HETATM   15  O   UNL     1     -39.254  49.959 -54.174  1.00  0.00    -0.267 OA
HETATM   16  H   UNL     1     -41.436  51.274 -54.918  1.00  0.00     0.191 HD
HETATM   17  C   UNL     1     -41.973  53.771 -53.608  1.00  0.00     0.042 C 
HETATM   18  C   UNL     1     -42.819  53.752 -54.856  1.00  0.00     0.071 C 
ENDBRANCH   5   6
ENDBRANCH   1   5
BRANCH   2  19
HETATM   19  C   UNL     1     -42.812  57.832 -56.115  1.00  0.00     0.062 A 
HETATM   20  C   UNL     1     -42.678  57.373 -57.477  1.00  0.00     0.046 A 
HETATM   21  C   UNL     1     -42.113  58.418 -58.219  1.00  0.00     0.046 A 
HETATM   22  C   UNL     1     -42.978  56.186 -58.183  1.00  0.00     0.130 A 
HETATM   23  C   UNL     1     -41.845  58.327 -59.593  1.00  0.00     0.030 A 
HETATM   24  N   UNL     1     -41.905  59.467 -57.356  1.00  0.00    -0.364 N 
HETATM   25  C   UNL     1     -42.158  57.133 -60.247  1.00  0.00     0.005 A 
HETATM   26  C   UNL     1     -42.719  56.069 -59.549  1.00  0.00     0.043 A 
HETATM   27  H   UNL     1     -41.506  60.359 -57.618  1.00  0.00     0.165 HD
HETATM   28  C   UNL     1     -42.323  59.130 -56.102  1.00  0.00     0.106 A 
HETATM   29  F   UNL     1     -43.523  55.135 -57.553  1.00  0.00    -0.205 F 
ENDBRANCH   2  19
TORSDOF 3
ENDMDL
MODEL 4
REMARK VINA RESULT:      -8.4      2.388      7.626
REMARK  3 active torsions:
REMARK  status: ('A' for Active; 'I' for Inactive)
REMARK    1  A    between atoms: C_12  and  C_13 
REMARK    2  A    between atoms: C_13  and  N_14 
REMARK       I    between atoms: N_14  and  C_15 
REMARK    3  A    between atoms: C_15  and  C_16 
ROOT
HETATM    1  N   UNL     1     -42.806  55.468 -55.027  1.00  0.00    -0.352 N 
HETATM    2  C   UNL     1     -43.531  56.613 -55.232  1.00  0.00     0.254 C 
HETATM    3  O   UNL     1     -44.567  56.849 -54.615  1.00  0.00    -0.268 OA
HETATM    4  H   UNL     1     -41.985  55.306 -55.592  1.00  0.00     0.163 HD
ENDROOT
BRANCH   1   5
HETATM    5  C   UNL     1     -43.234  54.412 -54.143  1.00  0.00     0.165 C 
BRANCH   5   6
HETATM    6  C   UNL     1     -42.331  54.297 -52.950  1.00  0.00     0.008 C 
HETATM    7  C   UNL     1     -41.154  53.316 -52.993  1.00  0.00     0.043 C 
HETATM    8  C   UNL     1     -40.795  52.670 -54.316  1.00  0.00     0.071 C 
HETATM    9  N   UNL     1     -40.389  52.989 -51.988  1.00  0.00    -0.234 NA
HETATM   10  C   UNL     1     -40.709  53.624 -50.824  1.00  0.00     0.154 C 
HETATM   11  C   UNL     1     -40.165  53.323 -49.638  1.00  0.00     0.128 C 
HETATM   12  N   UNL     1     -41.654  54.624 -50.704  1.00  0.00    -0.239 N 
HETATM   13  C   UNL     1     -40.824  54.237 -48.684  1.00  0.00     0.263 C 
HETATM   14  N   UNL     1     -41.823  54.910 -49.367  1.00  0.00    -0.258 N 
HETATM   15  O   UNL     1     -40.500  54.387 -47.520  1.00  0.00    -0.267 OA
HETATM   16  H   UNL     1     -42.102  55.832 -49.064  1.00  0.00     0.191 HD
HETATM   17  C   UNL     1     -42.516  54.911 -51.750  1.00  0.00     0.042 C 
HETATM   18  C   UNL     1     -43.619  55.899 -51.463  1.00  0.00     0.071 C 
ENDBRANCH   5   6
ENDBRANCH   1   5
BRANCH   2  19
HETATM   19  C   UNL     1     -43.003  57.542 -56.240  1.00  0.00     0.062 A 
HETATM   20  C   UNL     1     -42.769  57.405 -57.657  1.00  0.00     0.046 A 
HETATM   21  C   UNL     1     -42.266  58.627 -58.120  1.00  0.00     0.046 A 
HETATM   22  C   UNL     1     -42.932  56.382 -58.619  1.00  0.00     0.130 A 
HETATM   23  C   UNL     1     -41.930  58.860 -59.462  1.00  0.00     0.030 A 
HETATM   24  N   UNL     1     -42.190  59.474 -57.041  1.00  0.00    -0.364 N 
HETATM   25  C   UNL     1     -42.108  57.819 -60.376  1.00  0.00     0.005 A 
HETATM   26  C   UNL     1     -42.604  56.588 -59.960  1.00  0.00     0.043 A 
HETATM   27  H   UNL     1     -41.861  60.429 -57.079  1.00  0.00     0.165 HD
HETATM   28  C   UNL     1     -42.631  58.838 -55.917  1.00  0.00     0.106 A 
HETATM   29  F   UNL     1     -43.409  55.179 -58.266  1.00  0.00    -0.205 F 
ENDBRANCH   2  19
TORSDOF 3
ENDMDL
MODEL 5
REMARK VINA RESULT:      -8.4      1.768      2.125
REMARK  3 active torsions:
REMARK  status: ('A' for Active; 'I' for Inactive)
REMARK    1  A    between atoms: C_12  and  C_13 
REMARK    2  A    between atoms: C_13  and  N_14 
REMARK       I    between atoms: N_14  and  C_15 
REMARK    3  A    between atoms: C_15  and  C_16 
ROOT
HETATM    1  N   UNL     1     -42.398  55.879 -51.594  1.00  0.00    -0.352 N 
HETATM    2  C   UNL     1     -41.248  55.548 -50.924  1.00  0.00     0.254 C 
HETATM    3  O   UNL     1     -40.615  56.372 -50.267  1.00  0.00    -0.268 OA
HETATM    4  H   UNL     1     -42.854  55.172 -52.153  1.00  0.00     0.163 HD
ENDROOT
BRANCH   1   5
HETATM    5  C   UNL     1     -42.914  57.225 -51.657  1.00  0.00     0.165 C 
BRANCH   5   6
HETATM    6  C   UNL     1     -42.582  57.876 -52.968  1.00  0.00     0.008 C 
HETATM    7  C   UNL     1     -41.584  59.039 -52.995  1.00  0.00     0.043 C 
HETATM    8  C   UNL     1     -40.785  59.339 -51.742  1.00  0.00     0.071 C 
HETATM    9  N   UNL     1     -41.322  59.804 -54.019  1.00  0.00    -0.234 NA
HETATM   10  C   UNL     1     -42.022  59.477 -55.142  1.00  0.00     0.154 C 
HETATM   11  C   UNL     1     -42.032  60.221 -56.256  1.00  0.00     0.128 C 
HETATM   12  N   UNL     1     -42.839  58.370 -55.270  1.00  0.00    -0.239 N 
HETATM   13  C   UNL     1     -42.932  59.497 -57.177  1.00  0.00     0.263 C 
HETATM   14  N   UNL     1     -43.504  58.451 -56.473  1.00  0.00    -0.258 N 
HETATM   15  O   UNL     1     -43.090  59.766 -58.355  1.00  0.00    -0.267 OA
HETATM   16  H   UNL     1     -43.794  57.618 -56.964  1.00  0.00     0.191 HD
HETATM   17  C   UNL     1     -43.176  57.609 -54.162  1.00  0.00     0.042 C 
HETATM   18  C   UNL     1     -44.204  56.527 -54.376  1.00  0.00     0.071 C 
ENDBRANCH   5   6
ENDBRANCH   1   5
BRANCH   2  19
HETATM   19  C   UNL     1     -40.808  54.153 -51.043  1.00  0.00     0.062 A 
HETATM   20  C   UNL     1     -40.480  53.333 -52.184  1.00  0.00     0.046 A 
HETATM   21  C   UNL     1     -40.102  52.074 -51.702  1.00  0.00     0.046 A 
HETATM   22  C   UNL     1     -40.449  53.509 -53.586  1.00  0.00     0.130 A 
HETATM   23  C   UNL     1     -39.708  51.018 -52.538  1.00  0.00     0.030 A 
HETATM   24  N   UNL     1     -40.197  52.114 -50.332  1.00  0.00    -0.364 N 
HETATM   25  C   UNL     1     -39.693  51.240 -53.917  1.00  0.00     0.005 A 
HETATM   26  C   UNL     1     -40.061  52.475 -54.440  1.00  0.00     0.043 A 
HETATM   27  H   UNL     1     -39.984  51.341 -49.716  1.00  0.00     0.165 HD
HETATM   28  C   UNL     1     -40.612  53.350 -49.930  1.00  0.00     0.106 A 
HETATM   29  F   UNL     1     -40.793  54.683 -54.137  1.00  0.00    -0.205 F 
ENDBRANCH   2  19
TORSDOF 3
ENDMDL
MODEL 6
REMARK VINA RESULT:      -8.2      3.946      4.719
REMARK  3 active torsions:
REMARK  status: ('A' for Active; 'I' for Inactive)
REMARK    1  A    between atoms: C_12  and  C_13 
REMARK    2  A    between atoms: C_13  and  N_14 
REMARK       I    between atoms: N_14  and  C_15 
REMARK    3  A    between atoms: C_15  and  C_16 
ROOT
HETATM    1  N   UNL     1     -41.291  55.691 -51.548  1.00  0.00    -0.352 N 
HETATM    2  C   UNL     1     -40.700  54.495 -51.229  1.00  0.00     0.254 C 
HETATM    3  O   UNL     1     -40.384  54.211 -50.075  1.00  0.00    -0.268 OA
HETATM    4  H   UNL     1     -41.491  55.888 -52.518  1.00  0.00     0.163 HD
ENDROOT
BRANCH   1   5
HETATM    5  C   UNL     1     -41.512  56.743 -50.586  1.00  0.00     0.165 C 
BRANCH   5   6
HETATM    6  C   UNL     1     -42.123  57.953 -51.231  1.00  0.00     0.008 C 
HETATM    7  C   UNL     1     -41.231  59.154 -51.566  1.00  0.00     0.043 C 
HETATM    8  C   UNL     1     -39.728  58.994 -51.459  1.00  0.00     0.071 C 
HETATM    9  N   UNL     1     -41.639  60.325 -51.971  1.00  0.00    -0.234 NA
HETATM   10  C   UNL     1     -42.993  60.420 -52.103  1.00  0.00     0.154 C 
HETATM   11  C   UNL     1     -43.638  61.567 -52.348  1.00  0.00     0.128 C 
HETATM   12  N   UNL     1     -43.877  59.366 -51.963  1.00  0.00    -0.239 N 
HETATM   13  C   UNL     1     -45.066  61.190 -52.381  1.00  0.00     0.263 C 
HETATM   14  N   UNL     1     -45.161  59.862 -52.001  1.00  0.00    -0.258 N 
HETATM   15  O   UNL     1     -45.976  61.923 -52.728  1.00  0.00    -0.267 OA
HETATM   16  H   UNL     1     -45.926  59.298 -52.341  1.00  0.00     0.191 HD
HETATM   17  C   UNL     1     -43.449  58.149 -51.456  1.00  0.00     0.042 C 
HETATM   18  C   UNL     1     -44.519  57.121 -51.183  1.00  0.00     0.071 C 
ENDBRANCH   5   6
ENDBRANCH   1   5
BRANCH   2  19
HETATM   19  C   UNL     1     -40.459  53.574 -52.345  1.00  0.00     0.062 A 
HETATM   20  C   UNL     1     -40.131  52.169 -52.390  1.00  0.00     0.046 A 
HETATM   21  C   UNL     1     -40.031  51.803 -53.738  1.00  0.00     0.046 A 
HETATM   22  C   UNL     1     -39.912  51.146 -51.439  1.00  0.00     0.130 A 
HETATM   23  C   UNL     1     -39.731  50.499 -54.160  1.00  0.00     0.030 A 
HETATM   24  N   UNL     1     -40.281  52.928 -54.487  1.00  0.00    -0.364 N 
HETATM   25  C   UNL     1     -39.522  49.523 -53.183  1.00  0.00     0.005 A 
HETATM   26  C   UNL     1     -39.610  49.841 -51.833  1.00  0.00     0.043 A 
HETATM   27  H   UNL     1     -40.277  52.961 -55.498  1.00  0.00     0.165 HD
HETATM   28  C   UNL     1     -40.541  53.986 -53.666  1.00  0.00     0.106 A 
HETATM   29  F   UNL     1     -39.988  51.405 -50.125  1.00  0.00    -0.205 F 
ENDBRANCH   2  19
TORSDOF 3
ENDMDL
MODEL 7
REMARK VINA RESULT:      -8.0      3.087      5.195
REMARK  3 active torsions:
REMARK  status: ('A' for Active; 'I' for Inactive)
REMARK    1  A    between atoms: C_12  and  C_13 
REMARK    2  A    between atoms: C_13  and  N_14 
REMARK       I    between atoms: N_14  and  C_15 
REMARK    3  A    between atoms: C_15  and  C_16 
ROOT
HETATM    1  N   UNL     1     -42.478  56.622 -53.336  1.00  0.00    -0.352 N 
HETATM    2  C   UNL     1     -42.747  55.281 -53.246  1.00  0.00     0.254 C 
HETATM    3  O   UNL     1     -43.784  54.792 -53.688  1.00  0.00    -0.268 OA
HETATM    4  H   UNL     1     -41.629  56.976 -52.918  1.00  0.00     0.163 HD
ENDROOT
BRANCH   1   5
HETATM    5  C   UNL     1     -43.414  57.580 -53.873  1.00  0.00     0.165 C 
BRANCH   5   6
HETATM    6  C   UNL     1     -43.558  58.769 -52.968  1.00  0.00     0.008 C 
HETATM    7  C   UNL     1     -42.768  60.046 -53.277  1.00  0.00     0.043 C 
HETATM    8  C   UNL     1     -42.054  60.153 -54.610  1.00  0.00     0.071 C 
HETATM    9  N   UNL     1     -42.663  61.091 -52.504  1.00  0.00    -0.234 NA
HETATM   10  C   UNL     1     -43.356  60.981 -51.334  1.00  0.00     0.154 C 
HETATM   11  C   UNL     1     -43.261  61.859 -50.328  1.00  0.00     0.128 C 
HETATM   12  N   UNL     1     -44.208  59.941 -51.015  1.00  0.00    -0.239 N 
HETATM   13  C   UNL     1     -44.156  61.323 -49.282  1.00  0.00     0.263 C 
HETATM   14  N   UNL     1     -44.598  60.080 -49.702  1.00  0.00    -0.258 N 
HETATM   15  O   UNL     1     -44.469  61.909 -48.261  1.00  0.00    -0.267 OA
HETATM   16  H   UNL     1     -45.492  59.734 -49.386  1.00  0.00     0.191 HD
HETATM   17  C   UNL     1     -44.254  58.800 -51.800  1.00  0.00     0.042 C 
HETATM   18  C   UNL     1     -45.087  57.656 -51.277  1.00  0.00     0.071 C 
ENDBRANCH   5   6
ENDBRANCH   1   5
BRANCH   2  19
HETATM   19  C   UNL     1     -41.727  54.459 -52.583  1.00  0.00     0.062 A 
HETATM   20  C   UNL     1     -41.062  53.239 -52.971  1.00  0.00     0.046 A 
HETATM   21  C   UNL     1     -40.161  52.909 -51.951  1.00  0.00     0.046 A 
HETATM   22  C   UNL     1     -41.107  52.366 -54.081  1.00  0.00     0.130 A 
HETATM   23  C   UNL     1     -39.331  51.778 -51.995  1.00  0.00     0.030 A 
HETATM   24  N   UNL     1     -40.269  53.875 -50.980  1.00  0.00    -0.364 N 
HETATM   25  C   UNL     1     -39.413  50.945 -53.113  1.00  0.00     0.005 A 
HETATM   26  C   UNL     1     -40.293  51.234 -54.149  1.00  0.00     0.043 A 
HETATM   27  H   UNL     1     -39.735  53.894 -50.122  1.00  0.00     0.165 HD
HETATM   28  C   UNL     1     -41.196  54.805 -51.349  1.00  0.00     0.106 A 
HETATM   29  F   UNL     1     -41.939  52.605 -55.106  1.00  0.00    -0.205 F 
ENDBRANCH   2  19
TORSDOF 3
ENDMDL
MODEL 8
REMARK VINA RESULT:      -8.0      2.927      7.476
REMARK  3 active torsions:
REMARK  status: ('A' for Active; 'I' for Inactive)
REMARK    1  A    between atoms: C_12  and  C_13 
REMARK    2  A    between atoms: C_13  and  N_14 
REMARK       I    between atoms: N_14  and  C_15 
REMARK    3  A    between atoms: C_15  and  C_16 
ROOT
HETATM    1  N   UNL     1     -42.347  56.923 -54.707  1.00  0.00    -0.352 N 
HETATM    2  C   UNL     1     -42.703  58.030 -55.434  1.00  0.00     0.254 C 
HETATM    3  O   UNL     1     -41.975  59.017 -55.518  1.00  0.00    -0.268 OA
HETATM    4  H   UNL     1     -43.002  56.158 -54.638  1.00  0.00     0.163 HD
ENDROOT
BRANCH   1   5
HETATM    5  C   UNL     1     -41.144  56.854 -53.915  1.00  0.00     0.165 C 
BRANCH   5   6
HETATM    6  C   UNL     1     -41.056  55.554 -53.168  1.00  0.00     0.008 C 
HETATM    7  C   UNL     1     -41.396  55.525 -51.673  1.00  0.00     0.043 C 
HETATM    8  C   UNL     1     -42.038  56.749 -51.051  1.00  0.00     0.071 C 
HETATM    9  N   UNL     1     -41.210  54.520 -50.863  1.00  0.00    -0.234 NA
HETATM   10  C   UNL     1     -40.675  53.420 -51.465  1.00  0.00     0.154 C 
HETATM   11  C   UNL     1     -40.254  52.337 -50.798  1.00  0.00     0.128 C 
HETATM   12  N   UNL     1     -40.460  53.288 -52.823  1.00  0.00    -0.239 N 
HETATM   13  C   UNL     1     -39.739  51.433 -51.846  1.00  0.00     0.263 C 
HETATM   14  N   UNL     1     -39.762  52.122 -53.046  1.00  0.00    -0.258 N 
HETATM   15  O   UNL     1     -39.403  50.276 -51.668  1.00  0.00    -0.267 OA
HETATM   16  H   UNL     1     -39.863  51.614 -53.913  1.00  0.00     0.191 HD
HETATM   17  C   UNL     1     -40.583  54.381 -53.666  1.00  0.00     0.042 C 
HETATM   18  C   UNL     1     -40.163  54.174 -55.100  1.00  0.00     0.071 C 
ENDBRANCH   5   6
ENDBRANCH   1   5
BRANCH   2  19
HETATM   19  C   UNL     1     -44.008  57.973 -56.103  1.00  0.00     0.062 A 
HETATM   20  C   UNL     1     -44.382  57.838 -57.490  1.00  0.00     0.046 A 
HETATM   21  C   UNL     1     -45.782  57.824 -57.549  1.00  0.00     0.046 A 
HETATM   22  C   UNL     1     -43.697  57.715 -58.720  1.00  0.00     0.130 A 
HETATM   23  C   UNL     1     -46.499  57.698 -58.748  1.00  0.00     0.030 A 
HETATM   24  N   UNL     1     -46.246  57.950 -56.262  1.00  0.00    -0.364 N 
HETATM   25  C   UNL     1     -45.776  57.579 -59.937  1.00  0.00     0.005 A 
HETATM   26  C   UNL     1     -44.387  57.588 -59.927  1.00  0.00     0.043 A 
HETATM   27  H   UNL     1     -47.223  57.971 -56.001  1.00  0.00     0.165 HD
HETATM   28  C   UNL     1     -45.198  58.035 -55.393  1.00  0.00     0.106 A 
HETATM   29  F   UNL     1     -42.356  57.716 -58.759  1.00  0.00    -0.205 F 
ENDBRANCH   2  19
TORSDOF 3
ENDMDL
MODEL 9
REMARK VINA RESULT:      -8.0      3.304      5.081
REMARK  3 active torsions:
REMARK  status: ('A' for Active; 'I' for Inactive)
REMARK    1  A    between atoms: C_12  and  C_13 
REMARK    2  A    between atoms: C_13  and  N_14 
REMARK       I    between atoms: N_14  and  C_15 
REMARK    3  A    between atoms: C_15  and  C_16 
ROOT
HETATM    1  N   UNL     1     -43.274  55.691 -57.208  1.00  0.00    -0.352 N 
HETATM    2  C   UNL     1     -42.702  56.397 -56.182  1.00  0.00     0.254 C 
HETATM    3  O   UNL     1     -42.097  57.450 -56.371  1.00  0.00    -0.268 OA
HETATM    4  H   UNL     1     -43.722  54.811 -57.000  1.00  0.00     0.163 HD
ENDROOT
BRANCH   1   5
HETATM    5  C   UNL     1     -43.145  56.071 -58.594  1.00  0.00     0.165 C 
BRANCH   5   6
HETATM    6  C   UNL     1     -44.476  56.430 -59.189  1.00  0.00     0.008 C 
HETATM    7  C   UNL     1     -45.281  55.354 -59.926  1.00  0.00     0.043 C 
HETATM    8  C   UNL     1     -44.827  53.911 -59.827  1.00  0.00     0.071 C 
HETATM    9  N   UNL     1     -46.363  55.550 -60.628  1.00  0.00    -0.234 NA
HETATM   10  C   UNL     1     -46.770  56.851 -60.657  1.00  0.00     0.154 C 
HETATM   11  C   UNL     1     -47.756  57.305 -61.442  1.00  0.00     0.128 C 
HETATM   12  N   UNL     1     -46.204  57.874 -59.921  1.00  0.00    -0.239 N 
HETATM   13  C   UNL     1     -47.823  58.752 -61.156  1.00  0.00     0.263 C 
HETATM   14  N   UNL     1     -46.761  59.067 -60.325  1.00  0.00    -0.258 N 
HETATM   15  O   UNL     1     -48.693  59.505 -61.555  1.00  0.00    -0.267 OA
HETATM   16  H   UNL     1     -46.838  59.846 -59.688  1.00  0.00     0.191 HD
HETATM   17  C   UNL     1     -45.012  57.678 -59.242  1.00  0.00     0.042 C 
HETATM   18  C   UNL     1     -44.390  58.898 -58.610  1.00  0.00     0.071 C 
ENDBRANCH   5   6
ENDBRANCH   1   5
BRANCH   2  19
HETATM   19  C   UNL     1     -42.845  55.820 -54.840  1.00  0.00     0.062 A 
HETATM   20  C   UNL     1     -42.045  54.872 -54.101  1.00  0.00     0.046 A 
HETATM   21  C   UNL     1     -42.651  54.696 -52.850  1.00  0.00     0.046 A 
HETATM   22  C   UNL     1     -40.861  54.139 -54.339  1.00  0.00     0.130 A 
HETATM   23  C   UNL     1     -42.137  53.844 -51.862  1.00  0.00     0.030 A 
HETATM   24  N   UNL     1     -43.771  55.492 -52.822  1.00  0.00    -0.364 N 
HETATM   25  C   UNL     1     -40.964  53.139 -52.144  1.00  0.00     0.005 A 
HETATM   26  C   UNL     1     -40.330  53.283 -53.373  1.00  0.00     0.043 A 
HETATM   27  H   UNL     1     -44.405  55.567 -52.038  1.00  0.00     0.165 HD
HETATM   28  C   UNL     1     -43.892  56.168 -54.000  1.00  0.00     0.106 A 
HETATM   29  F   UNL     1     -40.212  54.247 -55.509  1.00  0.00    -0.205 F 
ENDBRANCH   2  19
TORSDOF 3
ENDMDL
MODEL 10
REMARK VINA RESULT:      -7.9      3.037      7.983
REMARK  3 active torsions:
REMARK  status: ('A' for Active; 'I' for Inactive)
REMARK    1  A    between atoms: C_12  and  C_13 
REMARK    2  A    between atoms: C_13  and  N_14 
REMARK       I    between atoms: N_14  and  C_15 
REMARK    3  A    between atoms: C_15  and  C_16 
ROOT
HETATM    1  N   UNL     1     -42.851  56.302 -56.422  1.00  0.00    -0.352 N 
HETATM    2  C   UNL     1     -42.936  56.906 -57.649  1.00  0.00     0.254 C 
HETATM    3  O   UNL     1     -42.215  57.850 -57.964  1.00  0.00    -0.268 OA
HETATM    4  H   UNL     1     -43.497  55.558 -56.201  1.00  0.00     0.163 HD
ENDROOT
BRANCH   1   5
HETATM    5  C   UNL     1     -41.979  56.770 -55.372  1.00  0.00     0.165 C 
BRANCH   5   6
HETATM    6  C   UNL     1     -41.987  55.835 -54.197  1.00  0.00     0.008 C 
HETATM    7  C   UNL     1     -42.915  56.128 -53.013  1.00  0.00     0.043 C 
HETATM    8  C   UNL     1     -43.964  57.212 -53.163  1.00  0.00     0.071 C 
HETATM    9  N   UNL     1     -42.915  55.508 -51.865  1.00  0.00    -0.234 NA
HETATM   10  C   UNL     1     -41.991  54.508 -51.781  1.00  0.00     0.154 C 
HETATM   11  C   UNL     1     -41.708  53.851 -50.648  1.00  0.00     0.128 C 
HETATM   12  N   UNL     1     -41.204  54.069 -52.827  1.00  0.00    -0.239 N 
HETATM   13  C   UNL     1     -40.649  52.895 -51.030  1.00  0.00     0.263 C 
HETATM   14  N   UNL     1     -40.284  53.169 -52.337  1.00  0.00    -0.258 N 
HETATM   15  O   UNL     1     -40.221  52.004 -50.318  1.00  0.00    -0.267 OA
HETATM   16  H   UNL     1     -39.919  52.429 -52.919  1.00  0.00     0.191 HD
HETATM   17  C   UNL     1     -41.150  54.779 -54.016  1.00  0.00     0.042 C 
HETATM   18  C   UNL     1     -40.136  54.314 -55.031  1.00  0.00     0.071 C 
ENDBRANCH   5   6
ENDBRANCH   1   5
BRANCH   2  19
HETATM   19  C   UNL     1     -43.946  56.366 -58.568  1.00  0.00     0.062 A 
HETATM   20  C   UNL     1     -45.065  56.975 -59.246  1.00  0.00     0.046 A 
HETATM   21  C   UNL     1     -45.681  55.981 -60.017  1.00  0.00     0.046 A 
HETATM   22  C   UNL     1     -45.634  58.267 -59.308  1.00  0.00     0.130 A 
HETATM   23  C   UNL     1     -46.806  56.219 -60.820  1.00  0.00     0.030 A 
HETATM   24  N   UNL     1     -44.979  54.816 -59.819  1.00  0.00    -0.364 N 
HETATM   25  C   UNL     1     -47.333  57.512 -60.848  1.00  0.00     0.005 A 
HETATM   26  C   UNL     1     -46.754  58.530 -60.099  1.00  0.00     0.043 A 
HETATM   27  H   UNL     1     -45.199  53.929 -60.253  1.00  0.00     0.165 HD
HETATM   28  C   UNL     1     -43.942  55.036 -58.962  1.00  0.00     0.106 A 
HETATM   29  F   UNL     1     -45.109  59.281 -58.605  1.00  0.00    -0.205 F 
ENDBRANCH   2  19
TORSDOF 3
ENDMDL
