MODEL 1
REMARK VINA RESULT:      -8.9      0.000      0.000
REMARK  6 active torsions:
REMARK  status: ('A' for Active; 'I' for Inactive)
REMARK    1  A    between atoms: C_4  and  C_5 
REMARK    2  A    between atoms: C_7  and  C_8 
REMARK    3  A    between atoms: C_11  and  C_12 
REMARK       I    between atoms: C_12  and  N_13 
REMARK    4  A    between atoms: N_13  and  C_14 
REMARK    5  A    between atoms: C_14  and  C_15 
REMARK    6  A    between atoms: C_18  and  N_19 
REMARK       I    between atoms: N_19  and  C_20 
REMARK       I    between atoms: C_20  and  N_21 
ROOT
HETATM    1  C   UNL     1     -41.306  56.799 -54.128  1.00  0.00     0.273 C 
HETATM    2  N   UNL     1     -42.152  56.722 -55.211  1.00  0.00    -0.351 N 
HETATM    3  O   UNL     1     -40.751  57.840 -53.791  1.00  0.00    -0.266 OA
HETATM    4  H   UNL     1     -42.647  55.848 -55.356  1.00  0.00     0.163 HD
ENDROOT
BRANCH   1   5
HETATM    5  C   UNL     1     -41.143  55.527 -53.433  1.00  0.00     0.157 A 
HETATM    6  C   UNL     1     -41.391  55.246 -52.103  1.00  0.00     0.094 A 
HETATM    7  O   UNL     1     -41.077  53.930 -51.894  1.00  0.00    -0.293 OA
HETATM    8  C   UNL     1     -40.653  53.469 -53.110  1.00  0.00     0.180 A 
HETATM    9  N   UNL     1     -40.684  54.375 -54.070  1.00  0.00    -0.216 NA
BRANCH   6  10
HETATM   10  C   UNL     1     -41.916  56.169 -51.018  1.00  0.00     0.046 A 
HETATM   11  C   UNL     1     -41.431  55.939 -49.602  1.00  0.00     0.012 A 
HETATM   12  C   UNL     1     -40.936  57.120 -50.362  1.00  0.00     0.012 A 
ENDBRANCH   6  10
BRANCH   8  13
HETATM   13  C   UNL     1     -40.224  52.074 -53.162  1.00  0.00     0.017 A 
HETATM   14  C   UNL     1     -40.261  51.332 -54.354  1.00  0.00     0.016 A 
HETATM   15  C   UNL     1     -39.856  49.995 -54.378  1.00  0.00     0.001 A 
HETATM   16  C   UNL     1     -39.408  49.381 -53.211  1.00  0.00     0.000 A 
HETATM   17  C   UNL     1     -39.364  50.102 -52.019  1.00  0.00     0.001 A 
HETATM   18  C   UNL     1     -39.769  51.440 -51.996  1.00  0.00     0.016 A 
ENDBRANCH   8  13
ENDBRANCH   1   5
BRANCH   2  19
HETATM   19  C   UNL     1     -42.469  57.897 -55.980  1.00  0.00     0.161 C 
BRANCH  19  20
HETATM   20  C   UNL     1     -43.166  57.594 -57.280  1.00  0.00    -0.040 A 
HETATM   21  C   UNL     1     -43.004  56.340 -57.880  1.00  0.00     0.011 A 
HETATM   22  C   UNL     1     -43.697  56.005 -59.049  1.00  0.00     0.030 A 
HETATM   23  C   UNL     1     -44.574  56.915 -59.636  1.00  0.00     0.035 A 
HETATM   24  C   UNL     1     -44.736  58.173 -59.045  1.00  0.00     0.030 A 
HETATM   25  C   UNL     1     -44.048  58.507 -57.872  1.00  0.00     0.011 A 
BRANCH  23  26
HETATM   26  N   UNL     1     -45.314  56.643 -60.803  1.00  0.00    -0.314 N 
HETATM   27  C   UNL     1     -46.625  56.255 -60.887  1.00  0.00     0.296 C 
HETATM   28  N   UNL     1     -47.000  56.017 -62.178  1.00  0.00    -0.254 NA
HETATM   29  O   UNL     1     -47.442  56.123 -59.988  1.00  0.00    -0.254 OA
HETATM   30  H   UNL     1     -46.335  55.529 -62.761  1.00  0.00     0.128 HD
HETATM   31  H   UNL     1     -47.943  55.649 -62.237  1.00  0.00     0.128 HD
HETATM   32  H   UNL     1     -44.889  56.895 -61.682  1.00  0.00     0.170 HD
ENDBRANCH  23  26
ENDBRANCH  19  20
ENDBRANCH   2  19
TORSDOF 6
ENDMDL
MODEL 2
REMARK VINA RESULT:      -8.7      1.301      1.595
REMARK  6 active torsions:
REMARK  status: ('A' for Active; 'I' for Inactive)
REMARK    1  A    between atoms: C_4  and  C_5 
REMARK    2  A    between atoms: C_7  and  C_8 
REMARK    3  A    between atoms: C_11  and  C_12 
REMARK       I    between atoms: C_12  and  N_13 
REMARK    4  A    between atoms: N_13  and  C_14 
REMARK    5  A    between atoms: C_14  and  C_15 
REMARK    6  A    between atoms: C_18  and  N_19 
REMARK       I    between atoms: N_19  and  C_20 
REMARK       I    between atoms: C_20  and  N_21 
ROOT
HETATM    1  C   UNL     1     -42.999  56.520 -54.171  1.00  0.00     0.273 C 
HETATM    2  N   UNL     1     -42.165  57.369 -54.863  1.00  0.00    -0.351 N 
HETATM    3  O   UNL     1     -44.220  56.645 -54.168  1.00  0.00    -0.266 OA
HETATM    4  H   UNL     1     -41.179  57.131 -54.895  1.00  0.00     0.163 HD
ENDROOT
BRANCH   1   5
HETATM    5  C   UNL     1     -42.286  55.470 -53.453  1.00  0.00     0.157 A 
HETATM    6  C   UNL     1     -41.878  55.468 -52.132  1.00  0.00     0.094 A 
HETATM    7  O   UNL     1     -41.229  54.285 -51.903  1.00  0.00    -0.293 OA
HETATM    8  C   UNL     1     -41.275  53.619 -53.097  1.00  0.00     0.180 A 
HETATM    9  N   UNL     1     -41.905  54.272 -54.055  1.00  0.00    -0.216 NA
BRANCH   6  10
HETATM   10  C   UNL     1     -42.077  56.538 -51.074  1.00  0.00     0.046 A 
HETATM   11  C   UNL     1     -41.165  56.511 -49.865  1.00  0.00     0.012 A 
HETATM   12  C   UNL     1     -40.982  57.570 -50.896  1.00  0.00     0.012 A 
ENDBRANCH   6  10
BRANCH   8  13
HETATM   13  C   UNL     1     -40.620  52.314 -53.138  1.00  0.00     0.017 A 
HETATM   14  C   UNL     1     -39.974  51.773 -52.014  1.00  0.00     0.016 A 
HETATM   15  C   UNL     1     -39.345  50.527 -52.080  1.00  0.00     0.001 A 
HETATM   16  C   UNL     1     -39.351  49.805 -53.270  1.00  0.00     0.000 A 
HETATM   17  C   UNL     1     -39.987  50.325 -54.396  1.00  0.00     0.001 A 
HETATM   18  C   UNL     1     -40.617  51.571 -54.329  1.00  0.00     0.016 A 
ENDBRANCH   8  13
ENDBRANCH   1   5
BRANCH   2  19
HETATM   19  C   UNL     1     -42.704  58.431 -55.671  1.00  0.00     0.161 C 
BRANCH  19  20
HETATM   20  C   UNL     1     -43.150  57.980 -57.037  1.00  0.00    -0.040 A 
HETATM   21  C   UNL     1     -42.205  57.518 -57.960  1.00  0.00     0.011 A 
HETATM   22  C   UNL     1     -42.598  57.023 -59.208  1.00  0.00     0.030 A 
HETATM   23  C   UNL     1     -43.947  56.973 -59.556  1.00  0.00     0.035 A 
HETATM   24  C   UNL     1     -44.897  57.441 -58.641  1.00  0.00     0.030 A 
HETATM   25  C   UNL     1     -44.505  57.929 -57.389  1.00  0.00     0.011 A 
BRANCH  23  26
HETATM   26  N   UNL     1     -44.417  56.477 -60.788  1.00  0.00    -0.314 N 
HETATM   27  C   UNL     1     -44.890  55.220 -61.054  1.00  0.00     0.296 C 
HETATM   28  N   UNL     1     -45.202  55.066 -62.375  1.00  0.00    -0.254 NA
HETATM   29  O   UNL     1     -45.064  54.289 -60.282  1.00  0.00    -0.254 OA
HETATM   30  H   UNL     1     -44.560  55.470 -63.042  1.00  0.00     0.128 HD
HETATM   31  H   UNL     1     -45.473  54.114 -62.592  1.00  0.00     0.128 HD
HETATM   32  H   UNL     1     -44.560  57.150 -61.526  1.00  0.00     0.170 HD
ENDBRANCH  23  26
ENDBRANCH  19  20
ENDBRANCH   2  19
TORSDOF 6
ENDMDL
MODEL 3
REMARK VINA RESULT:      -8.3      1.627      2.130
REMARK  6 active torsions:
REMARK  status: ('A' for Active; 'I' for Inactive)
REMARK    1  A    between atoms: C_4  and  C_5 
REMARK    2  A    between atoms: C_7  and  C_8 
REMARK    3  A    between atoms: C_11  and  C_12 
REMARK       I    between atoms: C_12  and  N_13 
REMARK    4  A    between atoms: N_13  and  C_14 
REMARK    5  A    between atoms: C_14  and  C_15 
REMARK    6  A    between atoms: C_18  and  N_19 
REMARK       I    between atoms: N_19  and  C_20 
REMARK       I    between atoms: C_20  and  N_21 
ROOT
HETATM    1  C   UNL     1     -42.656  56.783 -55.762  1.00  0.00     0.273 C 
HETATM    2  N   UNL     1     -42.322  56.413 -57.045  1.00  0.00    -0.351 N 
HETATM    3  O   UNL     1     -43.143  57.877 -55.491  1.00  0.00    -0.266 OA
HETATM    4  H   UNL     1     -42.022  55.455 -57.191  1.00  0.00     0.163 HD
ENDROOT
BRANCH   1   5
HETATM    5  C   UNL     1     -42.374  55.750 -54.772  1.00  0.00     0.157 A 
HETATM    6  C   UNL     1     -42.826  55.674 -53.468  1.00  0.00     0.094 A 
HETATM    7  O   UNL     1     -42.291  54.545 -52.911  1.00  0.00    -0.293 OA
HETATM    8  C   UNL     1     -41.537  53.982 -53.904  1.00  0.00     0.180 A 
HETATM    9  N   UNL     1     -41.560  54.651 -55.042  1.00  0.00    -0.216 NA
BRANCH   6  10
HETATM   10  C   UNL     1     -43.747  56.624 -52.725  1.00  0.00     0.046 A 
HETATM   11  C   UNL     1     -43.752  56.562 -51.211  1.00  0.00     0.012 A 
HETATM   12  C   UNL     1     -43.112  57.721 -51.894  1.00  0.00     0.012 A 
ENDBRANCH   6  10
BRANCH   8  13
HETATM   13  C   UNL     1     -40.821  52.756 -53.562  1.00  0.00     0.017 A 
HETATM   14  C   UNL     1     -40.712  51.685 -54.463  1.00  0.00     0.016 A 
HETATM   15  C   UNL     1     -40.031  50.517 -54.109  1.00  0.00     0.001 A 
HETATM   16  C   UNL     1     -39.450  50.404 -52.849  1.00  0.00     0.000 A 
HETATM   17  C   UNL     1     -39.547  51.457 -51.941  1.00  0.00     0.001 A 
HETATM   18  C   UNL     1     -40.227  52.625 -52.297  1.00  0.00     0.016 A 
ENDBRANCH   8  13
ENDBRANCH   1   5
BRANCH   2  19
HETATM   19  C   UNL     1     -42.583  57.292 -58.155  1.00  0.00     0.161 C 
BRANCH  19  20
HETATM   20  C   UNL     1     -43.851  56.963 -58.897  1.00  0.00    -0.040 A 
HETATM   21  C   UNL     1     -45.047  57.601 -58.546  1.00  0.00     0.011 A 
HETATM   22  C   UNL     1     -46.225  57.370 -59.266  1.00  0.00     0.030 A 
HETATM   23  C   UNL     1     -46.228  56.504 -60.357  1.00  0.00     0.035 A 
HETATM   24  C   UNL     1     -45.037  55.858 -60.709  1.00  0.00     0.030 A 
HETATM   25  C   UNL     1     -43.857  56.093 -59.994  1.00  0.00     0.011 A 
BRANCH  23  26
HETATM   26  N   UNL     1     -47.371  56.233 -61.135  1.00  0.00    -0.314 N 
HETATM   27  C   UNL     1     -48.140  57.131 -61.827  1.00  0.00     0.296 C 
HETATM   28  N   UNL     1     -49.211  56.528 -62.421  1.00  0.00    -0.254 NA
HETATM   29  O   UNL     1     -47.970  58.333 -61.969  1.00  0.00    -0.254 OA
HETATM   30  H   UNL     1     -49.693  55.825 -61.879  1.00  0.00     0.128 HD
HETATM   31  H   UNL     1     -49.828  57.200 -62.863  1.00  0.00     0.128 HD
HETATM   32  H   UNL     1     -47.572  55.264 -61.329  1.00  0.00     0.170 HD
ENDBRANCH  23  26
ENDBRANCH  19  20
ENDBRANCH   2  19
TORSDOF 6
ENDMDL
MODEL 4
REMARK VINA RESULT:      -8.2      3.415      9.177
REMARK  6 active torsions:
REMARK  status: ('A' for Active; 'I' for Inactive)
REMARK    1  A    between atoms: C_4  and  C_5 
REMARK    2  A    between atoms: C_7  and  C_8 
REMARK    3  A    between atoms: C_11  and  C_12 
REMARK       I    between atoms: C_12  and  N_13 
REMARK    4  A    between atoms: N_13  and  C_14 
REMARK    5  A    between atoms: C_14  and  C_15 
REMARK    6  A    between atoms: C_18  and  N_19 
REMARK       I    between atoms: N_19  and  C_20 
REMARK       I    between atoms: C_20  and  N_21 
ROOT
HETATM    1  C   UNL     1     -42.822  56.723 -55.761  1.00  0.00     0.273 C 
HETATM    2  N   UNL     1     -41.832  55.766 -55.755  1.00  0.00    -0.351 N 
HETATM    3  O   UNL     1     -43.977  56.486 -55.418  1.00  0.00    -0.266 OA
HETATM    4  H   UNL     1     -40.886  56.073 -55.954  1.00  0.00     0.163 HD
ENDROOT
BRANCH   1   5
HETATM    5  C   UNL     1     -42.358  58.030 -56.211  1.00  0.00     0.157 A 
HETATM    6  C   UNL     1     -41.990  59.115 -55.438  1.00  0.00     0.094 A 
HETATM    7  O   UNL     1     -41.645  60.129 -56.289  1.00  0.00    -0.293 OA
HETATM    8  C   UNL     1     -41.818  59.613 -57.544  1.00  0.00     0.180 A 
HETATM    9  N   UNL     1     -42.229  58.359 -57.559  1.00  0.00    -0.216 NA
BRANCH   6  10
HETATM   10  C   UNL     1     -41.947  59.233 -53.925  1.00  0.00     0.046 A 
HETATM   11  C   UNL     1     -41.600  57.990 -53.131  1.00  0.00     0.012 A 
HETATM   12  C   UNL     1     -40.602  59.090 -53.242  1.00  0.00     0.012 A 
ENDBRANCH   6  10
BRANCH   8  13
HETATM   13  C   UNL     1     -41.540  60.513 -58.661  1.00  0.00     0.017 A 
HETATM   14  C   UNL     1     -42.007  60.251 -59.959  1.00  0.00     0.016 A 
HETATM   15  C   UNL     1     -41.720  61.121 -61.014  1.00  0.00     0.001 A 
HETATM   16  C   UNL     1     -40.960  62.265 -60.785  1.00  0.00     0.000 A 
HETATM   17  C   UNL     1     -40.488  62.543 -59.505  1.00  0.00     0.001 A 
HETATM   18  C   UNL     1     -40.777  61.673 -58.450  1.00  0.00     0.016 A 
ENDBRANCH   8  13
ENDBRANCH   1   5
BRANCH   2  19
HETATM   19  C   UNL     1     -42.103  54.432 -55.288  1.00  0.00     0.161 C 
BRANCH  19  20
HETATM   20  C   UNL     1     -41.823  54.241 -53.821  1.00  0.00    -0.040 A 
HETATM   21  C   UNL     1     -42.879  54.270 -52.902  1.00  0.00     0.011 A 
HETATM   22  C   UNL     1     -42.659  54.021 -51.542  1.00  0.00     0.030 A 
HETATM   23  C   UNL     1     -41.378  53.731 -51.075  1.00  0.00     0.035 A 
HETATM   24  C   UNL     1     -40.317  53.707 -51.988  1.00  0.00     0.030 A 
HETATM   25  C   UNL     1     -40.537  53.948 -53.349  1.00  0.00     0.011 A 
BRANCH  23  26
HETATM   26  N   UNL     1     -41.083  53.458 -49.725  1.00  0.00    -0.314 N 
HETATM   27  C   UNL     1     -40.948  54.360 -48.703  1.00  0.00     0.296 C 
HETATM   28  N   UNL     1     -40.597  53.750 -47.534  1.00  0.00    -0.254 NA
HETATM   29  O   UNL     1     -41.113  55.571 -48.726  1.00  0.00    -0.254 OA
HETATM   30  H   UNL     1     -39.908  53.014 -47.595  1.00  0.00     0.128 HD
HETATM   31  H   UNL     1     -40.414  54.421 -46.796  1.00  0.00     0.128 HD
HETATM   32  H   UNL     1     -41.114  52.492 -49.437  1.00  0.00     0.170 HD
ENDBRANCH  23  26
ENDBRANCH  19  20
ENDBRANCH   2  19
TORSDOF 6
ENDMDL
MODEL 5
REMARK VINA RESULT:      -8.2      3.296      9.257
REMARK  6 active torsions:
REMARK  status: ('A' for Active; 'I' for Inactive)
REMARK    1  A    between atoms: C_4  and  C_5 
REMARK    2  A    between atoms: C_7  and  C_8 
REMARK    3  A    between atoms: C_11  and  C_12 
REMARK       I    between atoms: C_12  and  N_13 
REMARK    4  A    between atoms: N_13  and  C_14 
REMARK    5  A    between atoms: C_14  and  C_15 
REMARK    6  A    between atoms: C_18  and  N_19 
REMARK       I    between atoms: N_19  and  C_20 
REMARK       I    between atoms: C_20  and  N_21 
ROOT
HETATM    1  C   UNL     1     -43.184  57.603 -55.905  1.00  0.00     0.273 C 
HETATM    2  N   UNL     1     -42.042  57.350 -55.180  1.00  0.00    -0.351 N 
HETATM    3  O   UNL     1     -44.300  57.258 -55.530  1.00  0.00    -0.266 OA
HETATM    4  H   UNL     1     -41.176  57.761 -55.513  1.00  0.00     0.163 HD
ENDROOT
BRANCH   1   5
HETATM    5  C   UNL     1     -42.929  58.318 -57.151  1.00  0.00     0.157 A 
HETATM    6  C   UNL     1     -43.357  57.991 -58.424  1.00  0.00     0.094 A 
HETATM    7  O   UNL     1     -42.862  58.935 -59.281  1.00  0.00    -0.293 OA
HETATM    8  C   UNL     1     -42.154  59.797 -58.489  1.00  0.00     0.180 A 
HETATM    9  N   UNL     1     -42.170  59.487 -57.206  1.00  0.00    -0.216 NA
BRANCH   6  10
HETATM   10  C   UNL     1     -44.220  56.822 -58.865  1.00  0.00     0.046 A 
HETATM   11  C   UNL     1     -44.132  56.390 -60.314  1.00  0.00     0.012 A 
HETATM   12  C   UNL     1     -43.522  55.536 -59.257  1.00  0.00     0.012 A 
ENDBRANCH   6  10
BRANCH   8  13
HETATM   13  C   UNL     1     -41.487  60.905 -59.168  1.00  0.00     0.017 A 
HETATM   14  C   UNL     1     -41.660  61.145 -60.541  1.00  0.00     0.016 A 
HETATM   15  C   UNL     1     -41.004  62.204 -61.172  1.00  0.00     0.001 A 
HETATM   16  C   UNL     1     -40.164  63.039 -60.439  1.00  0.00     0.000 A 
HETATM   17  C   UNL     1     -39.980  62.817 -59.076  1.00  0.00     0.001 A 
HETATM   18  C   UNL     1     -40.639  61.758 -58.445  1.00  0.00     0.016 A 
ENDBRANCH   8  13
ENDBRANCH   1   5
BRANCH   2  19
HETATM   19  C   UNL     1     -42.116  56.700 -53.897  1.00  0.00     0.161 C 
BRANCH  19  20
HETATM   20  C   UNL     1     -41.396  55.378 -53.851  1.00  0.00    -0.040 A 
HETATM   21  C   UNL     1     -41.383  54.634 -52.666  1.00  0.00     0.011 A 
HETATM   22  C   UNL     1     -40.786  53.370 -52.615  1.00  0.00     0.030 A 
HETATM   23  C   UNL     1     -40.196  52.820 -53.752  1.00  0.00     0.035 A 
HETATM   24  C   UNL     1     -40.199  53.562 -54.938  1.00  0.00     0.030 A 
HETATM   25  C   UNL     1     -40.803  54.824 -54.993  1.00  0.00     0.011 A 
BRANCH  23  26
HETATM   26  N   UNL     1     -39.588  51.550 -53.779  1.00  0.00    -0.314 N 
HETATM   27  C   UNL     1     -40.157  50.361 -54.153  1.00  0.00     0.296 C 
HETATM   28  N   UNL     1     -39.293  49.315 -53.995  1.00  0.00    -0.254 NA
HETATM   29  O   UNL     1     -41.276  50.156 -54.598  1.00  0.00    -0.254 OA
HETATM   30  H   UNL     1     -38.730  49.315 -53.157  1.00  0.00     0.128 HD
HETATM   31  H   UNL     1     -39.737  48.425 -54.191  1.00  0.00     0.128 HD
HETATM   32  H   UNL     1     -38.589  51.519 -53.648  1.00  0.00     0.170 HD
ENDBRANCH  23  26
ENDBRANCH  19  20
ENDBRANCH   2  19
TORSDOF 6
ENDMDL
MODEL 6
REMARK VINA RESULT:      -8.2     15.217     17.090
REMARK  6 active torsions:
REMARK  status: ('A' for Active; 'I' for Inactive)
REMARK    1  A    between atoms: C_4  and  C_5 
REMARK    2  A    between atoms: C_7  and  C_8 
REMARK    3  A    between atoms: C_11  and  C_12 
REMARK       I    between atoms: C_12  and  N_13 
REMARK    4  A    between atoms: N_13  and  C_14 
REMARK    5  A    between atoms: C_14  and  C_15 
REMARK    6  A    between atoms: C_18  and  N_19 
REMARK       I    between atoms: N_19  and  C_20 
REMARK       I    between atoms: C_20  and  N_21 
ROOT
HETATM    1  C   UNL     1     -35.351  41.744 -55.284  1.00  0.00     0.273 C 
HETATM    2  N   UNL     1     -36.533  41.054 -55.422  1.00  0.00    -0.351 N 
HETATM    3  O   UNL     1     -35.126  42.801 -55.866  1.00  0.00    -0.266 OA
HETATM    4  H   UNL     1     -36.674  40.245 -54.826  1.00  0.00     0.163 HD
ENDROOT
BRANCH   1   5
HETATM    5  C   UNL     1     -34.406  41.094 -54.382  1.00  0.00     0.157 A 
HETATM    6  C   UNL     1     -33.193  40.511 -54.697  1.00  0.00     0.094 A 
HETATM    7  O   UNL     1     -32.663  40.011 -53.538  1.00  0.00    -0.293 OA
HETATM    8  C   UNL     1     -33.579  40.315 -52.569  1.00  0.00     0.180 A 
HETATM    9  N   UNL     1     -34.634  40.974 -53.012  1.00  0.00    -0.216 NA
BRANCH   6  10
HETATM   10  C   UNL     1     -32.509  40.409 -56.048  1.00  0.00     0.046 A 
HETATM   11  C   UNL     1     -31.224  39.611 -56.129  1.00  0.00     0.012 A 
HETATM   12  C   UNL     1     -32.471  39.052 -56.721  1.00  0.00     0.012 A 
ENDBRANCH   6  10
BRANCH   8  13
HETATM   13  C   UNL     1     -33.268  39.863 -51.216  1.00  0.00     0.017 A 
HETATM   14  C   UNL     1     -34.235  39.262 -50.394  1.00  0.00     0.016 A 
HETATM   15  C   UNL     1     -33.917  38.846 -49.098  1.00  0.00     0.001 A 
HETATM   16  C   UNL     1     -32.627  39.028 -48.606  1.00  0.00     0.000 A 
HETATM   17  C   UNL     1     -31.654  39.622 -49.406  1.00  0.00     0.001 A 
HETATM   18  C   UNL     1     -31.973  40.036 -50.703  1.00  0.00     0.016 A 
ENDBRANCH   8  13
ENDBRANCH   1   5
BRANCH   2  19
HETATM   19  C   UNL     1     -37.600  41.580 -56.233  1.00  0.00     0.161 C 
BRANCH  19  20
HETATM   20  C   UNL     1     -37.567  41.094 -57.658  1.00  0.00    -0.040 A 
HETATM   21  C   UNL     1     -38.042  39.814 -57.967  1.00  0.00     0.011 A 
HETATM   22  C   UNL     1     -38.092  39.364 -59.292  1.00  0.00     0.030 A 
HETATM   23  C   UNL     1     -37.677  40.190 -60.335  1.00  0.00     0.035 A 
HETATM   24  C   UNL     1     -37.194  41.469 -60.031  1.00  0.00     0.030 A 
HETATM   25  C   UNL     1     -37.150  41.922 -58.707  1.00  0.00     0.011 A 
BRANCH  23  26
HETATM   26  N   UNL     1     -37.710  39.811 -61.691  1.00  0.00    -0.314 N 
HETATM   27  C   UNL     1     -36.928  38.876 -62.314  1.00  0.00     0.296 C 
HETATM   28  N   UNL     1     -37.188  38.810 -63.653  1.00  0.00    -0.254 NA
HETATM   29  O   UNL     1     -36.088  38.134 -61.827  1.00  0.00    -0.254 OA
HETATM   30  H   UNL     1     -37.330  39.688 -64.131  1.00  0.00     0.128 HD
HETATM   31  H   UNL     1     -36.554  38.180 -64.132  1.00  0.00     0.128 HD
HETATM   32  H   UNL     1     -38.483  40.152 -62.241  1.00  0.00     0.170 HD
ENDBRANCH  23  26
ENDBRANCH  19  20
ENDBRANCH   2  19
TORSDOF 6
ENDMDL
MODEL 7
REMARK VINA RESULT:      -7.9      1.707      2.346
REMARK  6 active torsions:
REMARK  status: ('A' for Active; 'I' for Inactive)
REMARK    1  A    between atoms: C_4  and  C_5 
REMARK    2  A    between atoms: C_7  and  C_8 
REMARK    3  A    between atoms: C_11  and  C_12 
REMARK       I    between atoms: C_12  and  N_13 
REMARK    4  A    between atoms: N_13  and  C_14 
REMARK    5  A    between atoms: C_14  and  C_15 
REMARK    6  A    between atoms: C_18  and  N_19 
REMARK       I    between atoms: N_19  and  C_20 
REMARK       I    between atoms: C_20  and  N_21 
ROOT
HETATM    1  C   UNL     1     -43.595  57.733 -53.569  1.00  0.00     0.273 C 
HETATM    2  N   UNL     1     -43.137  58.410 -54.677  1.00  0.00    -0.351 N 
HETATM    3  O   UNL     1     -44.706  57.927 -53.085  1.00  0.00    -0.266 OA
HETATM    4  H   UNL     1     -42.249  58.114 -55.070  1.00  0.00     0.163 HD
ENDROOT
BRANCH   1   5
HETATM    5  C   UNL     1     -42.632  56.774 -53.041  1.00  0.00     0.157 A 
HETATM    6  C   UNL     1     -41.756  56.940 -51.984  1.00  0.00     0.094 A 
HETATM    7  O   UNL     1     -41.034  55.784 -51.862  1.00  0.00    -0.293 OA
HETATM    8  C   UNL     1     -41.506  54.965 -52.850  1.00  0.00     0.180 A 
HETATM    9  N   UNL     1     -42.470  55.497 -53.577  1.00  0.00    -0.216 NA
BRANCH   6  10
HETATM   10  C   UNL     1     -41.575  58.147 -51.082  1.00  0.00     0.046 A 
HETATM   11  C   UNL     1     -40.158  58.577 -50.757  1.00  0.00     0.012 A 
HETATM   12  C   UNL     1     -40.978  59.401 -51.688  1.00  0.00     0.012 A 
ENDBRANCH   6  10
BRANCH   8  13
HETATM   13  C   UNL     1     -40.875  53.652 -52.961  1.00  0.00     0.017 A 
HETATM   14  C   UNL     1     -40.190  53.065 -51.885  1.00  0.00     0.016 A 
HETATM   15  C   UNL     1     -39.586  51.812 -52.018  1.00  0.00     0.001 A 
HETATM   16  C   UNL     1     -39.657  51.130 -53.229  1.00  0.00     0.000 A 
HETATM   17  C   UNL     1     -40.332  51.696 -54.308  1.00  0.00     0.001 A 
HETATM   18  C   UNL     1     -40.938  52.948 -54.174  1.00  0.00     0.016 A 
ENDBRANCH   8  13
ENDBRANCH   1   5
BRANCH   2  19
HETATM   19  C   UNL     1     -43.979  59.357 -55.360  1.00  0.00     0.161 C 
BRANCH  19  20
HETATM   20  C   UNL     1     -44.626  58.801 -56.600  1.00  0.00    -0.040 A 
HETATM   21  C   UNL     1     -45.970  58.410 -56.568  1.00  0.00     0.011 A 
HETATM   22  C   UNL     1     -46.617  57.960 -57.724  1.00  0.00     0.030 A 
HETATM   23  C   UNL     1     -45.936  57.898 -58.938  1.00  0.00     0.035 A 
HETATM   24  C   UNL     1     -44.589  58.280 -58.975  1.00  0.00     0.030 A 
HETATM   25  C   UNL     1     -43.942  58.738 -57.821  1.00  0.00     0.011 A 
BRANCH  23  26
HETATM   26  N   UNL     1     -46.525  57.468 -60.143  1.00  0.00    -0.314 N 
HETATM   27  C   UNL     1     -46.449  56.224 -60.710  1.00  0.00     0.296 C 
HETATM   28  N   UNL     1     -47.089  56.177 -61.914  1.00  0.00    -0.254 NA
HETATM   29  O   UNL     1     -45.915  55.215 -60.272  1.00  0.00    -0.254 OA
HETATM   30  H   UNL     1     -46.966  56.972 -62.525  1.00  0.00     0.128 HD
HETATM   31  H   UNL     1     -46.964  55.283 -62.376  1.00  0.00     0.128 HD
HETATM   32  H   UNL     1     -47.194  58.089 -60.571  1.00  0.00     0.170 HD
ENDBRANCH  23  26
ENDBRANCH  19  20
ENDBRANCH   2  19
TORSDOF 6
ENDMDL
MODEL 8
REMARK VINA RESULT:      -7.9      3.064      3.962
REMARK  6 active torsions:
REMARK  status: ('A' for Active; 'I' for Inactive)
REMARK    1  A    between atoms: C_4  and  C_5 
REMARK    2  A    between atoms: C_7  and  C_8 
REMARK    3  A    between atoms: C_11  and  C_12 
REMARK       I    between atoms: C_12  and  N_13 
REMARK    4  A    between atoms: N_13  and  C_14 
REMARK    5  A    between atoms: C_14  and  C_15 
REMARK    6  A    between atoms: C_18  and  N_19 
REMARK       I    between atoms: N_19  and  C_20 
REMARK       I    between atoms: C_20  and  N_21 
ROOT
HETATM    1  C   UNL     1     -42.976  55.927 -55.947  1.00  0.00     0.273 C 
HETATM    2  N   UNL     1     -42.588  55.810 -57.262  1.00  0.00    -0.351 N 
HETATM    3  O   UNL     1     -43.977  56.548 -55.603  1.00  0.00    -0.266 OA
HETATM    4  H   UNL     1     -41.808  55.193 -57.465  1.00  0.00     0.163 HD
ENDROOT
BRANCH   1   5
HETATM    5  C   UNL     1     -42.084  55.242 -55.019  1.00  0.00     0.157 A 
HETATM    6  C   UNL     1     -41.231  55.802 -54.088  1.00  0.00     0.094 A 
HETATM    7  O   UNL     1     -40.578  54.778 -53.458  1.00  0.00    -0.293 OA
HETATM    8  C   UNL     1     -41.067  53.638 -54.035  1.00  0.00     0.180 A 
HETATM    9  N   UNL     1     -41.979  53.853 -54.964  1.00  0.00    -0.216 NA
BRANCH   6  10
HETATM   10  C   UNL     1     -41.007  57.268 -53.765  1.00  0.00     0.046 A 
HETATM   11  C   UNL     1     -42.138  58.023 -53.095  1.00  0.00     0.012 A 
HETATM   12  C   UNL     1     -40.926  57.668 -52.305  1.00  0.00     0.012 A 
ENDBRANCH   6  10
BRANCH   8  13
HETATM   13  C   UNL     1     -40.508  52.376 -53.556  1.00  0.00     0.017 A 
HETATM   14  C   UNL     1     -40.449  51.235 -54.371  1.00  0.00     0.016 A 
HETATM   15  C   UNL     1     -39.919  50.035 -53.888  1.00  0.00     0.001 A 
HETATM   16  C   UNL     1     -39.442  49.960 -52.582  1.00  0.00     0.000 A 
HETATM   17  C   UNL     1     -39.492  51.083 -51.758  1.00  0.00     0.001 A 
HETATM   18  C   UNL     1     -40.020  52.282 -52.243  1.00  0.00     0.016 A 
ENDBRANCH   8  13
ENDBRANCH   1   5
BRANCH   2  19
HETATM   19  C   UNL     1     -43.384  56.381 -58.317  1.00  0.00     0.161 C 
BRANCH  19  20
HETATM   20  C   UNL     1     -42.868  57.707 -58.809  1.00  0.00    -0.040 A 
HETATM   21  C   UNL     1     -42.241  57.789 -60.058  1.00  0.00     0.011 A 
HETATM   22  C   UNL     1     -41.818  59.020 -60.573  1.00  0.00     0.030 A 
HETATM   23  C   UNL     1     -42.022  60.196 -59.852  1.00  0.00     0.035 A 
HETATM   24  C   UNL     1     -42.642  60.119 -58.599  1.00  0.00     0.030 A 
HETATM   25  C   UNL     1     -43.072  58.889 -58.087  1.00  0.00     0.011 A 
BRANCH  23  26
HETATM   26  N   UNL     1     -41.635  61.469 -60.311  1.00  0.00    -0.314 N 
HETATM   27  C   UNL     1     -40.681  62.294 -59.776  1.00  0.00     0.296 C 
HETATM   28  N   UNL     1     -40.612  63.485 -60.441  1.00  0.00    -0.254 NA
HETATM   29  O   UNL     1     -39.928  62.083 -58.838  1.00  0.00    -0.254 OA
HETATM   30  H   UNL     1     -41.490  63.905 -60.710  1.00  0.00     0.128 HD
HETATM   31  H   UNL     1     -39.968  64.130 -59.997  1.00  0.00     0.128 HD
HETATM   32  H   UNL     1     -41.987  61.756 -61.212  1.00  0.00     0.170 HD
ENDBRANCH  23  26
ENDBRANCH  19  20
ENDBRANCH   2  19
TORSDOF 6
ENDMDL
MODEL 9
REMARK VINA RESULT:      -7.7      3.397      9.505
REMARK  6 active torsions:
REMARK  status: ('A' for Active; 'I' for Inactive)
REMARK    1  A    between atoms: C_4  and  C_5 
REMARK    2  A    between atoms: C_7  and  C_8 
REMARK    3  A    between atoms: C_11  and  C_12 
REMARK       I    between atoms: C_12  and  N_13 
REMARK    4  A    between atoms: N_13  and  C_14 
REMARK    5  A    between atoms: C_14  and  C_15 
REMARK    6  A    between atoms: C_18  and  N_19 
REMARK       I    between atoms: N_19  and  C_20 
REMARK       I    between atoms: C_20  and  N_21 
ROOT
HETATM    1  C   UNL     1     -42.669  56.234 -57.021  1.00  0.00     0.273 C 
HETATM    2  N   UNL     1     -41.805  56.001 -55.974  1.00  0.00    -0.351 N 
HETATM    3  O   UNL     1     -43.305  55.339 -57.569  1.00  0.00    -0.266 OA
HETATM    4  H   UNL     1     -41.401  56.810 -55.514  1.00  0.00     0.163 HD
ENDROOT
BRANCH   1   5
HETATM    5  C   UNL     1     -42.747  57.639 -57.402  1.00  0.00     0.157 A 
HETATM    6  C   UNL     1     -43.723  58.559 -57.069  1.00  0.00     0.094 A 
HETATM    7  O   UNL     1     -43.393  59.745 -57.665  1.00  0.00    -0.293 OA
HETATM    8  C   UNL     1     -42.227  59.494 -58.334  1.00  0.00     0.180 A 
HETATM    9  N   UNL     1     -41.786  58.256 -58.202  1.00  0.00    -0.216 NA
BRANCH   6  10
HETATM   10  C   UNL     1     -44.957  58.364 -56.206  1.00  0.00     0.046 A 
HETATM   11  C   UNL     1     -44.754  57.868 -54.789  1.00  0.00     0.012 A 
HETATM   12  C   UNL     1     -45.143  59.287 -55.018  1.00  0.00     0.012 A 
ENDBRANCH   6  10
BRANCH   8  13
HETATM   13  C   UNL     1     -41.660  60.606 -59.092  1.00  0.00     0.017 A 
HETATM   14  C   UNL     1     -40.925  61.628 -58.471  1.00  0.00     0.016 A 
HETATM   15  C   UNL     1     -40.401  62.688 -59.215  1.00  0.00     0.001 A 
HETATM   16  C   UNL     1     -40.605  62.741 -60.592  1.00  0.00     0.000 A 
HETATM   17  C   UNL     1     -41.331  61.735 -61.226  1.00  0.00     0.001 A 
HETATM   18  C   UNL     1     -41.853  60.674 -60.481  1.00  0.00     0.016 A 
ENDBRANCH   8  13
ENDBRANCH   1   5
BRANCH   2  19
HETATM   19  C   UNL     1     -41.647  54.676 -55.434  1.00  0.00     0.161 C 
BRANCH  19  20
HETATM   20  C   UNL     1     -41.667  54.635 -53.929  1.00  0.00    -0.040 A 
HETATM   21  C   UNL     1     -41.449  53.423 -53.263  1.00  0.00     0.011 A 
HETATM   22  C   UNL     1     -41.388  53.368 -51.866  1.00  0.00     0.030 A 
HETATM   23  C   UNL     1     -41.535  54.527 -51.106  1.00  0.00     0.035 A 
HETATM   24  C   UNL     1     -41.760  55.742 -51.765  1.00  0.00     0.030 A 
HETATM   25  C   UNL     1     -41.814  55.799 -53.163  1.00  0.00     0.011 A 
BRANCH  23  26
HETATM   26  N   UNL     1     -41.473  54.551 -49.699  1.00  0.00    -0.314 N 
HETATM   27  C   UNL     1     -40.362  54.406 -48.911  1.00  0.00     0.296 C 
HETATM   28  N   UNL     1     -40.678  54.418 -47.583  1.00  0.00    -0.254 NA
HETATM   29  O   UNL     1     -39.194  54.289 -49.252  1.00  0.00    -0.254 OA
HETATM   30  H   UNL     1     -41.508  53.912 -47.311  1.00  0.00     0.128 HD
HETATM   31  H   UNL     1     -39.871  54.227 -47.000  1.00  0.00     0.128 HD
HETATM   32  H   UNL     1     -42.303  54.848 -49.210  1.00  0.00     0.170 HD
ENDBRANCH  23  26
ENDBRANCH  19  20
ENDBRANCH   2  19
TORSDOF 6
ENDMDL
MODEL 10
REMARK VINA RESULT:      -7.7     15.233     19.236
REMARK  6 active torsions:
REMARK  status: ('A' for Active; 'I' for Inactive)
REMARK    1  A    between atoms: C_4  and  C_5 
REMARK    2  A    between atoms: C_7  and  C_8 
REMARK    3  A    between atoms: C_11  and  C_12 
REMARK       I    between atoms: C_12  and  N_13 
REMARK    4  A    between atoms: N_13  and  C_14 
REMARK    5  A    between atoms: C_14  and  C_15 
REMARK    6  A    between atoms: C_18  and  N_19 
REMARK       I    between atoms: N_19  and  C_20 
REMARK       I    between atoms: C_20  and  N_21 
ROOT
HETATM    1  C   UNL     1     -35.567  41.518 -53.198  1.00  0.00     0.273 C 
HETATM    2  N   UNL     1     -35.728  40.384 -52.435  1.00  0.00    -0.351 N 
HETATM    3  O   UNL     1     -35.601  42.650 -52.722  1.00  0.00    -0.266 OA
HETATM    4  H   UNL     1     -35.583  39.490 -52.891  1.00  0.00     0.163 HD
ENDROOT
BRANCH   1   5
HETATM    5  C   UNL     1     -35.352  41.236 -54.612  1.00  0.00     0.157 A 
HETATM    6  C   UNL     1     -34.177  40.865 -55.238  1.00  0.00     0.094 A 
HETATM    7  O   UNL     1     -34.446  40.727 -56.572  1.00  0.00    -0.293 OA
HETATM    8  C   UNL     1     -35.776  41.019 -56.698  1.00  0.00     0.180 A 
HETATM    9  N   UNL     1     -36.373  41.317 -55.559  1.00  0.00    -0.216 NA
BRANCH   6  10
HETATM   10  C   UNL     1     -32.808  40.631 -54.626  1.00  0.00     0.046 A 
HETATM   11  C   UNL     1     -32.544  39.285 -53.982  1.00  0.00     0.012 A 
HETATM   12  C   UNL     1     -31.901  39.612 -55.286  1.00  0.00     0.012 A 
ENDBRANCH   6  10
BRANCH   8  13
HETATM   13  C   UNL     1     -36.327  40.973 -58.050  1.00  0.00     0.017 A 
HETATM   14  C   UNL     1     -36.898  42.103 -58.657  1.00  0.00     0.016 A 
HETATM   15  C   UNL     1     -37.428  42.033 -59.948  1.00  0.00     0.001 A 
HETATM   16  C   UNL     1     -37.394  40.831 -60.650  1.00  0.00     0.000 A 
HETATM   17  C   UNL     1     -36.832  39.699 -60.065  1.00  0.00     0.001 A 
HETATM   18  C   UNL     1     -36.300  39.771 -58.774  1.00  0.00     0.016 A 
ENDBRANCH   8  13
ENDBRANCH   1   5
BRANCH   2  19
HETATM   19  C   UNL     1     -35.897  40.477 -51.008  1.00  0.00     0.161 C 
BRANCH  19  20
HETATM   20  C   UNL     1     -34.726  39.940 -50.229  1.00  0.00    -0.040 A 
HETATM   21  C   UNL     1     -33.463  40.525 -50.381  1.00  0.00     0.011 A 
HETATM   22  C   UNL     1     -32.373  40.097 -49.615  1.00  0.00     0.030 A 
HETATM   23  C   UNL     1     -32.525  39.079 -48.675  1.00  0.00     0.035 A 
HETATM   24  C   UNL     1     -33.784  38.485 -48.523  1.00  0.00     0.030 A 
HETATM   25  C   UNL     1     -34.877  38.918 -49.283  1.00  0.00     0.011 A 
BRANCH  23  26
HETATM   26  N   UNL     1     -31.478  38.605 -47.861  1.00  0.00    -0.314 N 
HETATM   27  C   UNL     1     -30.570  39.348 -47.154  1.00  0.00     0.296 C 
HETATM   28  N   UNL     1     -29.652  38.559 -46.523  1.00  0.00    -0.254 NA
HETATM   29  O   UNL     1     -30.510  40.562 -47.027  1.00  0.00    -0.254 OA
HETATM   30  H   UNL     1     -29.299  37.770 -47.045  1.00  0.00     0.128 HD
HETATM   31  H   UNL     1     -28.930  39.106 -46.069  1.00  0.00     0.128 HD
HETATM   32  H   UNL     1     -31.473  37.619 -47.653  1.00  0.00     0.170 HD
ENDBRANCH  23  26
ENDBRANCH  19  20
ENDBRANCH   2  19
TORSDOF 6
ENDMDL
