MODEL 1
REMARK VINA RESULT:      -9.1      0.000      0.000
REMARK  7 active torsions:
REMARK  status: ('A' for Active; 'I' for Inactive)
REMARK    1  A    between atoms: C_2  and  C_3 
REMARK    2  A    between atoms: C_3  and  C_4 
REMARK    3  A    between atoms: C_7  and  C_8 
REMARK    4  A    between atoms: C_14  and  C_15 
REMARK    5  A    between atoms: C_16  and  O_17 
REMARK    6  A    between atoms: O_17  and  C_18 
REMARK       I    between atoms: C_18  and  N_19 
REMARK    7  A    between atoms: C_33  and  N_34 
ROOT
HETATM    1  C   UNL     1     -41.948  56.177 -55.353  1.00  0.00     0.099 A 
HETATM    2  N   UNL     1     -42.477  56.434 -56.563  1.00  0.00    -0.172 NA
HETATM    3  N   UNL     1     -42.733  57.755 -56.547  1.00  0.00    -0.256 N 
HETATM    4  H   UNL     1     -43.106  58.191 -57.382  1.00  0.00     0.191 HD
HETATM    5  C   UNL     1     -42.408  58.339 -55.367  1.00  0.00     0.175 A 
HETATM    6  C   UNL     1     -41.955  57.344 -54.536  1.00  0.00     0.040 A 
HETATM    7  C   UNL     1     -41.495  57.686 -53.155  1.00  0.00     0.108 A 
HETATM    8  C   UNL     1     -41.663  59.180 -52.910  1.00  0.00     0.072 A 
HETATM    9  C   UNL     1     -41.398  59.639 -51.485  1.00  0.00     0.021 C 
HETATM   10  N   UNL     1     -41.178  60.019 -50.302  1.00  0.00    -0.096 N 
HETATM   11  C   UNL     1     -42.103  60.064 -53.842  1.00  0.00     0.160 A 
HETATM   12  O   UNL     1     -42.498  59.642 -55.124  1.00  0.00    -0.274 OA
ENDROOT
BRANCH   7  13
HETATM   13  C   UNL     1     -42.205  56.752 -52.181  1.00  0.00    -0.010 C 
HETATM   14  C   UNL     1     -43.594  56.669 -51.968  1.00  0.00     0.088 C 
HETATM   15  C   UNL     1     -44.142  55.662 -51.153  1.00  0.00     0.038 C 
HETATM   16  C   UNL     1     -43.314  54.801 -50.440  1.00  0.00     0.003 C 
HETATM   17  C   UNL     1     -41.939  54.933 -50.545  1.00  0.00     0.001 C 
HETATM   18  C   UNL     1     -41.396  55.895 -51.401  1.00  0.00     0.011 C 
BRANCH  14  19
HETATM   19  O   UNL     1     -44.458  57.615 -52.560  1.00  0.00    -0.261 OA
BRANCH  19  20
HETATM   20  C   UNL     1     -45.074  58.533 -51.690  1.00  0.00     0.368 C 
HETATM   21  N   UNL     1     -45.626  59.623 -52.340  1.00  0.00    -0.324 N 
HETATM   22  C   UNL     1     -46.531  60.502 -51.595  1.00  0.00     0.154 C 
HETATM   23  C   UNL     1     -45.686  59.765 -53.790  1.00  0.00     0.154 C 
HETATM   24  C   UNL     1     -46.456  61.946 -52.098  1.00  0.00     0.187 C 
HETATM   25  O   UNL     1     -46.625  62.010 -53.524  1.00  0.00    -0.388 OA
HETATM   26  C   UNL     1     -45.607  61.244 -54.184  1.00  0.00     0.187 C 
HETATM   27  O   UNL     1     -45.127  58.408 -50.469  1.00  0.00    -0.238 OA
ENDBRANCH  19  20
ENDBRANCH  14  19
ENDBRANCH   7  13
BRANCH  11  28
HETATM   28  N   UNL     1     -42.242  61.416 -53.657  1.00  0.00    -0.379 N 
HETATM   29  H   UNL     1     -41.776  61.828 -52.853  1.00  0.00     0.158 HD
HETATM   30  H   UNL     1     -43.178  61.763 -53.839  1.00  0.00     0.158 HD
ENDBRANCH  11  28
BRANCH   1  31
HETATM   31  C   UNL     1     -41.450  54.848 -55.025  1.00  0.00    -0.005 A 
HETATM   32  C   UNL     1     -40.078  54.578 -55.054  1.00  0.00     0.014 A 
HETATM   33  C   UNL     1     -39.595  53.348 -54.598  1.00  0.00     0.008 A 
HETATM   34  C   UNL     1     -40.473  52.365 -54.119  1.00  0.00    -0.058 A 
HETATM   35  C   UNL     1     -41.850  52.602 -54.206  1.00  0.00     0.008 A 
HETATM   36  C   UNL     1     -42.336  53.839 -54.642  1.00  0.00     0.014 A 
BRANCH  34  37
HETATM   37  C   UNL     1     -39.895  51.078 -53.568  1.00  0.00     0.042 C 
BRANCH  37  38
HETATM   38  C   UNL     1     -39.315  51.114 -52.136  1.00  0.00    -0.019 C 
HETATM   39  C   UNL     1     -39.548  49.810 -51.366  1.00  0.00     0.010 C 
HETATM   40  C   UNL     1     -39.945  52.275 -51.357  1.00  0.00     0.010 C 
ENDBRANCH  37  38
ENDBRANCH  34  37
ENDBRANCH   1  31
TORSDOF 7
ENDMDL
MODEL 2
REMARK VINA RESULT:      -8.3      3.898      6.507
REMARK  7 active torsions:
REMARK  status: ('A' for Active; 'I' for Inactive)
REMARK    1  A    between atoms: C_2  and  C_3 
REMARK    2  A    between atoms: C_3  and  C_4 
REMARK    3  A    between atoms: C_7  and  C_8 
REMARK    4  A    between atoms: C_14  and  C_15 
REMARK    5  A    between atoms: C_16  and  O_17 
REMARK    6  A    between atoms: O_17  and  C_18 
REMARK       I    between atoms: C_18  and  N_19 
REMARK    7  A    between atoms: C_33  and  N_34 
ROOT
HETATM    1  C   UNL     1     -43.800  57.984 -55.171  1.00  0.00     0.099 A 
HETATM    2  N   UNL     1     -43.548  58.866 -54.187  1.00  0.00    -0.172 NA
HETATM    3  N   UNL     1     -44.277  59.950 -54.509  1.00  0.00    -0.256 N 
HETATM    4  H   UNL     1     -44.277  60.744 -53.879  1.00  0.00     0.191 HD
HETATM    5  C   UNL     1     -44.961  59.798 -55.670  1.00  0.00     0.175 A 
HETATM    6  C   UNL     1     -44.633  58.562 -56.171  1.00  0.00     0.040 A 
HETATM    7  C   UNL     1     -45.255  58.094 -57.448  1.00  0.00     0.108 A 
HETATM    8  C   UNL     1     -46.177  59.173 -58.001  1.00  0.00     0.072 A 
HETATM    9  C   UNL     1     -46.741  58.900 -59.386  1.00  0.00     0.021 C 
HETATM   10  N   UNL     1     -47.209  58.673 -60.535  1.00  0.00    -0.096 N 
HETATM   11  C   UNL     1     -46.434  60.353 -57.378  1.00  0.00     0.160 A 
HETATM   12  O   UNL     1     -45.807  60.694 -56.167  1.00  0.00    -0.274 OA
ENDROOT
BRANCH   7  13
HETATM   13  C   UNL     1     -44.136  57.618 -58.367  1.00  0.00    -0.010 C 
HETATM   14  C   UNL     1     -43.117  58.414 -58.922  1.00  0.00     0.088 C 
HETATM   15  C   UNL     1     -42.051  57.835 -59.633  1.00  0.00     0.038 C 
HETATM   16  C   UNL     1     -42.045  56.472 -59.910  1.00  0.00     0.003 C 
HETATM   17  C   UNL     1     -43.094  55.681 -59.470  1.00  0.00     0.001 C 
HETATM   18  C   UNL     1     -44.122  56.247 -58.712  1.00  0.00     0.011 C 
BRANCH  14  19
HETATM   19  O   UNL     1     -43.165  59.819 -58.786  1.00  0.00    -0.261 OA
BRANCH  19  20
HETATM   20  C   UNL     1     -42.029  60.434 -58.231  1.00  0.00     0.368 C 
HETATM   21  N   UNL     1     -41.490  61.424 -59.035  1.00  0.00    -0.324 N 
HETATM   22  C   UNL     1     -40.488  62.326 -58.464  1.00  0.00     0.154 C 
HETATM   23  C   UNL     1     -42.094  61.885 -60.279  1.00  0.00     0.154 C 
HETATM   24  C   UNL     1     -39.488  62.802 -59.522  1.00  0.00     0.187 C 
HETATM   25  O   UNL     1     -40.162  63.335 -60.673  1.00  0.00    -0.388 OA
HETATM   26  C   UNL     1     -41.011  62.339 -61.263  1.00  0.00     0.187 C 
HETATM   27  O   UNL     1     -41.537  60.140 -57.145  1.00  0.00    -0.238 OA
ENDBRANCH  19  20
ENDBRANCH  14  19
ENDBRANCH   7  13
BRANCH  11  28
HETATM   28  N   UNL     1     -47.276  61.332 -57.840  1.00  0.00    -0.379 N 
HETATM   29  H   UNL     1     -47.052  61.756 -58.737  1.00  0.00     0.158 HD
HETATM   30  H   UNL     1     -47.590  61.977 -57.123  1.00  0.00     0.158 HD
ENDBRANCH  11  28
BRANCH   1  31
HETATM   31  C   UNL     1     -43.253  56.635 -55.120  1.00  0.00    -0.005 A 
HETATM   32  C   UNL     1     -41.979  56.367 -55.629  1.00  0.00     0.014 A 
HETATM   33  C   UNL     1     -41.401  55.108 -55.446  1.00  0.00     0.008 A 
HETATM   34  C   UNL     1     -42.089  54.093 -54.764  1.00  0.00    -0.058 A 
HETATM   35  C   UNL     1     -43.409  54.338 -54.364  1.00  0.00     0.008 A 
HETATM   36  C   UNL     1     -43.983  55.602 -54.527  1.00  0.00     0.014 A 
BRANCH  34  37
HETATM   37  C   UNL     1     -41.392  52.770 -54.527  1.00  0.00     0.042 C 
BRANCH  37  38
HETATM   38  C   UNL     1     -40.169  52.770 -53.583  1.00  0.00    -0.019 C 
HETATM   39  C   UNL     1     -39.557  51.377 -53.402  1.00  0.00     0.010 C 
HETATM   40  C   UNL     1     -40.580  53.319 -52.212  1.00  0.00     0.010 C 
ENDBRANCH  37  38
ENDBRANCH  34  37
ENDBRANCH   1  31
TORSDOF 7
ENDMDL
MODEL 3
REMARK VINA RESULT:      -8.2      3.245      4.799
REMARK  7 active torsions:
REMARK  status: ('A' for Active; 'I' for Inactive)
REMARK    1  A    between atoms: C_2  and  C_3 
REMARK    2  A    between atoms: C_3  and  C_4 
REMARK    3  A    between atoms: C_7  and  C_8 
REMARK    4  A    between atoms: C_14  and  C_15 
REMARK    5  A    between atoms: C_16  and  O_17 
REMARK    6  A    between atoms: O_17  and  C_18 
REMARK       I    between atoms: C_18  and  N_19 
REMARK    7  A    between atoms: C_33  and  N_34 
ROOT
HETATM    1  C   UNL     1     -42.975  55.043 -56.505  1.00  0.00     0.099 A 
HETATM    2  N   UNL     1     -43.610  54.172 -57.312  1.00  0.00    -0.172 NA
HETATM    3  N   UNL     1     -43.854  54.869 -58.436  1.00  0.00    -0.256 N 
HETATM    4  H   UNL     1     -44.298  54.397 -59.216  1.00  0.00     0.191 HD
HETATM    5  C   UNL     1     -43.423  56.152 -58.365  1.00  0.00     0.175 A 
HETATM    6  C   UNL     1     -42.903  56.332 -57.107  1.00  0.00     0.040 A 
HETATM    7  C   UNL     1     -42.320  57.657 -56.731  1.00  0.00     0.108 A 
HETATM    8  C   UNL     1     -42.455  58.631 -57.895  1.00  0.00     0.072 A 
HETATM    9  C   UNL     1     -42.061  60.068 -57.590  1.00  0.00     0.021 C 
HETATM   10  N   UNL     1     -41.734  61.259 -57.338  1.00  0.00    -0.096 N 
HETATM   11  C   UNL     1     -42.972  58.306 -59.108  1.00  0.00     0.160 A 
HETATM   12  O   UNL     1     -43.482  57.022 -59.368  1.00  0.00    -0.274 OA
ENDROOT
BRANCH   7  13
HETATM   13  C   UNL     1     -42.945  58.086 -55.408  1.00  0.00    -0.010 C 
HETATM   14  C   UNL     1     -44.321  58.202 -55.136  1.00  0.00     0.088 C 
HETATM   15  C   UNL     1     -44.781  58.460 -53.832  1.00  0.00     0.038 C 
HETATM   16  C   UNL     1     -43.882  58.727 -52.805  1.00  0.00     0.003 C 
HETATM   17  C   UNL     1     -42.522  58.729 -53.071  1.00  0.00     0.001 C 
HETATM   18  C   UNL     1     -42.064  58.414 -54.353  1.00  0.00     0.011 C 
BRANCH  14  19
HETATM   19  O   UNL     1     -45.262  58.080 -56.181  1.00  0.00    -0.261 OA
BRANCH  19  20
HETATM   20  C   UNL     1     -45.662  59.273 -56.808  1.00  0.00     0.368 C 
HETATM   21  N   UNL     1     -46.376  59.070 -57.976  1.00  0.00    -0.324 N 
HETATM   22  C   UNL     1     -47.085  60.204 -58.573  1.00  0.00     0.154 C 
HETATM   23  C   UNL     1     -46.790  57.760 -58.463  1.00  0.00     0.154 C 
HETATM   24  C   UNL     1     -47.161  60.083 -60.098  1.00  0.00     0.187 C 
HETATM   25  O   UNL     1     -47.675  58.801 -60.494  1.00  0.00    -0.388 OA
HETATM   26  C   UNL     1     -46.836  57.749 -59.994  1.00  0.00     0.187 C 
HETATM   27  O   UNL     1     -45.412  60.400 -56.386  1.00  0.00    -0.238 OA
ENDBRANCH  19  20
ENDBRANCH  14  19
ENDBRANCH   7  13
BRANCH  11  28
HETATM   28  N   UNL     1     -43.085  59.154 -60.180  1.00  0.00    -0.379 N 
HETATM   29  H   UNL     1     -42.768  60.112 -60.055  1.00  0.00     0.158 HD
HETATM   30  H   UNL     1     -43.952  59.051 -60.698  1.00  0.00     0.158 HD
ENDBRANCH  11  28
BRANCH   1  31
HETATM   31  C   UNL     1     -42.458  54.620 -55.212  1.00  0.00    -0.005 A 
HETATM   32  C   UNL     1     -41.111  54.274 -55.066  1.00  0.00     0.014 A 
HETATM   33  C   UNL     1     -40.588  54.011 -53.797  1.00  0.00     0.008 A 
HETATM   34  C   UNL     1     -41.402  54.076 -52.656  1.00  0.00    -0.058 A 
HETATM   35  C   UNL     1     -42.772  54.307 -52.829  1.00  0.00     0.008 A 
HETATM   36  C   UNL     1     -43.295  54.591 -54.094  1.00  0.00     0.014 A 
BRANCH  34  37
HETATM   37  C   UNL     1     -40.772  53.855 -51.297  1.00  0.00     0.042 C 
BRANCH  37  38
HETATM   38  C   UNL     1     -41.271  54.737 -50.130  1.00  0.00    -0.019 C 
HETATM   39  C   UNL     1     -40.985  56.226 -50.345  1.00  0.00     0.010 C 
HETATM   40  C   UNL     1     -40.609  54.282 -48.825  1.00  0.00     0.010 C 
ENDBRANCH  37  38
ENDBRANCH  34  37
ENDBRANCH   1  31
TORSDOF 7
ENDMDL
MODEL 4
REMARK VINA RESULT:      -8.2      3.232      5.529
REMARK  7 active torsions:
REMARK  status: ('A' for Active; 'I' for Inactive)
REMARK    1  A    between atoms: C_2  and  C_3 
REMARK    2  A    between atoms: C_3  and  C_4 
REMARK    3  A    between atoms: C_7  and  C_8 
REMARK    4  A    between atoms: C_14  and  C_15 
REMARK    5  A    between atoms: C_16  and  O_17 
REMARK    6  A    between atoms: O_17  and  C_18 
REMARK       I    between atoms: C_18  and  N_19 
REMARK    7  A    between atoms: C_33  and  N_34 
ROOT
HETATM    1  C   UNL     1     -41.410  57.562 -53.952  1.00  0.00     0.099 A 
HETATM    2  N   UNL     1     -40.474  58.177 -53.206  1.00  0.00    -0.172 NA
HETATM    3  N   UNL     1     -40.869  59.463 -53.161  1.00  0.00    -0.256 N 
HETATM    4  H   UNL     1     -40.329  60.121 -52.610  1.00  0.00     0.191 HD
HETATM    5  C   UNL     1     -42.003  59.690 -53.868  1.00  0.00     0.175 A 
HETATM    6  C   UNL     1     -42.357  58.500 -54.454  1.00  0.00     0.040 A 
HETATM    7  C   UNL     1     -43.595  58.428 -55.290  1.00  0.00     0.108 A 
HETATM    8  C   UNL     1     -44.254  59.799 -55.360  1.00  0.00     0.072 A 
HETATM    9  C   UNL     1     -45.427  59.910 -56.321  1.00  0.00     0.021 C 
HETATM   10  N   UNL     1     -46.400  60.002 -57.118  1.00  0.00    -0.096 N 
HETATM   11  C   UNL     1     -43.805  60.898 -54.699  1.00  0.00     0.160 A 
HETATM   12  O   UNL     1     -42.634  60.859 -53.922  1.00  0.00    -0.274 OA
ENDROOT
BRANCH   7  13
HETATM   13  C   UNL     1     -43.224  57.782 -56.621  1.00  0.00    -0.010 C 
HETATM   14  C   UNL     1     -42.542  58.400 -57.686  1.00  0.00     0.088 C 
HETATM   15  C   UNL     1     -42.122  57.658 -58.804  1.00  0.00     0.038 C 
HETATM   16  C   UNL     1     -42.479  56.321 -58.939  1.00  0.00     0.003 C 
HETATM   17  C   UNL     1     -43.246  55.716 -57.957  1.00  0.00     0.001 C 
HETATM   18  C   UNL     1     -43.612  56.437 -56.818  1.00  0.00     0.011 C 
BRANCH  14  19
HETATM   19  O   UNL     1     -42.287  59.788 -57.651  1.00  0.00    -0.261 OA
BRANCH  19  20
HETATM   20  C   UNL     1     -42.769  60.542 -58.736  1.00  0.00     0.368 C 
HETATM   21  N   UNL     1     -41.936  61.587 -59.095  1.00  0.00    -0.324 N 
HETATM   22  C   UNL     1     -42.173  62.270 -60.368  1.00  0.00     0.154 C 
HETATM   23  C   UNL     1     -40.625  61.826 -58.504  1.00  0.00     0.154 C 
HETATM   24  C   UNL     1     -41.761  63.743 -60.304  1.00  0.00     0.187 C 
HETATM   25  O   UNL     1     -40.421  63.888 -59.808  1.00  0.00    -0.388 OA
HETATM   26  C   UNL     1     -40.310  63.325 -58.492  1.00  0.00     0.187 C 
HETATM   27  O   UNL     1     -43.825  60.321 -59.323  1.00  0.00    -0.238 OA
ENDBRANCH  19  20
ENDBRANCH  14  19
ENDBRANCH   7  13
BRANCH  11  28
HETATM   28  N   UNL     1     -44.389  62.139 -54.725  1.00  0.00    -0.379 N 
HETATM   29  H   UNL     1     -44.017  62.817 -55.385  1.00  0.00     0.158 HD
HETATM   30  H   UNL     1     -44.614  62.507 -53.806  1.00  0.00     0.158 HD
ENDBRANCH  11  28
BRANCH   1  31
HETATM   31  C   UNL     1     -41.375  56.120 -54.150  1.00  0.00    -0.005 A 
HETATM   32  C   UNL     1     -40.389  55.538 -54.953  1.00  0.00     0.014 A 
HETATM   33  C   UNL     1     -40.270  54.147 -55.021  1.00  0.00     0.008 A 
HETATM   34  C   UNL     1     -41.140  53.315 -54.301  1.00  0.00    -0.058 A 
HETATM   35  C   UNL     1     -42.196  53.908 -53.596  1.00  0.00     0.008 A 
HETATM   36  C   UNL     1     -42.305  55.299 -53.508  1.00  0.00     0.014 A 
BRANCH  34  37
HETATM   37  C   UNL     1     -40.925  51.817 -54.350  1.00  0.00     0.042 C 
BRANCH  37  38
HETATM   38  C   UNL     1     -39.586  51.273 -53.802  1.00  0.00    -0.019 C 
HETATM   39  C   UNL     1     -39.407  49.772 -54.051  1.00  0.00     0.010 C 
HETATM   40  C   UNL     1     -39.499  51.545 -52.297  1.00  0.00     0.010 C 
ENDBRANCH  37  38
ENDBRANCH  34  37
ENDBRANCH   1  31
TORSDOF 7
ENDMDL
MODEL 5
REMARK VINA RESULT:      -7.9      3.243      6.020
REMARK  7 active torsions:
REMARK  status: ('A' for Active; 'I' for Inactive)
REMARK    1  A    between atoms: C_2  and  C_3 
REMARK    2  A    between atoms: C_3  and  C_4 
REMARK    3  A    between atoms: C_7  and  C_8 
REMARK    4  A    between atoms: C_14  and  C_15 
REMARK    5  A    between atoms: C_16  and  O_17 
REMARK    6  A    between atoms: O_17  and  C_18 
REMARK       I    between atoms: C_18  and  N_19 
REMARK    7  A    between atoms: C_33  and  N_34 
ROOT
HETATM    1  C   UNL     1     -43.170  58.274 -52.980  1.00  0.00     0.099 A 
HETATM    2  N   UNL     1     -42.896  58.602 -51.704  1.00  0.00    -0.172 NA
HETATM    3  N   UNL     1     -43.655  59.686 -51.463  1.00  0.00    -0.256 N 
HETATM    4  H   UNL     1     -43.645  60.095 -50.535  1.00  0.00     0.191 HD
HETATM    5  C   UNL     1     -44.380  60.072 -52.542  1.00  0.00     0.175 A 
HETATM    6  C   UNL     1     -44.050  59.225 -53.572  1.00  0.00     0.040 A 
HETATM    7  C   UNL     1     -44.712  59.386 -54.903  1.00  0.00     0.108 A 
HETATM    8  C   UNL     1     -45.672  60.568 -54.863  1.00  0.00     0.072 A 
HETATM    9  C   UNL     1     -46.283  60.955 -56.201  1.00  0.00     0.021 C 
HETATM   10  N   UNL     1     -46.790  61.276 -57.310  1.00  0.00    -0.096 N 
HETATM   11  C   UNL     1     -45.925  61.312 -53.755  1.00  0.00     0.160 A 
HETATM   12  O   UNL     1     -45.259  61.068 -52.541  1.00  0.00    -0.274 OA
ENDROOT
BRANCH   7  13
HETATM   13  C   UNL     1     -43.620  59.432 -55.966  1.00  0.00    -0.010 C 
HETATM   14  C   UNL     1     -43.440  58.511 -57.016  1.00  0.00     0.088 C 
HETATM   15  C   UNL     1     -42.488  58.742 -58.025  1.00  0.00     0.038 C 
HETATM   16  C   UNL     1     -41.618  59.824 -57.942  1.00  0.00     0.003 C 
HETATM   17  C   UNL     1     -41.700  60.685 -56.860  1.00  0.00     0.001 C 
HETATM   18  C   UNL     1     -42.685  60.489 -55.889  1.00  0.00     0.011 C 
BRANCH  14  19
HETATM   19  O   UNL     1     -44.206  57.326 -57.056  1.00  0.00    -0.261 OA
BRANCH  19  20
HETATM   20  C   UNL     1     -43.728  56.299 -57.888  1.00  0.00     0.368 C 
HETATM   21  N   UNL     1     -44.464  56.143 -59.050  1.00  0.00    -0.324 N 
HETATM   22  C   UNL     1     -43.917  55.309 -60.123  1.00  0.00     0.154 C 
HETATM   23  C   UNL     1     -45.553  57.025 -59.452  1.00  0.00     0.154 C 
HETATM   24  C   UNL     1     -45.026  54.628 -60.930  1.00  0.00     0.187 C 
HETATM   25  O   UNL     1     -46.005  55.580 -61.376  1.00  0.00    -0.388 OA
HETATM   26  C   UNL     1     -46.602  56.247 -60.253  1.00  0.00     0.187 C 
HETATM   27  O   UNL     1     -42.759  55.589 -57.633  1.00  0.00    -0.238 OA
ENDBRANCH  19  20
ENDBRANCH  14  19
ENDBRANCH   7  13
BRANCH  11  28
HETATM   28  N   UNL     1     -46.800  62.365 -53.684  1.00  0.00    -0.379 N 
HETATM   29  H   UNL     1     -47.769  62.155 -53.455  1.00  0.00     0.158 HD
HETATM   30  H   UNL     1     -46.669  63.060 -54.412  1.00  0.00     0.158 HD
ENDBRANCH  11  28
BRANCH   1  31
HETATM   31  C   UNL     1     -42.599  57.076 -53.579  1.00  0.00    -0.005 A 
HETATM   32  C   UNL     1     -41.253  57.046 -53.959  1.00  0.00     0.014 A 
HETATM   33  C   UNL     1     -40.674  55.851 -54.397  1.00  0.00     0.008 A 
HETATM   34  C   UNL     1     -41.431  54.672 -54.474  1.00  0.00    -0.058 A 
HETATM   35  C   UNL     1     -42.803  54.743 -54.204  1.00  0.00     0.008 A 
HETATM   36  C   UNL     1     -43.381  55.931 -53.746  1.00  0.00     0.014 A 
BRANCH  34  37
HETATM   37  C   UNL     1     -40.741  53.388 -54.883  1.00  0.00     0.042 C 
BRANCH  37  38
HETATM   38  C   UNL     1     -40.742  52.225 -53.866  1.00  0.00    -0.019 C 
HETATM   39  C   UNL     1     -40.159  52.622 -52.506  1.00  0.00     0.010 C 
HETATM   40  C   UNL     1     -39.939  51.048 -54.432  1.00  0.00     0.010 C 
ENDBRANCH  37  38
ENDBRANCH  34  37
ENDBRANCH   1  31
TORSDOF 7
ENDMDL
MODEL 6
REMARK VINA RESULT:      -7.5      3.340      6.379
REMARK  7 active torsions:
REMARK  status: ('A' for Active; 'I' for Inactive)
REMARK    1  A    between atoms: C_2  and  C_3 
REMARK    2  A    between atoms: C_3  and  C_4 
REMARK    3  A    between atoms: C_7  and  C_8 
REMARK    4  A    between atoms: C_14  and  C_15 
REMARK    5  A    between atoms: C_16  and  O_17 
REMARK    6  A    between atoms: O_17  and  C_18 
REMARK       I    between atoms: C_18  and  N_19 
REMARK    7  A    between atoms: C_33  and  N_34 
ROOT
HETATM    1  C   UNL     1     -43.830  59.091 -53.208  1.00  0.00     0.099 A 
HETATM    2  N   UNL     1     -43.760  59.632 -51.978  1.00  0.00    -0.172 NA
HETATM    3  N   UNL     1     -44.550  60.720 -52.042  1.00  0.00    -0.256 N 
HETATM    4  H   UNL     1     -44.686  61.275 -51.205  1.00  0.00     0.191 HD
HETATM    5  C   UNL     1     -45.098  60.901 -53.269  1.00  0.00     0.175 A 
HETATM    6  C   UNL     1     -44.608  59.906 -54.079  1.00  0.00     0.040 A 
HETATM    7  C   UNL     1     -45.054  59.826 -55.504  1.00  0.00     0.108 A 
HETATM    8  C   UNL     1     -46.011  60.971 -55.811  1.00  0.00     0.072 A 
HETATM    9  C   UNL     1     -46.406  61.115 -57.273  1.00  0.00     0.021 C 
HETATM   10  N   UNL     1     -46.734  61.233 -58.485  1.00  0.00    -0.096 N 
HETATM   11  C   UNL     1     -46.437  61.879 -54.896  1.00  0.00     0.160 A 
HETATM   12  O   UNL     1     -45.969  61.859 -53.570  1.00  0.00    -0.274 OA
ENDROOT
BRANCH   7  13
HETATM   13  C   UNL     1     -43.809  59.727 -56.379  1.00  0.00    -0.010 C 
HETATM   14  C   UNL     1     -43.435  58.627 -57.175  1.00  0.00     0.088 C 
HETATM   15  C   UNL     1     -42.343  58.711 -58.056  1.00  0.00     0.038 C 
HETATM   16  C   UNL     1     -41.533  59.841 -58.073  1.00  0.00     0.003 C 
HETATM   17  C   UNL     1     -41.813  60.895 -57.219  1.00  0.00     0.001 C 
HETATM   18  C   UNL     1     -42.933  60.836 -56.386  1.00  0.00     0.011 C 
BRANCH  14  19
HETATM   19  O   UNL     1     -44.147  57.412 -57.080  1.00  0.00    -0.261 OA
BRANCH  19  20
HETATM   20  C   UNL     1     -43.716  56.366 -57.916  1.00  0.00     0.368 C 
HETATM   21  N   UNL     1     -44.485  56.220 -59.057  1.00  0.00    -0.324 N 
HETATM   22  C   UNL     1     -43.986  55.364 -60.136  1.00  0.00     0.154 C 
HETATM   23  C   UNL     1     -45.562  57.125 -59.438  1.00  0.00     0.154 C 
HETATM   24  C   UNL     1     -45.132  54.705 -60.909  1.00  0.00     0.187 C 
HETATM   25  O   UNL     1     -46.099  55.677 -61.337  1.00  0.00    -0.388 OA
HETATM   26  C   UNL     1     -46.650  56.367 -60.206  1.00  0.00     0.187 C 
HETATM   27  O   UNL     1     -42.758  55.635 -57.679  1.00  0.00    -0.238 OA
ENDBRANCH  19  20
ENDBRANCH  14  19
ENDBRANCH   7  13
BRANCH  11  28
HETATM   28  N   UNL     1     -47.314  62.905 -55.137  1.00  0.00    -0.379 N 
HETATM   29  H   UNL     1     -47.857  62.864 -55.996  1.00  0.00     0.158 HD
HETATM   30  H   UNL     1     -46.952  63.823 -54.899  1.00  0.00     0.158 HD
ENDBRANCH  11  28
BRANCH   1  31
HETATM   31  C   UNL     1     -43.169  57.827 -53.503  1.00  0.00    -0.005 A 
HETATM   32  C   UNL     1     -43.903  56.637 -53.548  1.00  0.00     0.014 A 
HETATM   33  C   UNL     1     -43.295  55.453 -53.975  1.00  0.00     0.008 A 
HETATM   34  C   UNL     1     -41.944  55.435 -54.351  1.00  0.00    -0.058 A 
HETATM   35  C   UNL     1     -41.192  56.605 -54.189  1.00  0.00     0.008 A 
HETATM   36  C   UNL     1     -41.801  57.796 -53.782  1.00  0.00     0.014 A 
BRANCH  34  37
HETATM   37  C   UNL     1     -41.351  54.144 -54.876  1.00  0.00     0.042 C 
BRANCH  37  38
HETATM   38  C   UNL     1     -40.411  53.358 -53.934  1.00  0.00    -0.019 C 
HETATM   39  C   UNL     1     -40.267  51.885 -54.331  1.00  0.00     0.010 C 
HETATM   40  C   UNL     1     -40.940  53.441 -52.498  1.00  0.00     0.010 C 
ENDBRANCH  37  38
ENDBRANCH  34  37
ENDBRANCH   1  31
TORSDOF 7
ENDMDL
MODEL 7
REMARK VINA RESULT:      -7.5      4.503      7.201
REMARK  7 active torsions:
REMARK  status: ('A' for Active; 'I' for Inactive)
REMARK    1  A    between atoms: C_2  and  C_3 
REMARK    2  A    between atoms: C_3  and  C_4 
REMARK    3  A    between atoms: C_7  and  C_8 
REMARK    4  A    between atoms: C_14  and  C_15 
REMARK    5  A    between atoms: C_16  and  O_17 
REMARK    6  A    between atoms: O_17  and  C_18 
REMARK       I    between atoms: C_18  and  N_19 
REMARK    7  A    between atoms: C_33  and  N_34 
ROOT
HETATM    1  C   UNL     1     -44.485  58.632 -55.595  1.00  0.00     0.099 A 
HETATM    2  N   UNL     1     -44.459  59.703 -54.780  1.00  0.00    -0.172 NA
HETATM    3  N   UNL     1     -45.308  60.580 -55.345  1.00  0.00    -0.256 N 
HETATM    4  H   UNL     1     -45.483  61.462 -54.877  1.00  0.00     0.191 HD
HETATM    5  C   UNL     1     -45.852  60.117 -56.498  1.00  0.00     0.175 A 
HETATM    6  C   UNL     1     -45.300  58.883 -56.737  1.00  0.00     0.040 A 
HETATM    7  C   UNL     1     -45.727  58.103 -57.939  1.00  0.00     0.108 A 
HETATM    8  C   UNL     1     -46.744  58.904 -58.742  1.00  0.00     0.072 A 
HETATM    9  C   UNL     1     -47.131  58.304 -60.084  1.00  0.00     0.021 C 
HETATM   10  N   UNL     1     -47.453  57.806 -61.197  1.00  0.00    -0.096 N 
HETATM   11  C   UNL     1     -47.228  60.117 -58.369  1.00  0.00     0.160 A 
HETATM   12  O   UNL     1     -46.773  60.763 -57.207  1.00  0.00    -0.274 OA
ENDROOT
BRANCH   7  13
HETATM   13  C   UNL     1     -44.469  57.661 -58.680  1.00  0.00    -0.010 C 
HETATM   14  C   UNL     1     -43.440  58.499 -59.149  1.00  0.00     0.088 C 
HETATM   15  C   UNL     1     -42.256  57.960 -59.684  1.00  0.00     0.038 C 
HETATM   16  C   UNL     1     -42.127  56.589 -59.876  1.00  0.00     0.003 C 
HETATM   17  C   UNL     1     -43.172  55.749 -59.526  1.00  0.00     0.001 C 
HETATM   18  C   UNL     1     -44.324  56.279 -58.939  1.00  0.00     0.011 C 
BRANCH  14  19
HETATM   19  O   UNL     1     -43.594  59.901 -59.103  1.00  0.00    -0.261 OA
BRANCH  19  20
HETATM   20  C   UNL     1     -43.656  60.566 -60.340  1.00  0.00     0.368 C 
HETATM   21  N   UNL     1     -42.622  61.465 -60.535  1.00  0.00    -0.324 N 
HETATM   22  C   UNL     1     -42.409  62.012 -61.877  1.00  0.00     0.154 C 
HETATM   23  C   UNL     1     -41.501  61.633 -59.618  1.00  0.00     0.154 C 
HETATM   24  C   UNL     1     -41.834  63.430 -61.824  1.00  0.00     0.187 C 
HETATM   25  O   UNL     1     -40.672  63.490 -60.981  1.00  0.00    -0.388 OA
HETATM   26  C   UNL     1     -41.002  63.081 -59.645  1.00  0.00     0.187 C 
HETATM   27  O   UNL     1     -44.532  60.390 -61.183  1.00  0.00    -0.238 OA
ENDBRANCH  19  20
ENDBRANCH  14  19
ENDBRANCH   7  13
BRANCH  11  28
HETATM   28  N   UNL     1     -48.160  60.850 -59.059  1.00  0.00    -0.379 N 
HETATM   29  H   UNL     1     -48.718  61.514 -58.529  1.00  0.00     0.158 HD
HETATM   30  H   UNL     1     -48.669  60.318 -59.757  1.00  0.00     0.158 HD
ENDBRANCH  11  28
BRANCH   1  31
HETATM   31  C   UNL     1     -43.752  57.420 -55.257  1.00  0.00    -0.005 A 
HETATM   32  C   UNL     1     -44.342  56.435 -54.459  1.00  0.00     0.014 A 
HETATM   33  C   UNL     1     -43.693  55.213 -54.260  1.00  0.00     0.008 A 
HETATM   34  C   UNL     1     -42.442  54.960 -54.841  1.00  0.00    -0.058 A 
HETATM   35  C   UNL     1     -41.811  55.997 -55.539  1.00  0.00     0.008 A 
HETATM   36  C   UNL     1     -42.466  57.213 -55.758  1.00  0.00     0.014 A 
BRANCH  34  37
HETATM   37  C   UNL     1     -41.814  53.595 -54.656  1.00  0.00     0.042 C 
BRANCH  37  38
HETATM   38  C   UNL     1     -40.506  53.519 -53.837  1.00  0.00    -0.019 C 
HETATM   39  C   UNL     1     -39.841  52.140 -53.905  1.00  0.00     0.010 C 
HETATM   40  C   UNL     1     -40.799  53.862 -52.372  1.00  0.00     0.010 C 
ENDBRANCH  37  38
ENDBRANCH  34  37
ENDBRANCH   1  31
TORSDOF 7
ENDMDL
MODEL 8
REMARK VINA RESULT:      -7.3      2.689      5.165
REMARK  7 active torsions:
REMARK  status: ('A' for Active; 'I' for Inactive)
REMARK    1  A    between atoms: C_2  and  C_3 
REMARK    2  A    between atoms: C_3  and  C_4 
REMARK    3  A    between atoms: C_7  and  C_8 
REMARK    4  A    between atoms: C_14  and  C_15 
REMARK    5  A    between atoms: C_16  and  O_17 
REMARK    6  A    between atoms: O_17  and  C_18 
REMARK       I    between atoms: C_18  and  N_19 
REMARK    7  A    between atoms: C_33  and  N_34 
ROOT
HETATM    1  C   UNL     1     -42.915  56.117 -57.564  1.00  0.00     0.099 A 
HETATM    2  N   UNL     1     -43.265  55.249 -58.531  1.00  0.00    -0.172 NA
HETATM    3  N   UNL     1     -43.141  55.948 -59.674  1.00  0.00    -0.256 N 
HETATM    4  H   UNL     1     -43.317  55.479 -60.555  1.00  0.00     0.191 HD
HETATM    5  C   UNL     1     -42.749  57.229 -59.467  1.00  0.00     0.175 A 
HETATM    6  C   UNL     1     -42.652  57.406 -58.109  1.00  0.00     0.040 A 
HETATM    7  C   UNL     1     -42.213  58.729 -57.566  1.00  0.00     0.108 A 
HETATM    8  C   UNL     1     -41.971  59.704 -58.711  1.00  0.00     0.072 A 
HETATM    9  C   UNL     1     -41.689  61.139 -58.294  1.00  0.00     0.021 C 
HETATM   10  N   UNL     1     -41.454  62.329 -57.948  1.00  0.00    -0.096 N 
HETATM   11  C   UNL     1     -42.080  59.383 -60.026  1.00  0.00     0.160 A 
HETATM   12  O   UNL     1     -42.486  58.101 -60.436  1.00  0.00    -0.274 OA
ENDROOT
BRANCH   7  13
HETATM   13  C   UNL     1     -43.222  59.158 -56.507  1.00  0.00    -0.010 C 
HETATM   14  C   UNL     1     -42.924  59.685 -55.236  1.00  0.00     0.088 C 
HETATM   15  C   UNL     1     -43.941  60.187 -54.404  1.00  0.00     0.038 C 
HETATM   16  C   UNL     1     -45.277  60.062 -54.767  1.00  0.00     0.003 C 
HETATM   17  C   UNL     1     -45.605  59.446 -55.965  1.00  0.00     0.001 C 
HETATM   18  C   UNL     1     -44.592  59.001 -56.818  1.00  0.00     0.011 C 
BRANCH  14  19
HETATM   19  O   UNL     1     -41.591  59.697 -54.771  1.00  0.00    -0.261 OA
BRANCH  19  20
HETATM   20  C   UNL     1     -41.199  58.616 -53.962  1.00  0.00     0.368 C 
HETATM   21  N   UNL     1     -41.323  58.867 -52.607  1.00  0.00    -0.324 N 
HETATM   22  C   UNL     1     -41.218  57.746 -51.671  1.00  0.00     0.154 C 
HETATM   23  C   UNL     1     -41.916  60.078 -52.052  1.00  0.00     0.154 C 
HETATM   24  C   UNL     1     -40.631  58.185 -50.327  1.00  0.00     0.187 C 
HETATM   25  O   UNL     1     -41.335  59.320 -49.797  1.00  0.00    -0.388 OA
HETATM   26  C   UNL     1     -41.262  60.425 -50.710  1.00  0.00     0.187 C 
HETATM   27  O   UNL     1     -40.779  57.544 -54.389  1.00  0.00    -0.238 OA
ENDBRANCH  19  20
ENDBRANCH  14  19
ENDBRANCH   7  13
BRANCH  11  28
HETATM   28  N   UNL     1     -41.847  60.232 -61.077  1.00  0.00    -0.379 N 
HETATM   29  H   UNL     1     -42.226  61.173 -61.011  1.00  0.00     0.158 HD
HETATM   30  H   UNL     1     -41.933  59.794 -61.988  1.00  0.00     0.158 HD
ENDBRANCH  11  28
BRANCH   1  31
HETATM   31  C   UNL     1     -42.834  55.690 -56.174  1.00  0.00    -0.005 A 
HETATM   32  C   UNL     1     -43.768  56.143 -55.238  1.00  0.00     0.014 A 
HETATM   33  C   UNL     1     -43.775  55.618 -53.942  1.00  0.00     0.008 A 
HETATM   34  C   UNL     1     -42.843  54.643 -53.558  1.00  0.00    -0.058 A 
HETATM   35  C   UNL     1     -41.840  54.285 -54.467  1.00  0.00     0.008 A 
HETATM   36  C   UNL     1     -41.843  54.793 -55.770  1.00  0.00     0.014 A 
BRANCH  34  37
HETATM   37  C   UNL     1     -42.938  54.052 -52.166  1.00  0.00     0.042 C 
BRANCH  37  38
HETATM   38  C   UNL     1     -41.725  54.244 -51.228  1.00  0.00    -0.019 C 
HETATM   39  C   UNL     1     -40.833  53.000 -51.148  1.00  0.00     0.010 C 
HETATM   40  C   UNL     1     -42.216  54.600 -49.821  1.00  0.00     0.010 C 
ENDBRANCH  37  38
ENDBRANCH  34  37
ENDBRANCH   1  31
TORSDOF 7
ENDMDL
MODEL 9
REMARK VINA RESULT:      -6.9      4.099      6.143
REMARK  7 active torsions:
REMARK  status: ('A' for Active; 'I' for Inactive)
REMARK    1  A    between atoms: C_2  and  C_3 
REMARK    2  A    between atoms: C_3  and  C_4 
REMARK    3  A    between atoms: C_7  and  C_8 
REMARK    4  A    between atoms: C_14  and  C_15 
REMARK    5  A    between atoms: C_16  and  O_17 
REMARK    6  A    between atoms: O_17  and  C_18 
REMARK       I    between atoms: C_18  and  N_19 
REMARK    7  A    between atoms: C_33  and  N_34 
ROOT
HETATM    1  C   UNL     1     -42.857  56.292 -57.355  1.00  0.00     0.099 A 
HETATM    2  N   UNL     1     -43.249  55.284 -58.157  1.00  0.00    -0.172 NA
HETATM    3  N   UNL     1     -43.134  55.779 -59.403  1.00  0.00    -0.256 N 
HETATM    4  H   UNL     1     -43.341  55.175 -60.190  1.00  0.00     0.191 HD
HETATM    5  C   UNL     1     -42.710  57.067 -59.421  1.00  0.00     0.175 A 
HETATM    6  C   UNL     1     -42.578  57.465 -58.113  1.00  0.00     0.040 A 
HETATM    7  C   UNL     1     -42.096  58.848 -57.807  1.00  0.00     0.108 A 
HETATM    8  C   UNL     1     -41.859  59.612 -59.103  1.00  0.00     0.072 A 
HETATM    9  C   UNL     1     -41.535  61.088 -58.938  1.00  0.00     0.021 C 
HETATM   10  N   UNL     1     -41.266  62.313 -58.800  1.00  0.00    -0.096 N 
HETATM   11  C   UNL     1     -42.005  59.079 -60.344  1.00  0.00     0.160 A 
HETATM   12  O   UNL     1     -42.449  57.758 -60.526  1.00  0.00    -0.274 OA
ENDROOT
BRANCH   7  13
HETATM   13  C   UNL     1     -43.072  59.474 -56.816  1.00  0.00    -0.010 C 
HETATM   14  C   UNL     1     -44.459  59.631 -56.997  1.00  0.00     0.088 C 
HETATM   15  C   UNL     1     -45.278  60.085 -55.949  1.00  0.00     0.038 C 
HETATM   16  C   UNL     1     -44.720  60.506 -54.747  1.00  0.00     0.003 C 
HETATM   17  C   UNL     1     -43.345  60.467 -54.581  1.00  0.00     0.001 C 
HETATM   18  C   UNL     1     -42.536  59.960 -55.601  1.00  0.00     0.011 C 
BRANCH  14  19
HETATM   19  O   UNL     1     -45.044  59.349 -58.250  1.00  0.00    -0.261 OA
BRANCH  19  20
HETATM   20  C   UNL     1     -45.466  60.456 -59.008  1.00  0.00     0.368 C 
HETATM   21  N   UNL     1     -46.532  60.177 -59.844  1.00  0.00    -0.324 N 
HETATM   22  C   UNL     1     -47.244  61.292 -60.474  1.00  0.00     0.154 C 
HETATM   23  C   UNL     1     -47.244  58.905 -59.865  1.00  0.00     0.154 C 
HETATM   24  C   UNL     1     -47.812  60.901 -61.840  1.00  0.00     0.187 C 
HETATM   25  O   UNL     1     -48.585  59.692 -61.755  1.00  0.00    -0.388 OA
HETATM   26  C   UNL     1     -47.773  58.611 -61.272  1.00  0.00     0.187 C 
HETATM   27  O   UNL     1     -44.954  61.571 -58.957  1.00  0.00    -0.238 OA
ENDBRANCH  19  20
ENDBRANCH  14  19
ENDBRANCH   7  13
BRANCH  11  28
HETATM   28  N   UNL     1     -41.776  59.735 -61.526  1.00  0.00    -0.379 N 
HETATM   29  H   UNL     1     -42.133  60.683 -61.611  1.00  0.00     0.158 HD
HETATM   30  H   UNL     1     -41.894  59.153 -62.349  1.00  0.00     0.158 HD
ENDBRANCH  11  28
BRANCH   1  31
HETATM   31  C   UNL     1     -42.754  56.101 -55.915  1.00  0.00    -0.005 A 
HETATM   32  C   UNL     1     -41.586  55.577 -55.352  1.00  0.00     0.014 A 
HETATM   33  C   UNL     1     -41.436  55.533 -53.963  1.00  0.00     0.008 A 
HETATM   34  C   UNL     1     -42.452  55.997 -53.115  1.00  0.00    -0.058 A 
HETATM   35  C   UNL     1     -43.662  56.409 -53.690  1.00  0.00     0.008 A 
HETATM   36  C   UNL     1     -43.807  56.474 -55.079  1.00  0.00     0.014 A 
BRANCH  34  37
HETATM   37  C   UNL     1     -42.212  55.997 -51.620  1.00  0.00     0.042 C 
BRANCH  37  38
HETATM   38  C   UNL     1     -42.407  54.660 -50.870  1.00  0.00    -0.019 C 
HETATM   39  C   UNL     1     -43.875  54.371 -50.540  1.00  0.00     0.010 C 
HETATM   40  C   UNL     1     -41.596  54.679 -49.569  1.00  0.00     0.010 C 
ENDBRANCH  37  38
ENDBRANCH  34  37
ENDBRANCH   1  31
TORSDOF 7
ENDMDL
MODEL 10
REMARK VINA RESULT:      -6.9     17.534     20.585
REMARK  7 active torsions:
REMARK  status: ('A' for Active; 'I' for Inactive)
REMARK    1  A    between atoms: C_2  and  C_3 
REMARK    2  A    between atoms: C_3  and  C_4 
REMARK    3  A    between atoms: C_7  and  C_8 
REMARK    4  A    between atoms: C_14  and  C_15 
REMARK    5  A    between atoms: C_16  and  O_17 
REMARK    6  A    between atoms: O_17  and  C_18 
REMARK       I    between atoms: C_18  and  N_19 
REMARK    7  A    between atoms: C_33  and  N_34 
ROOT
HETATM    1  C   UNL     1     -32.325  40.003 -54.365  1.00  0.00     0.099 A 
HETATM    2  N   UNL     1     -31.278  40.021 -55.210  1.00  0.00    -0.172 NA
HETATM    3  N   UNL     1     -31.793  40.447 -56.378  1.00  0.00    -0.256 N 
HETATM    4  H   UNL     1     -31.172  40.579 -57.167  1.00  0.00     0.191 HD
HETATM    5  C   UNL     1     -33.128  40.676 -56.311  1.00  0.00     0.175 A 
HETATM    6  C   UNL     1     -33.531  40.340 -55.042  1.00  0.00     0.040 A 
HETATM    7  C   UNL     1     -34.966  40.509 -54.654  1.00  0.00     0.108 A 
HETATM    8  C   UNL     1     -35.766  41.029 -55.841  1.00  0.00     0.072 A 
HETATM    9  C   UNL     1     -37.272  41.081 -55.639  1.00  0.00     0.021 C 
HETATM   10  N   UNL     1     -38.521  41.124 -55.470  1.00  0.00    -0.096 N 
HETATM   11  C   UNL     1     -35.226  41.350 -57.046  1.00  0.00     0.160 A 
HETATM   12  O   UNL     1     -33.857  41.169 -57.307  1.00  0.00    -0.274 OA
ENDROOT
BRANCH   7  13
HETATM   13  C   UNL     1     -35.440  39.198 -54.035  1.00  0.00    -0.010 C 
HETATM   14  C   UNL     1     -35.601  37.971 -54.704  1.00  0.00     0.088 C 
HETATM   15  C   UNL     1     -35.900  36.794 -53.995  1.00  0.00     0.038 C 
HETATM   16  C   UNL     1     -36.164  36.839 -52.630  1.00  0.00     0.003 C 
HETATM   17  C   UNL     1     -36.121  38.054 -51.966  1.00  0.00     0.001 C 
HETATM   18  C   UNL     1     -35.766  39.214 -52.660  1.00  0.00     0.011 C 
BRANCH  14  19
HETATM   19  O   UNL     1     -35.483  37.910 -56.109  1.00  0.00    -0.261 OA
BRANCH  19  20
HETATM   20  C   UNL     1     -34.255  37.451 -56.616  1.00  0.00     0.368 C 
HETATM   21  N   UNL     1     -34.144  37.577 -57.990  1.00  0.00    -0.324 N 
HETATM   22  C   UNL     1     -32.828  37.400 -58.609  1.00  0.00     0.154 C 
HETATM   23  C   UNL     1     -35.137  38.231 -58.833  1.00  0.00     0.154 C 
HETATM   24  C   UNL     1     -32.942  36.827 -60.024  1.00  0.00     0.187 C 
HETATM   25  O   UNL     1     -33.862  37.589 -60.822  1.00  0.00    -0.388 OA
HETATM   26  C   UNL     1     -35.166  37.586 -60.223  1.00  0.00     0.187 C 
HETATM   27  O   UNL     1     -33.353  36.974 -55.932  1.00  0.00    -0.238 OA
ENDBRANCH  19  20
ENDBRANCH  14  19
ENDBRANCH   7  13
BRANCH  11  28
HETATM   28  N   UNL     1     -35.917  41.841 -58.124  1.00  0.00    -0.379 N 
HETATM   29  H   UNL     1     -36.376  41.168 -58.732  1.00  0.00     0.158 HD
HETATM   30  H   UNL     1     -35.448  42.605 -58.600  1.00  0.00     0.158 HD
ENDBRANCH  11  28
BRANCH   1  31
HETATM   31  C   UNL     1     -32.139  39.680 -52.957  1.00  0.00    -0.005 A 
HETATM   32  C   UNL     1     -32.050  40.698 -52.002  1.00  0.00     0.014 A 
HETATM   33  C   UNL     1     -32.020  40.382 -50.641  1.00  0.00     0.008 A 
HETATM   34  C   UNL     1     -32.066  39.047 -50.211  1.00  0.00    -0.058 A 
HETATM   35  C   UNL     1     -32.036  38.035 -51.179  1.00  0.00     0.008 A 
HETATM   36  C   UNL     1     -32.087  38.348 -52.541  1.00  0.00     0.014 A 
BRANCH  34  37
HETATM   37  C   UNL     1     -32.105  38.760 -48.725  1.00  0.00     0.042 C 
BRANCH  37  38
HETATM   38  C   UNL     1     -33.255  37.869 -48.203  1.00  0.00    -0.019 C 
HETATM   39  C   UNL     1     -34.641  38.404 -48.581  1.00  0.00     0.010 C 
HETATM   40  C   UNL     1     -33.162  37.752 -46.678  1.00  0.00     0.010 C 
ENDBRANCH  37  38
ENDBRANCH  34  37
ENDBRANCH   1  31
TORSDOF 7
ENDMDL
