MODEL 1
REMARK VINA RESULT:      -8.8      0.000      0.000
REMARK  9 active torsions:
REMARK  status: ('A' for Active; 'I' for Inactive)
REMARK    1  A    between atoms: C_3  and  N_4 
REMARK    2  A    between atoms: N_4  and  S_5 
REMARK    3  A    between atoms: S_5  and  C_6 
REMARK    4  A    between atoms: C_12  and  C_13 
REMARK       I    between atoms: C_13  and  N_14 
REMARK    5  A    between atoms: N_14  and  C_15 
REMARK    6  A    between atoms: C_15  and  C_16 
REMARK    7  A    between atoms: C_16  and  C_17 
REMARK    8  A    between atoms: C_17  and  O_18 
REMARK    9  A    between atoms: O_18  and  C_19 
ROOT
HETATM    1  C   UNL     1     -41.363  55.609 -51.256  1.00  0.00     0.081 A 
HETATM    2  C   UNL     1     -41.511  55.882 -52.618  1.00  0.00     0.043 A 
HETATM    3  C   UNL     1     -41.573  57.213 -53.039  1.00  0.00     0.043 A 
HETATM    4  C   UNL     1     -41.456  58.270 -52.119  1.00  0.00     0.046 A 
HETATM    5  N   UNL     1     -41.540  59.592 -52.569  1.00  0.00    -0.364 N 
HETATM    6  C   UNL     1     -41.738  59.876 -53.896  1.00  0.00     0.109 A 
HETATM    7  C   UNL     1     -41.876  58.965 -54.874  1.00  0.00     0.098 A 
HETATM    8  C   UNL     1     -41.789  57.531 -54.476  1.00  0.00     0.201 A 
HETATM    9  O   UNL     1     -41.914  56.623 -55.295  1.00  0.00    -0.286 OA
HETATM   10  C   UNL     1     -41.293  57.976 -50.762  1.00  0.00     0.032 A 
HETATM   11  C   UNL     1     -41.244  56.647 -50.327  1.00  0.00     0.027 A 
HETATM   12  H   UNL     1     -41.396  60.358 -51.921  1.00  0.00     0.165 HD
ENDROOT
BRANCH   1  13
HETATM   13  S   UNL     1     -41.276  53.916 -50.721  1.00  0.00     0.263 S 
HETATM   14  O   UNL     1     -42.417  53.214 -51.270  1.00  0.00    -0.200 OA
HETATM   15  O   UNL     1     -41.027  53.934 -49.294  1.00  0.00    -0.200 OA
BRANCH  13  16
HETATM   16  N   UNL     1     -39.862  53.365 -51.441  1.00  0.00    -0.280 N 
HETATM   17  H   UNL     1     -39.245  54.107 -51.764  1.00  0.00     0.179 HD
BRANCH  16  18
HETATM   18  C   UNL     1     -39.824  52.100 -52.091  1.00  0.00     0.048 A 
HETATM   19  C   UNL     1     -39.960  51.988 -53.483  1.00  0.00    -0.035 A 
HETATM   20  C   UNL     1     -40.208  53.160 -54.390  1.00  0.00     0.050 C 
HETATM   21  C   UNL     1     -39.930  50.705 -54.060  1.00  0.00     0.009 A 
HETATM   22  C   UNL     1     -39.740  49.568 -53.275  1.00  0.00     0.001 A 
HETATM   23  C   UNL     1     -39.592  49.693 -51.897  1.00  0.00     0.002 A 
HETATM   24  C   UNL     1     -39.639  50.955 -51.308  1.00  0.00     0.030 A 
ENDBRANCH  16  18
ENDBRANCH  13  16
ENDBRANCH   1  13
BRANCH   7  25
HETATM   25  C   UNL     1     -42.147  59.444 -56.261  1.00  0.00     0.257 C 
HETATM   26  N   UNL     1     -42.916  58.610 -57.031  1.00  0.00    -0.357 N 
HETATM   27  H   UNL     1     -43.224  57.724 -56.627  1.00  0.00     0.162 HD
HETATM   28  O   UNL     1     -41.728  60.527 -56.661  1.00  0.00    -0.267 OA
BRANCH  26  29
HETATM   29  C   UNL     1     -43.381  58.970 -58.351  1.00  0.00     0.125 C 
BRANCH  29  30
HETATM   30  C   UNL     1     -42.883  58.019 -59.431  1.00  0.00     0.046 C 
BRANCH  30  31
HETATM   31  C   UNL     1     -44.042  57.538 -60.297  1.00  0.00     0.169 C 
BRANCH  31  32
HETATM   32  O   UNL     1     -43.736  56.238 -60.796  1.00  0.00    -0.387 OA
BRANCH  32  33
HETATM   33  C   UNL     1     -44.839  55.327 -60.743  1.00  0.00     0.113 C 
HETATM   34  C   UNL     1     -44.612  54.238 -59.698  1.00  0.00     0.039 C 
HETATM   35  C   UNL     1     -46.077  56.144 -60.388  1.00  0.00     0.039 C 
ENDBRANCH  32  33
ENDBRANCH  31  32
ENDBRANCH  30  31
ENDBRANCH  29  30
ENDBRANCH  26  29
ENDBRANCH   7  25
TORSDOF 9
ENDMDL
MODEL 2
REMARK VINA RESULT:      -8.2      4.491      7.375
REMARK  9 active torsions:
REMARK  status: ('A' for Active; 'I' for Inactive)
REMARK    1  A    between atoms: C_3  and  N_4 
REMARK    2  A    between atoms: N_4  and  S_5 
REMARK    3  A    between atoms: S_5  and  C_6 
REMARK    4  A    between atoms: C_12  and  C_13 
REMARK       I    between atoms: C_13  and  N_14 
REMARK    5  A    between atoms: N_14  and  C_15 
REMARK    6  A    between atoms: C_15  and  C_16 
REMARK    7  A    between atoms: C_16  and  C_17 
REMARK    8  A    between atoms: C_17  and  O_18 
REMARK    9  A    between atoms: O_18  and  C_19 
ROOT
HETATM    1  C   UNL     1     -42.288  56.325 -51.691  1.00  0.00     0.081 A 
HETATM    2  C   UNL     1     -43.432  57.011 -51.275  1.00  0.00     0.043 A 
HETATM    3  C   UNL     1     -43.557  58.369 -51.582  1.00  0.00     0.043 A 
HETATM    4  C   UNL     1     -42.570  59.036 -52.328  1.00  0.00     0.046 A 
HETATM    5  N   UNL     1     -42.714  60.399 -52.605  1.00  0.00    -0.364 N 
HETATM    6  C   UNL     1     -43.804  61.100 -52.158  1.00  0.00     0.109 A 
HETATM    7  C   UNL     1     -44.812  60.589 -51.429  1.00  0.00     0.098 A 
HETATM    8  C   UNL     1     -44.736  59.137 -51.100  1.00  0.00     0.201 A 
HETATM    9  O   UNL     1     -45.601  58.578 -50.428  1.00  0.00    -0.286 OA
HETATM   10  C   UNL     1     -41.440  58.327 -52.749  1.00  0.00     0.032 A 
HETATM   11  C   UNL     1     -41.297  56.972 -52.435  1.00  0.00     0.027 A 
HETATM   12  H   UNL     1     -42.037  60.871 -53.193  1.00  0.00     0.165 HD
ENDROOT
BRANCH   1  13
HETATM   13  S   UNL     1     -42.133  54.596 -51.306  1.00  0.00     0.263 S 
HETATM   14  O   UNL     1     -43.114  53.874 -52.088  1.00  0.00    -0.200 OA
HETATM   15  O   UNL     1     -42.099  54.484 -49.862  1.00  0.00    -0.200 OA
BRANCH  13  16
HETATM   16  N   UNL     1     -40.585  54.227 -51.845  1.00  0.00    -0.280 N 
HETATM   17  H   UNL     1     -40.068  55.028 -52.201  1.00  0.00     0.179 HD
BRANCH  16  18
HETATM   18  C   UNL     1     -40.280  52.929 -52.341  1.00  0.00     0.048 A 
HETATM   19  C   UNL     1     -40.302  52.647 -53.716  1.00  0.00    -0.035 A 
HETATM   20  C   UNL     1     -40.694  53.651 -54.763  1.00  0.00     0.050 C 
HETATM   21  C   UNL     1     -40.006  51.339 -54.138  1.00  0.00     0.009 A 
HETATM   22  C   UNL     1     -39.669  50.345 -53.219  1.00  0.00     0.001 A 
HETATM   23  C   UNL     1     -39.636  50.640 -51.860  1.00  0.00     0.002 A 
HETATM   24  C   UNL     1     -39.946  51.927 -51.424  1.00  0.00     0.030 A 
ENDBRANCH  16  18
ENDBRANCH  13  16
ENDBRANCH   1  13
BRANCH   7  25
HETATM   25  C   UNL     1     -45.896  61.506 -50.971  1.00  0.00     0.257 C 
HETATM   26  N   UNL     1     -46.021  61.633 -49.612  1.00  0.00    -0.357 N 
HETATM   27  H   UNL     1     -45.399  61.087 -49.013  1.00  0.00     0.162 HD
HETATM   28  O   UNL     1     -46.601  62.119 -51.768  1.00  0.00    -0.267 OA
BRANCH  26  29
HETATM   29  C   UNL     1     -46.931  62.572 -48.994  1.00  0.00     0.125 C 
BRANCH  29  30
HETATM   30  C   UNL     1     -46.313  63.294 -47.803  1.00  0.00     0.046 C 
BRANCH  30  31
HETATM   31  C   UNL     1     -46.514  62.487 -46.525  1.00  0.00     0.169 C 
BRANCH  31  32
HETATM   32  O   UNL     1     -46.931  61.168 -46.872  1.00  0.00    -0.387 OA
BRANCH  32  33
HETATM   33  C   UNL     1     -46.032  60.146 -46.430  1.00  0.00     0.113 C 
HETATM   34  C   UNL     1     -44.988  60.702 -45.465  1.00  0.00     0.039 C 
HETATM   35  C   UNL     1     -46.873  59.081 -45.736  1.00  0.00     0.039 C 
ENDBRANCH  32  33
ENDBRANCH  31  32
ENDBRANCH  30  31
ENDBRANCH  29  30
ENDBRANCH  26  29
ENDBRANCH   7  25
TORSDOF 9
ENDMDL
MODEL 3
REMARK VINA RESULT:      -8.2      2.144      2.848
REMARK  9 active torsions:
REMARK  status: ('A' for Active; 'I' for Inactive)
REMARK    1  A    between atoms: C_3  and  N_4 
REMARK    2  A    between atoms: N_4  and  S_5 
REMARK    3  A    between atoms: S_5  and  C_6 
REMARK    4  A    between atoms: C_12  and  C_13 
REMARK       I    between atoms: C_13  and  N_14 
REMARK    5  A    between atoms: N_14  and  C_15 
REMARK    6  A    between atoms: C_15  and  C_16 
REMARK    7  A    between atoms: C_16  and  C_17 
REMARK    8  A    between atoms: C_17  and  O_18 
REMARK    9  A    between atoms: O_18  and  C_19 
ROOT
HETATM    1  C   UNL     1     -43.276  56.161 -51.946  1.00  0.00     0.081 A 
HETATM    2  C   UNL     1     -43.375  56.175 -53.340  1.00  0.00     0.043 A 
HETATM    3  C   UNL     1     -44.056  57.226 -53.960  1.00  0.00     0.043 A 
HETATM    4  C   UNL     1     -44.606  58.277 -53.206  1.00  0.00     0.046 A 
HETATM    5  N   UNL     1     -45.298  59.306 -53.853  1.00  0.00    -0.364 N 
HETATM    6  C   UNL     1     -45.450  59.307 -55.217  1.00  0.00     0.109 A 
HETATM    7  C   UNL     1     -44.985  58.362 -56.052  1.00  0.00     0.098 A 
HETATM    8  C   UNL     1     -44.228  57.234 -55.438  1.00  0.00     0.201 A 
HETATM    9  O   UNL     1     -43.772  56.315 -56.115  1.00  0.00    -0.286 OA
HETATM   10  C   UNL     1     -44.482  58.253 -51.813  1.00  0.00     0.032 A 
HETATM   11  C   UNL     1     -43.816  57.199 -51.180  1.00  0.00     0.027 A 
HETATM   12  H   UNL     1     -45.644  60.097 -53.322  1.00  0.00     0.165 HD
ENDROOT
BRANCH   1  13
HETATM   13  S   UNL     1     -42.403  54.828 -51.158  1.00  0.00     0.263 S 
HETATM   14  O   UNL     1     -43.194  53.625 -51.309  1.00  0.00    -0.200 OA
HETATM   15  O   UNL     1     -42.003  55.299 -49.848  1.00  0.00    -0.200 OA
BRANCH  13  16
HETATM   16  N   UNL     1     -40.996  54.707 -52.068  1.00  0.00    -0.280 N 
HETATM   17  H   UNL     1     -40.789  55.535 -52.622  1.00  0.00     0.179 HD
BRANCH  16  18
HETATM   18  C   UNL     1     -40.525  53.441 -52.512  1.00  0.00     0.048 A 
HETATM   19  C   UNL     1     -40.616  53.056 -53.858  1.00  0.00    -0.035 A 
HETATM   20  C   UNL     1     -41.253  53.905 -54.923  1.00  0.00     0.050 C 
HETATM   21  C   UNL     1     -40.146  51.783 -54.227  1.00  0.00     0.009 A 
HETATM   22  C   UNL     1     -39.574  50.927 -53.285  1.00  0.00     0.001 A 
HETATM   23  C   UNL     1     -39.477  51.324 -51.956  1.00  0.00     0.002 A 
HETATM   24  C   UNL     1     -39.956  52.575 -51.571  1.00  0.00     0.030 A 
ENDBRANCH  16  18
ENDBRANCH  13  16
ENDBRANCH   1  13
BRANCH   7  25
HETATM   25  C   UNL     1     -45.292  58.484 -57.507  1.00  0.00     0.257 C 
HETATM   26  N   UNL     1     -45.724  57.333 -58.114  1.00  0.00    -0.357 N 
HETATM   27  H   UNL     1     -45.781  56.481 -57.553  1.00  0.00     0.162 HD
HETATM   28  O   UNL     1     -45.188  59.554 -58.100  1.00  0.00    -0.267 OA
BRANCH  26  29
HETATM   29  C   UNL     1     -46.185  57.295 -59.483  1.00  0.00     0.125 C 
BRANCH  29  30
HETATM   30  C   UNL     1     -45.546  56.172 -60.289  1.00  0.00     0.046 C 
BRANCH  30  31
HETATM   31  C   UNL     1     -44.031  56.337 -60.331  1.00  0.00     0.169 C 
BRANCH  31  32
HETATM   32  O   UNL     1     -43.722  57.719 -60.500  1.00  0.00    -0.387 OA
BRANCH  32  33
HETATM   33  C   UNL     1     -42.341  58.029 -60.288  1.00  0.00     0.113 C 
HETATM   34  C   UNL     1     -42.017  59.454 -60.730  1.00  0.00     0.039 C 
HETATM   35  C   UNL     1     -42.071  57.868 -58.796  1.00  0.00     0.039 C 
ENDBRANCH  32  33
ENDBRANCH  31  32
ENDBRANCH  30  31
ENDBRANCH  29  30
ENDBRANCH  26  29
ENDBRANCH   7  25
TORSDOF 9
ENDMDL
MODEL 4
REMARK VINA RESULT:      -8.1      2.391      7.888
REMARK  9 active torsions:
REMARK  status: ('A' for Active; 'I' for Inactive)
REMARK    1  A    between atoms: C_3  and  N_4 
REMARK    2  A    between atoms: N_4  and  S_5 
REMARK    3  A    between atoms: S_5  and  C_6 
REMARK    4  A    between atoms: C_12  and  C_13 
REMARK       I    between atoms: C_13  and  N_14 
REMARK    5  A    between atoms: N_14  and  C_15 
REMARK    6  A    between atoms: C_15  and  C_16 
REMARK    7  A    between atoms: C_16  and  C_17 
REMARK    8  A    between atoms: C_17  and  O_18 
REMARK    9  A    between atoms: O_18  and  C_19 
ROOT
HETATM    1  C   UNL     1     -43.206  58.348 -55.012  1.00  0.00     0.081 A 
HETATM    2  C   UNL     1     -42.359  57.475 -54.325  1.00  0.00     0.043 A 
HETATM    3  C   UNL     1     -42.802  56.901 -53.130  1.00  0.00     0.043 A 
HETATM    4  C   UNL     1     -44.092  57.163 -52.636  1.00  0.00     0.046 A 
HETATM    5  N   UNL     1     -44.500  56.589 -51.428  1.00  0.00    -0.364 N 
HETATM    6  C   UNL     1     -43.661  55.772 -50.714  1.00  0.00     0.109 A 
HETATM    7  C   UNL     1     -42.405  55.449 -51.066  1.00  0.00     0.098 A 
HETATM    8  C   UNL     1     -41.898  56.016 -52.348  1.00  0.00     0.201 A 
HETATM    9  O   UNL     1     -40.759  55.789 -52.752  1.00  0.00    -0.286 OA
HETATM   10  C   UNL     1     -44.931  58.028 -53.347  1.00  0.00     0.032 A 
HETATM   11  C   UNL     1     -44.492  58.620 -54.536  1.00  0.00     0.027 A 
HETATM   12  H   UNL     1     -45.449  56.725 -51.097  1.00  0.00     0.165 HD
ENDROOT
BRANCH   1  13
HETATM   13  S   UNL     1     -42.645  59.073 -56.536  1.00  0.00     0.263 S 
HETATM   14  O   UNL     1     -41.624  60.049 -56.217  1.00  0.00    -0.200 OA
HETATM   15  O   UNL     1     -43.825  59.444 -57.289  1.00  0.00    -0.200 OA
BRANCH  13  16
HETATM   16  N   UNL     1     -41.959  57.768 -57.344  1.00  0.00    -0.280 N 
HETATM   17  H   UNL     1     -40.946  57.820 -57.428  1.00  0.00     0.179 HD
BRANCH  16  18
HETATM   18  C   UNL     1     -42.701  57.049 -58.321  1.00  0.00     0.048 A 
HETATM   19  C   UNL     1     -43.195  55.761 -58.064  1.00  0.00    -0.035 A 
HETATM   20  C   UNL     1     -42.947  55.018 -56.782  1.00  0.00     0.050 C 
HETATM   21  C   UNL     1     -43.907  55.099 -59.080  1.00  0.00     0.009 A 
HETATM   22  C   UNL     1     -44.145  55.715 -60.310  1.00  0.00     0.001 A 
HETATM   23  C   UNL     1     -43.662  56.997 -60.548  1.00  0.00     0.002 A 
HETATM   24  C   UNL     1     -42.938  57.659 -59.558  1.00  0.00     0.030 A 
ENDBRANCH  16  18
ENDBRANCH  13  16
ENDBRANCH   1  13
BRANCH   7  25
HETATM   25  C   UNL     1     -41.604  54.594 -50.142  1.00  0.00     0.257 C 
HETATM   26  N   UNL     1     -41.243  53.369 -50.641  1.00  0.00    -0.357 N 
HETATM   27  H   UNL     1     -41.560  53.114 -51.578  1.00  0.00     0.162 HD
HETATM   28  O   UNL     1     -41.273  54.986 -49.026  1.00  0.00    -0.267 OA
BRANCH  26  29
HETATM   29  C   UNL     1     -40.363  52.465 -49.936  1.00  0.00     0.125 C 
BRANCH  29  30
HETATM   30  C   UNL     1     -40.341  51.069 -50.545  1.00  0.00     0.046 C 
BRANCH  30  31
HETATM   31  C   UNL     1     -39.389  51.019 -51.736  1.00  0.00     0.169 C 
BRANCH  31  32
HETATM   32  O   UNL     1     -39.600  52.175 -52.544  1.00  0.00    -0.387 OA
BRANCH  32  33
HETATM   33  C   UNL     1     -39.915  51.873 -53.907  1.00  0.00     0.113 C 
HETATM   34  C   UNL     1     -40.003  50.367 -54.138  1.00  0.00     0.039 C 
HETATM   35  C   UNL     1     -41.257  52.530 -54.211  1.00  0.00     0.039 C 
ENDBRANCH  32  33
ENDBRANCH  31  32
ENDBRANCH  30  31
ENDBRANCH  29  30
ENDBRANCH  26  29
ENDBRANCH   7  25
TORSDOF 9
ENDMDL
MODEL 5
REMARK VINA RESULT:      -8.0      1.849      2.087
REMARK  9 active torsions:
REMARK  status: ('A' for Active; 'I' for Inactive)
REMARK    1  A    between atoms: C_3  and  N_4 
REMARK    2  A    between atoms: N_4  and  S_5 
REMARK    3  A    between atoms: S_5  and  C_6 
REMARK    4  A    between atoms: C_12  and  C_13 
REMARK       I    between atoms: C_13  and  N_14 
REMARK    5  A    between atoms: N_14  and  C_15 
REMARK    6  A    between atoms: C_15  and  C_16 
REMARK    7  A    between atoms: C_16  and  C_17 
REMARK    8  A    between atoms: C_17  and  O_18 
REMARK    9  A    between atoms: O_18  and  C_19 
ROOT
HETATM    1  C   UNL     1     -43.240  56.312 -51.968  1.00  0.00     0.081 A 
HETATM    2  C   UNL     1     -42.757  56.789 -53.190  1.00  0.00     0.043 A 
HETATM    3  C   UNL     1     -43.378  57.894 -53.779  1.00  0.00     0.043 A 
HETATM    4  C   UNL     1     -44.450  58.545 -53.144  1.00  0.00     0.046 A 
HETATM    5  N   UNL     1     -45.063  59.637 -53.766  1.00  0.00    -0.364 N 
HETATM    6  C   UNL     1     -44.636  60.084 -54.991  1.00  0.00     0.109 A 
HETATM    7  C   UNL     1     -43.633  59.549 -55.708  1.00  0.00     0.098 A 
HETATM    8  C   UNL     1     -42.923  58.384 -55.107  1.00  0.00     0.201 A 
HETATM    9  O   UNL     1     -42.000  57.817 -55.689  1.00  0.00    -0.286 OA
HETATM   10  C   UNL     1     -44.908  58.062 -51.914  1.00  0.00     0.032 A 
HETATM   11  C   UNL     1     -44.304  56.948 -51.322  1.00  0.00     0.027 A 
HETATM   12  H   UNL     1     -45.795  60.149 -53.287  1.00  0.00     0.165 HD
ENDROOT
BRANCH   1  13
HETATM   13  S   UNL     1     -42.445  54.911 -51.216  1.00  0.00     0.263 S 
HETATM   14  O   UNL     1     -43.265  53.744 -51.464  1.00  0.00    -0.200 OA
HETATM   15  O   UNL     1     -42.088  55.299 -49.867  1.00  0.00    -0.200 OA
BRANCH  13  16
HETATM   16  N   UNL     1     -41.003  54.790 -52.071  1.00  0.00    -0.280 N 
HETATM   17  H   UNL     1     -40.756  55.633 -52.586  1.00  0.00     0.179 HD
BRANCH  16  18
HETATM   18  C   UNL     1     -40.540  53.530 -52.539  1.00  0.00     0.048 A 
HETATM   19  C   UNL     1     -40.679  53.154 -53.884  1.00  0.00    -0.035 A 
HETATM   20  C   UNL     1     -41.360  54.004 -54.919  1.00  0.00     0.050 C 
HETATM   21  C   UNL     1     -40.214  51.886 -54.278  1.00  0.00     0.009 A 
HETATM   22  C   UNL     1     -39.603  51.028 -53.364  1.00  0.00     0.001 A 
HETATM   23  C   UNL     1     -39.459  51.417 -52.036  1.00  0.00     0.002 A 
HETATM   24  C   UNL     1     -39.932  52.663 -51.626  1.00  0.00     0.030 A 
ENDBRANCH  16  18
ENDBRANCH  13  16
ENDBRANCH   1  13
BRANCH   7  25
HETATM   25  C   UNL     1     -43.335  60.121 -57.054  1.00  0.00     0.257 C 
HETATM   26  N   UNL     1     -43.533  59.270 -58.110  1.00  0.00    -0.357 N 
HETATM   27  H   UNL     1     -43.838  58.315 -57.913  1.00  0.00     0.162 HD
HETATM   28  O   UNL     1     -42.967  61.284 -57.192  1.00  0.00    -0.267 OA
BRANCH  26  29
HETATM   29  C   UNL     1     -43.417  59.691 -59.488  1.00  0.00     0.125 C 
BRANCH  29  30
HETATM   30  C   UNL     1     -42.964  58.568 -60.411  1.00  0.00     0.046 C 
BRANCH  30  31
HETATM   31  C   UNL     1     -42.262  57.472 -59.617  1.00  0.00     0.169 C 
BRANCH  31  32
HETATM   32  O   UNL     1     -42.783  56.206 -60.015  1.00  0.00    -0.387 OA
BRANCH  32  33
HETATM   33  C   UNL     1     -43.850  55.737 -59.184  1.00  0.00     0.113 C 
HETATM   34  C   UNL     1     -44.440  54.435 -59.718  1.00  0.00     0.039 C 
HETATM   35  C   UNL     1     -43.268  55.517 -57.792  1.00  0.00     0.039 C 
ENDBRANCH  32  33
ENDBRANCH  31  32
ENDBRANCH  30  31
ENDBRANCH  29  30
ENDBRANCH  26  29
ENDBRANCH   7  25
TORSDOF 9
ENDMDL
MODEL 6
REMARK VINA RESULT:      -7.7      2.052      2.593
REMARK  9 active torsions:
REMARK  status: ('A' for Active; 'I' for Inactive)
REMARK    1  A    between atoms: C_3  and  N_4 
REMARK    2  A    between atoms: N_4  and  S_5 
REMARK    3  A    between atoms: S_5  and  C_6 
REMARK    4  A    between atoms: C_12  and  C_13 
REMARK       I    between atoms: C_13  and  N_14 
REMARK    5  A    between atoms: N_14  and  C_15 
REMARK    6  A    between atoms: C_15  and  C_16 
REMARK    7  A    between atoms: C_16  and  C_17 
REMARK    8  A    between atoms: C_17  and  O_18 
REMARK    9  A    between atoms: O_18  and  C_19 
ROOT
HETATM    1  C   UNL     1     -41.568  55.604 -52.312  1.00  0.00     0.081 A 
HETATM    2  C   UNL     1     -42.045  55.398 -53.609  1.00  0.00     0.043 A 
HETATM    3  C   UNL     1     -42.163  56.493 -54.470  1.00  0.00     0.043 A 
HETATM    4  C   UNL     1     -41.777  57.781 -54.060  1.00  0.00     0.046 A 
HETATM    5  N   UNL     1     -41.923  58.860 -54.937  1.00  0.00    -0.364 N 
HETATM    6  C   UNL     1     -42.440  58.683 -56.195  1.00  0.00     0.109 A 
HETATM    7  C   UNL     1     -42.856  57.512 -56.708  1.00  0.00     0.098 A 
HETATM    8  C   UNL     1     -42.724  56.311 -55.836  1.00  0.00     0.201 A 
HETATM    9  O   UNL     1     -43.086  55.196 -56.208  1.00  0.00    -0.286 OA
HETATM   10  C   UNL     1     -41.287  57.964 -52.763  1.00  0.00     0.032 A 
HETATM   11  C   UNL     1     -41.179  56.878 -51.888  1.00  0.00     0.027 A 
HETATM   12  H   UNL     1     -41.591  59.780 -54.670  1.00  0.00     0.165 HD
ENDROOT
BRANCH   1  13
HETATM   13  S   UNL     1     -41.412  54.210 -51.220  1.00  0.00     0.263 S 
HETATM   14  O   UNL     1     -42.491  53.291 -51.512  1.00  0.00    -0.200 OA
HETATM   15  O   UNL     1     -41.219  54.737 -49.885  1.00  0.00    -0.200 OA
BRANCH  13  16
HETATM   16  N   UNL     1     -39.943  53.534 -51.678  1.00  0.00    -0.280 N 
HETATM   17  H   UNL     1     -39.302  54.195 -52.113  1.00  0.00     0.179 HD
BRANCH  16  18
HETATM   18  C   UNL     1     -39.852  52.156 -52.013  1.00  0.00     0.048 A 
HETATM   19  C   UNL     1     -39.880  51.723 -53.349  1.00  0.00    -0.035 A 
HETATM   20  C   UNL     1     -40.058  52.651 -54.518  1.00  0.00     0.050 C 
HETATM   21  C   UNL     1     -39.802  50.344 -53.610  1.00  0.00     0.009 A 
HETATM   22  C   UNL     1     -39.671  49.421 -52.572  1.00  0.00     0.001 A 
HETATM   23  C   UNL     1     -39.631  49.862 -51.253  1.00  0.00     0.002 A 
HETATM   24  C   UNL     1     -39.726  51.225 -50.976  1.00  0.00     0.030 A 
ENDBRANCH  16  18
ENDBRANCH  13  16
ENDBRANCH   1  13
BRANCH   7  25
HETATM   25  C   UNL     1     -43.450  57.505 -58.076  1.00  0.00     0.257 C 
HETATM   26  N   UNL     1     -44.698  56.945 -58.170  1.00  0.00    -0.357 N 
HETATM   27  H   UNL     1     -45.120  56.555 -57.326  1.00  0.00     0.162 HD
HETATM   28  O   UNL     1     -42.863  57.996 -59.037  1.00  0.00    -0.267 OA
BRANCH  26  29
HETATM   29  C   UNL     1     -45.476  56.966 -59.389  1.00  0.00     0.125 C 
BRANCH  29  30
HETATM   30  C   UNL     1     -46.618  57.973 -59.342  1.00  0.00     0.046 C 
BRANCH  30  31
HETATM   31  C   UNL     1     -46.735  58.711 -60.671  1.00  0.00     0.169 C 
BRANCH  31  32
HETATM   32  O   UNL     1     -48.114  58.826 -61.015  1.00  0.00    -0.387 OA
BRANCH  32  33
HETATM   33  C   UNL     1     -48.431  58.296 -62.306  1.00  0.00     0.113 C 
HETATM   34  C   UNL     1     -48.579  56.777 -62.263  1.00  0.00     0.039 C 
HETATM   35  C   UNL     1     -49.742  58.938 -62.744  1.00  0.00     0.039 C 
ENDBRANCH  32  33
ENDBRANCH  31  32
ENDBRANCH  30  31
ENDBRANCH  29  30
ENDBRANCH  26  29
ENDBRANCH   7  25
TORSDOF 9
ENDMDL
MODEL 7
REMARK VINA RESULT:      -7.5      2.605      4.024
REMARK  9 active torsions:
REMARK  status: ('A' for Active; 'I' for Inactive)
REMARK    1  A    between atoms: C_3  and  N_4 
REMARK    2  A    between atoms: N_4  and  S_5 
REMARK    3  A    between atoms: S_5  and  C_6 
REMARK    4  A    between atoms: C_12  and  C_13 
REMARK       I    between atoms: C_13  and  N_14 
REMARK    5  A    between atoms: N_14  and  C_15 
REMARK    6  A    between atoms: C_15  and  C_16 
REMARK    7  A    between atoms: C_16  and  C_17 
REMARK    8  A    between atoms: C_17  and  O_18 
REMARK    9  A    between atoms: O_18  and  C_19 
ROOT
HETATM    1  C   UNL     1     -43.573  56.421 -52.439  1.00  0.00     0.081 A 
HETATM    2  C   UNL     1     -43.431  56.406 -53.829  1.00  0.00     0.043 A 
HETATM    3  C   UNL     1     -44.086  57.381 -54.587  1.00  0.00     0.043 A 
HETATM    4  C   UNL     1     -44.850  58.386 -53.970  1.00  0.00     0.046 A 
HETATM    5  N   UNL     1     -45.508  59.337 -54.756  1.00  0.00    -0.364 N 
HETATM    6  C   UNL     1     -45.423  59.305 -56.125  1.00  0.00     0.109 A 
HETATM    7  C   UNL     1     -44.738  58.396 -56.840  1.00  0.00     0.098 A 
HETATM    8  C   UNL     1     -44.000  57.352 -56.072  1.00  0.00     0.201 A 
HETATM    9  O   UNL     1     -43.354  56.470 -56.634  1.00  0.00    -0.286 OA
HETATM   10  C   UNL     1     -44.967  58.393 -52.576  1.00  0.00     0.032 A 
HETATM   11  C   UNL     1     -44.328  57.414 -51.808  1.00  0.00     0.027 A 
HETATM   12  H   UNL     1     -46.010  60.100 -54.316  1.00  0.00     0.165 HD
ENDROOT
BRANCH   1  13
HETATM   13  S   UNL     1     -42.734  55.186 -51.474  1.00  0.00     0.263 S 
HETATM   14  O   UNL     1     -43.473  53.947 -51.595  1.00  0.00    -0.200 OA
HETATM   15  O   UNL     1     -42.464  55.772 -50.178  1.00  0.00    -0.200 OA
BRANCH  13  16
HETATM   16  N   UNL     1     -41.249  55.046 -52.249  1.00  0.00    -0.280 N 
HETATM   17  H   UNL     1     -41.004  55.851 -52.822  1.00  0.00     0.179 HD
BRANCH  16  18
HETATM   18  C   UNL     1     -40.725  53.768 -52.587  1.00  0.00     0.048 A 
HETATM   19  C   UNL     1     -40.039  52.986 -51.644  1.00  0.00    -0.035 A 
HETATM   20  C   UNL     1     -39.756  53.437 -50.239  1.00  0.00     0.050 C 
HETATM   21  C   UNL     1     -39.532  51.738 -52.049  1.00  0.00     0.009 A 
HETATM   22  C   UNL     1     -39.726  51.269 -53.348  1.00  0.00     0.001 A 
HETATM   23  C   UNL     1     -40.419  52.048 -54.269  1.00  0.00     0.002 A 
HETATM   24  C   UNL     1     -40.911  53.295 -53.890  1.00  0.00     0.030 A 
ENDBRANCH  16  18
ENDBRANCH  13  16
ENDBRANCH   1  13
BRANCH   7  25
HETATM   25  C   UNL     1     -44.798  58.468 -58.329  1.00  0.00     0.257 C 
HETATM   26  N   UNL     1     -43.585  58.551 -58.962  1.00  0.00    -0.357 N 
HETATM   27  H   UNL     1     -42.740  58.585 -58.390  1.00  0.00     0.162 HD
HETATM   28  O   UNL     1     -45.867  58.425 -58.933  1.00  0.00    -0.267 OA
BRANCH  26  29
HETATM   29  C   UNL     1     -43.448  58.502 -60.400  1.00  0.00     0.125 C 
BRANCH  29  30
HETATM   30  C   UNL     1     -43.338  59.885 -61.029  1.00  0.00     0.046 C 
BRANCH  30  31
HETATM   31  C   UNL     1     -41.907  60.404 -60.933  1.00  0.00     0.169 C 
BRANCH  31  32
HETATM   32  O   UNL     1     -41.636  60.762 -59.580  1.00  0.00    -0.387 OA
BRANCH  32  33
HETATM   33  C   UNL     1     -40.821  61.932 -59.447  1.00  0.00     0.113 C 
HETATM   34  C   UNL     1     -40.747  62.710 -60.758  1.00  0.00     0.039 C 
HETATM   35  C   UNL     1     -41.452  62.795 -58.360  1.00  0.00     0.039 C 
ENDBRANCH  32  33
ENDBRANCH  31  32
ENDBRANCH  30  31
ENDBRANCH  29  30
ENDBRANCH  26  29
ENDBRANCH   7  25
TORSDOF 9
ENDMDL
MODEL 8
REMARK VINA RESULT:      -7.3      2.317      8.525
REMARK  9 active torsions:
REMARK  status: ('A' for Active; 'I' for Inactive)
REMARK    1  A    between atoms: C_3  and  N_4 
REMARK    2  A    between atoms: N_4  and  S_5 
REMARK    3  A    between atoms: S_5  and  C_6 
REMARK    4  A    between atoms: C_12  and  C_13 
REMARK       I    between atoms: C_13  and  N_14 
REMARK    5  A    between atoms: N_14  and  C_15 
REMARK    6  A    between atoms: C_15  and  C_16 
REMARK    7  A    between atoms: C_16  and  C_17 
REMARK    8  A    between atoms: C_17  and  O_18 
REMARK    9  A    between atoms: O_18  and  C_19 
ROOT
HETATM    1  C   UNL     1     -42.568  58.504 -55.082  1.00  0.00     0.081 A 
HETATM    2  C   UNL     1     -42.552  57.358 -54.284  1.00  0.00     0.043 A 
HETATM    3  C   UNL     1     -42.050  57.446 -52.982  1.00  0.00     0.043 A 
HETATM    4  C   UNL     1     -41.598  58.670 -52.462  1.00  0.00     0.046 A 
HETATM    5  N   UNL     1     -41.085  58.723 -51.162  1.00  0.00    -0.364 N 
HETATM    6  C   UNL     1     -41.012  57.596 -50.384  1.00  0.00     0.109 A 
HETATM    7  C   UNL     1     -41.399  56.365 -50.760  1.00  0.00     0.098 A 
HETATM    8  C   UNL     1     -41.967  56.228 -52.132  1.00  0.00     0.201 A 
HETATM    9  O   UNL     1     -42.338  55.142 -52.574  1.00  0.00    -0.286 OA
HETATM   10  C   UNL     1     -41.637  59.810 -53.271  1.00  0.00     0.032 A 
HETATM   11  C   UNL     1     -42.123  59.731 -54.580  1.00  0.00     0.027 A 
HETATM   12  H   UNL     1     -40.814  59.613 -50.759  1.00  0.00     0.165 HD
ENDROOT
BRANCH   1  13
HETATM   13  S   UNL     1     -43.213  58.394 -56.735  1.00  0.00     0.263 S 
HETATM   14  O   UNL     1     -44.086  59.529 -56.951  1.00  0.00    -0.200 OA
HETATM   15  O   UNL     1     -43.692  57.039 -56.914  1.00  0.00    -0.200 OA
BRANCH  13  16
HETATM   16  N   UNL     1     -41.837  58.540 -57.688  1.00  0.00    -0.280 N 
HETATM   17  H   UNL     1     -40.975  58.281 -57.212  1.00  0.00     0.179 HD
BRANCH  16  18
HETATM   18  C   UNL     1     -41.787  59.483 -58.751  1.00  0.00     0.048 A 
HETATM   19  C   UNL     1     -42.154  59.132 -60.059  1.00  0.00    -0.035 A 
HETATM   20  C   UNL     1     -42.573  57.746 -60.461  1.00  0.00     0.050 C 
HETATM   21  C   UNL     1     -42.065  60.110 -61.067  1.00  0.00     0.009 A 
HETATM   22  C   UNL     1     -41.650  61.409 -60.774  1.00  0.00     0.001 A 
HETATM   23  C   UNL     1     -41.301  61.748 -59.471  1.00  0.00     0.002 A 
HETATM   24  C   UNL     1     -41.365  60.786 -58.465  1.00  0.00     0.030 A 
ENDBRANCH  16  18
ENDBRANCH  13  16
ENDBRANCH   1  13
BRANCH   7  25
HETATM   25  C   UNL     1     -41.196  55.233 -49.811  1.00  0.00     0.257 C 
HETATM   26  N   UNL     1     -40.950  54.016 -50.392  1.00  0.00    -0.357 N 
HETATM   27  H   UNL     1     -40.949  53.956 -51.412  1.00  0.00     0.162 HD
HETATM   28  O   UNL     1     -41.219  55.400 -48.594  1.00  0.00    -0.267 OA
BRANCH  26  29
HETATM   29  C   UNL     1     -40.606  52.838 -49.628  1.00  0.00     0.125 C 
BRANCH  29  30
HETATM   30  C   UNL     1     -40.240  51.650 -50.510  1.00  0.00     0.046 C 
BRANCH  30  31
HETATM   31  C   UNL     1     -39.448  52.112 -51.728  1.00  0.00     0.169 C 
BRANCH  31  32
HETATM   32  O   UNL     1     -39.181  50.985 -52.559  1.00  0.00    -0.387 OA
BRANCH  32  33
HETATM   33  C   UNL     1     -39.604  51.157 -53.916  1.00  0.00     0.113 C 
HETATM   34  C   UNL     1     -40.562  50.049 -54.346  1.00  0.00     0.039 C 
HETATM   35  C   UNL     1     -40.299  52.512 -53.999  1.00  0.00     0.039 C 
ENDBRANCH  32  33
ENDBRANCH  31  32
ENDBRANCH  30  31
ENDBRANCH  29  30
ENDBRANCH  26  29
ENDBRANCH   7  25
TORSDOF 9
ENDMDL
MODEL 9
REMARK VINA RESULT:      -7.3      5.518      6.381
REMARK  9 active torsions:
REMARK  status: ('A' for Active; 'I' for Inactive)
REMARK    1  A    between atoms: C_3  and  N_4 
REMARK    2  A    between atoms: N_4  and  S_5 
REMARK    3  A    between atoms: S_5  and  C_6 
REMARK    4  A    between atoms: C_12  and  C_13 
REMARK       I    between atoms: C_13  and  N_14 
REMARK    5  A    between atoms: N_14  and  C_15 
REMARK    6  A    between atoms: C_15  and  C_16 
REMARK    7  A    between atoms: C_16  and  C_17 
REMARK    8  A    between atoms: C_17  and  O_18 
REMARK    9  A    between atoms: O_18  and  C_19 
ROOT
HETATM    1  C   UNL     1     -43.557  56.619 -53.208  1.00  0.00     0.081 A 
HETATM    2  C   UNL     1     -44.117  57.809 -53.680  1.00  0.00     0.043 A 
HETATM    3  C   UNL     1     -44.790  58.643 -52.783  1.00  0.00     0.043 A 
HETATM    4  C   UNL     1     -44.877  58.318 -51.418  1.00  0.00     0.046 A 
HETATM    5  N   UNL     1     -45.573  59.163 -50.548  1.00  0.00    -0.364 N 
HETATM    6  C   UNL     1     -46.175  60.308 -51.005  1.00  0.00     0.109 A 
HETATM    7  C   UNL     1     -46.176  60.730 -52.281  1.00  0.00     0.098 A 
HETATM    8  C   UNL     1     -45.447  59.886 -53.270  1.00  0.00     0.201 A 
HETATM    9  O   UNL     1     -45.400  60.180 -54.463  1.00  0.00    -0.286 OA
HETATM   10  C   UNL     1     -44.296  57.130 -50.963  1.00  0.00     0.032 A 
HETATM   11  C   UNL     1     -43.633  56.280 -51.854  1.00  0.00     0.027 A 
HETATM   12  H   UNL     1     -45.588  58.967 -49.554  1.00  0.00     0.165 HD
ENDROOT
BRANCH   1  13
HETATM   13  S   UNL     1     -42.695  55.561 -54.348  1.00  0.00     0.263 S 
HETATM   14  O   UNL     1     -42.542  56.280 -55.596  1.00  0.00    -0.200 OA
HETATM   15  O   UNL     1     -43.348  54.269 -54.305  1.00  0.00    -0.200 OA
BRANCH  13  16
HETATM   16  N   UNL     1     -41.196  55.359 -53.616  1.00  0.00    -0.280 N 
HETATM   17  H   UNL     1     -40.548  56.126 -53.779  1.00  0.00     0.179 HD
BRANCH  16  18
HETATM   18  C   UNL     1     -40.681  54.057 -53.367  1.00  0.00     0.048 A 
HETATM   19  C   UNL     1     -40.492  53.582 -52.060  1.00  0.00    -0.035 A 
HETATM   20  C   UNL     1     -40.760  54.404 -50.831  1.00  0.00     0.050 C 
HETATM   21  C   UNL     1     -39.963  52.290 -51.884  1.00  0.00     0.009 A 
HETATM   22  C   UNL     1     -39.657  51.483 -52.980  1.00  0.00     0.001 A 
HETATM   23  C   UNL     1     -39.861  51.960 -54.271  1.00  0.00     0.002 A 
HETATM   24  C   UNL     1     -40.366  53.245 -54.462  1.00  0.00     0.030 A 
ENDBRANCH  16  18
ENDBRANCH  13  16
ENDBRANCH   1  13
BRANCH   7  25
HETATM   25  C   UNL     1     -46.932  61.971 -52.620  1.00  0.00     0.257 C 
HETATM   26  N   UNL     1     -48.063  61.781 -53.371  1.00  0.00    -0.357 N 
HETATM   27  H   UNL     1     -48.297  60.832 -53.667  1.00  0.00     0.162 HD
HETATM   28  O   UNL     1     -46.570  63.075 -52.222  1.00  0.00    -0.267 OA
BRANCH  26  29
HETATM   29  C   UNL     1     -48.983  62.851 -53.685  1.00  0.00     0.125 C 
BRANCH  29  30
HETATM   30  C   UNL     1     -50.104  62.983 -52.661  1.00  0.00     0.046 C 
BRANCH  30  31
HETATM   31  C   UNL     1     -51.220  61.987 -52.958  1.00  0.00     0.169 C 
BRANCH  31  32
HETATM   32  O   UNL     1     -51.099  61.547 -54.309  1.00  0.00    -0.387 OA
BRANCH  32  33
HETATM   33  C   UNL     1     -52.266  61.793 -55.100  1.00  0.00     0.113 C 
HETATM   34  C   UNL     1     -52.873  60.490 -55.615  1.00  0.00     0.039 C 
HETATM   35  C   UNL     1     -53.266  62.520 -54.208  1.00  0.00     0.039 C 
ENDBRANCH  32  33
ENDBRANCH  31  32
ENDBRANCH  30  31
ENDBRANCH  29  30
ENDBRANCH  26  29
ENDBRANCH   7  25
TORSDOF 9
ENDMDL
MODEL 10
REMARK VINA RESULT:      -7.2      3.348      4.739
REMARK  9 active torsions:
REMARK  status: ('A' for Active; 'I' for Inactive)
REMARK    1  A    between atoms: C_3  and  N_4 
REMARK    2  A    between atoms: N_4  and  S_5 
REMARK    3  A    between atoms: S_5  and  C_6 
REMARK    4  A    between atoms: C_12  and  C_13 
REMARK       I    between atoms: C_13  and  N_14 
REMARK    5  A    between atoms: N_14  and  C_15 
REMARK    6  A    between atoms: C_15  and  C_16 
REMARK    7  A    between atoms: C_16  and  C_17 
REMARK    8  A    between atoms: C_17  and  O_18 
REMARK    9  A    between atoms: O_18  and  C_19 
ROOT
HETATM    1  C   UNL     1     -43.650  59.517 -52.941  1.00  0.00     0.081 A 
HETATM    2  C   UNL     1     -44.443  58.889 -53.905  1.00  0.00     0.043 A 
HETATM    3  C   UNL     1     -44.267  59.225 -55.250  1.00  0.00     0.043 A 
HETATM    4  C   UNL     1     -43.286  60.153 -55.642  1.00  0.00     0.046 A 
HETATM    5  N   UNL     1     -43.146  60.483 -56.993  1.00  0.00    -0.364 N 
HETATM    6  C   UNL     1     -43.952  59.916 -57.947  1.00  0.00     0.109 A 
HETATM    7  C   UNL     1     -44.931  59.026 -57.709  1.00  0.00     0.098 A 
HETATM    8  C   UNL     1     -45.138  58.616 -56.291  1.00  0.00     0.201 A 
HETATM    9  O   UNL     1     -46.015  57.818 -55.968  1.00  0.00    -0.286 OA
HETATM   10  C   UNL     1     -42.492  60.759 -54.663  1.00  0.00     0.032 A 
HETATM   11  C   UNL     1     -42.669  60.441 -53.312  1.00  0.00     0.027 A 
HETATM   12  H   UNL     1     -42.402  61.104 -57.289  1.00  0.00     0.165 HD
ENDROOT
BRANCH   1  13
HETATM   13  S   UNL     1     -43.869  59.084 -51.230  1.00  0.00     0.263 S 
HETATM   14  O   UNL     1     -45.127  58.377 -51.105  1.00  0.00    -0.200 OA
HETATM   15  O   UNL     1     -43.602  60.276 -50.453  1.00  0.00    -0.200 OA
BRANCH  13  16
HETATM   16  N   UNL     1     -42.590  58.033 -50.940  1.00  0.00    -0.280 N 
HETATM   17  H   UNL     1     -41.692  58.497 -50.824  1.00  0.00     0.179 HD
BRANCH  16  18
HETATM   18  C   UNL     1     -42.623  56.698 -51.427  1.00  0.00     0.048 A 
HETATM   19  C   UNL     1     -41.854  56.302 -52.532  1.00  0.00    -0.035 A 
HETATM   20  C   UNL     1     -40.984  57.242 -53.318  1.00  0.00     0.050 C 
HETATM   21  C   UNL     1     -41.946  54.969 -52.972  1.00  0.00     0.009 A 
HETATM   22  C   UNL     1     -42.760  54.048 -52.312  1.00  0.00     0.001 A 
HETATM   23  C   UNL     1     -43.508  54.449 -51.210  1.00  0.00     0.002 A 
HETATM   24  C   UNL     1     -43.443  55.771 -50.773  1.00  0.00     0.030 A 
ENDBRANCH  16  18
ENDBRANCH  13  16
ENDBRANCH   1  13
BRANCH   7  25
HETATM   25  C   UNL     1     -45.758  58.552 -58.857  1.00  0.00     0.257 C 
HETATM   26  N   UNL     1     -45.953  57.197 -58.919  1.00  0.00    -0.357 N 
HETATM   27  H   UNL     1     -45.510  56.609 -58.210  1.00  0.00     0.162 HD
HETATM   28  O   UNL     1     -46.248  59.336 -59.665  1.00  0.00    -0.267 OA
BRANCH  26  29
HETATM   29  C   UNL     1     -46.829  56.575 -59.887  1.00  0.00     0.125 C 
BRANCH  29  30
HETATM   30  C   UNL     1     -46.115  55.544 -60.751  1.00  0.00     0.046 C 
BRANCH  30  31
HETATM   31  C   UNL     1     -44.765  55.179 -60.143  1.00  0.00     0.169 C 
BRANCH  31  32
HETATM   32  O   UNL     1     -43.768  56.046 -60.678  1.00  0.00    -0.387 OA
BRANCH  32  33
HETATM   33  C   UNL     1     -42.590  56.136 -59.869  1.00  0.00     0.113 C 
HETATM   34  C   UNL     1     -41.965  57.527 -59.949  1.00  0.00     0.039 C 
HETATM   35  C   UNL     1     -43.007  55.830 -58.435  1.00  0.00     0.039 C 
ENDBRANCH  32  33
ENDBRANCH  31  32
ENDBRANCH  30  31
ENDBRANCH  29  30
ENDBRANCH  26  29
ENDBRANCH   7  25
TORSDOF 9
ENDMDL
