MODEL 1
REMARK VINA RESULT:      -8.1      0.000      0.000
REMARK  5 active torsions:
REMARK  status: ('A' for Active; 'I' for Inactive)
REMARK    1  A    between atoms: C_2  and  C_3 
REMARK    2  A    between atoms: C_3  and  O_4 
REMARK    3  A    between atoms: O_4  and  C_5 
REMARK    4  A    between atoms: C_8  and  C_9 
REMARK    5  A    between atoms: C_15  and  C_16 
ROOT
HETATM    1  C   UNL     1     -42.223  57.056 -52.553  1.00  0.00     0.066 C 
HETATM    2  C   UNL     1     -42.947  56.013 -51.780  1.00  0.00     0.028 A 
HETATM    3  C   UNL     1     -44.007  56.301 -50.959  1.00  0.00     0.133 A 
HETATM    4  N   UNL     1     -44.458  55.122 -50.459  1.00  0.00    -0.261 N 
HETATM    5  H   UNL     1     -45.235  54.946 -49.831  1.00  0.00     0.191 HD
HETATM    6  N   UNL     1     -43.738  54.073 -50.879  1.00  0.00    -0.172 NA
HETATM    7  C   UNL     1     -42.796  54.596 -51.687  1.00  0.00     0.098 A 
HETATM    8  N   UNL     1     -44.479  57.576 -50.779  1.00  0.00    -0.312 N 
HETATM    9  C   UNL     1     -43.777  58.681 -51.356  1.00  0.00     0.224 C 
HETATM   10  O   UNL     1     -44.302  59.774 -51.219  1.00  0.00    -0.273 OA
HETATM   11  C   UNL     1     -42.408  58.451 -51.946  1.00  0.00     0.117 C 
HETATM   12  H   UNL     1     -45.329  57.778 -50.266  1.00  0.00     0.170 HD
ENDROOT
BRANCH   1  13
HETATM   13  C   UNL     1     -42.709  56.975 -53.992  1.00  0.00    -0.049 A 
HETATM   14  C   UNL     1     -43.992  57.379 -54.397  1.00  0.00     0.010 A 
HETATM   15  C   UNL     1     -44.347  57.379 -55.748  1.00  0.00     0.037 A 
HETATM   16  C   UNL     1     -43.427  57.000 -56.721  1.00  0.00     0.069 A 
HETATM   17  C   UNL     1     -42.169  56.543 -56.337  1.00  0.00     0.037 A 
HETATM   18  C   UNL     1     -41.812  56.536 -54.984  1.00  0.00     0.010 A 
BRANCH  16  19
HETATM   19  O   UNL     1     -43.859  57.088 -58.014  1.00  0.00    -0.348 OA
BRANCH  19  20
HETATM   20  C   UNL     1     -42.920  56.635 -58.992  1.00  0.00     0.202 C 
BRANCH  20  21
HETATM   21  C   UNL     1     -43.654  55.715 -59.921  1.00  0.00    -0.011 C 
HETATM   22  C   UNL     1     -44.331  54.626 -59.536  1.00  0.00     0.009 C 
ENDBRANCH  20  21
ENDBRANCH  19  20
ENDBRANCH  16  19
ENDBRANCH   1  13
BRANCH   7  23
HETATM   23  C   UNL     1     -41.823  53.728 -52.347  1.00  0.00    -0.005 A 
HETATM   24  C   UNL     1     -40.756  53.194 -51.612  1.00  0.00     0.014 A 
HETATM   25  C   UNL     1     -39.816  52.364 -52.225  1.00  0.00     0.001 A 
HETATM   26  C   UNL     1     -39.932  52.062 -53.581  1.00  0.00     0.000 A 
HETATM   27  C   UNL     1     -40.981  52.598 -54.326  1.00  0.00     0.001 A 
HETATM   28  C   UNL     1     -41.920  53.433 -53.713  1.00  0.00     0.014 A 
ENDBRANCH   7  23
TORSDOF 5
ENDMDL
MODEL 2
REMARK VINA RESULT:      -7.7      2.804      6.106
REMARK  5 active torsions:
REMARK  status: ('A' for Active; 'I' for Inactive)
REMARK    1  A    between atoms: C_2  and  C_3 
REMARK    2  A    between atoms: C_3  and  O_4 
REMARK    3  A    between atoms: O_4  and  C_5 
REMARK    4  A    between atoms: C_8  and  C_9 
REMARK    5  A    between atoms: C_15  and  C_16 
ROOT
HETATM    1  C   UNL     1     -43.638  56.883 -54.634  1.00  0.00     0.066 C 
HETATM    2  C   UNL     1     -43.161  57.942 -55.562  1.00  0.00     0.028 A 
HETATM    3  C   UNL     1     -42.540  59.085 -55.126  1.00  0.00     0.133 A 
HETATM    4  N   UNL     1     -42.192  59.799 -56.228  1.00  0.00    -0.261 N 
HETATM    5  H   UNL     1     -41.706  60.686 -56.291  1.00  0.00     0.191 HD
HETATM    6  N   UNL     1     -42.575  59.206 -57.368  1.00  0.00    -0.172 NA
HETATM    7  C   UNL     1     -43.181  58.067 -56.985  1.00  0.00     0.098 A 
HETATM    8  N   UNL     1     -42.316  59.345 -53.798  1.00  0.00    -0.312 N 
HETATM    9  C   UNL     1     -42.856  58.471 -52.803  1.00  0.00     0.224 C 
HETATM   10  O   UNL     1     -42.547  58.723 -51.649  1.00  0.00    -0.273 OA
HETATM   11  C   UNL     1     -43.855  57.419 -53.216  1.00  0.00     0.117 C 
HETATM   12  H   UNL     1     -41.759  60.130 -53.480  1.00  0.00     0.170 HD
ENDROOT
BRANCH   1  13
HETATM   13  C   UNL     1     -42.626  55.748 -54.683  1.00  0.00    -0.049 A 
HETATM   14  C   UNL     1     -41.246  55.951 -54.853  1.00  0.00     0.010 A 
HETATM   15  C   UNL     1     -40.354  54.879 -54.785  1.00  0.00     0.037 A 
HETATM   16  C   UNL     1     -40.814  53.591 -54.525  1.00  0.00     0.069 A 
HETATM   17  C   UNL     1     -42.181  53.360 -54.410  1.00  0.00     0.037 A 
HETATM   18  C   UNL     1     -43.079  54.430 -54.482  1.00  0.00     0.010 A 
BRANCH  16  19
HETATM   19  O   UNL     1     -39.852  52.626 -54.426  1.00  0.00    -0.348 OA
BRANCH  19  20
HETATM   20  C   UNL     1     -39.823  51.936 -53.174  1.00  0.00     0.202 C 
BRANCH  20  21
HETATM   21  C   UNL     1     -39.706  50.472 -53.474  1.00  0.00    -0.011 C 
HETATM   22  C   UNL     1     -40.108  49.895 -54.615  1.00  0.00     0.009 C 
ENDBRANCH  20  21
ENDBRANCH  19  20
ENDBRANCH  16  19
ENDBRANCH   1  13
BRANCH   7  23
HETATM   23  C   UNL     1     -43.721  57.145 -57.982  1.00  0.00    -0.005 A 
HETATM   24  C   UNL     1     -44.886  57.484 -58.683  1.00  0.00     0.014 A 
HETATM   25  C   UNL     1     -45.418  56.616 -59.638  1.00  0.00     0.001 A 
HETATM   26  C   UNL     1     -44.792  55.399 -59.900  1.00  0.00     0.000 A 
HETATM   27  C   UNL     1     -43.640  55.045 -59.199  1.00  0.00     0.001 A 
HETATM   28  C   UNL     1     -43.109  55.912 -58.240  1.00  0.00     0.014 A 
ENDBRANCH   7  23
TORSDOF 5
ENDMDL
MODEL 3
REMARK VINA RESULT:      -7.6      2.686      5.763
REMARK  5 active torsions:
REMARK  status: ('A' for Active; 'I' for Inactive)
REMARK    1  A    between atoms: C_2  and  C_3 
REMARK    2  A    between atoms: C_3  and  O_4 
REMARK    3  A    between atoms: O_4  and  C_5 
REMARK    4  A    between atoms: C_8  and  C_9 
REMARK    5  A    between atoms: C_15  and  C_16 
ROOT
HETATM    1  C   UNL     1     -42.722  55.891 -52.111  1.00  0.00     0.066 C 
HETATM    2  C   UNL     1     -41.932  57.080 -52.526  1.00  0.00     0.028 A 
HETATM    3  C   UNL     1     -40.998  57.669 -51.713  1.00  0.00     0.133 A 
HETATM    4  N   UNL     1     -40.434  58.683 -52.419  1.00  0.00    -0.261 N 
HETATM    5  H   UNL     1     -39.698  59.325 -52.144  1.00  0.00     0.191 HD
HETATM    6  N   UNL     1     -40.963  58.816 -53.643  1.00  0.00    -0.172 NA
HETATM    7  C   UNL     1     -41.892  57.846 -53.730  1.00  0.00     0.098 A 
HETATM    8  N   UNL     1     -40.724  57.214 -50.448  1.00  0.00    -0.312 N 
HETATM    9  C   UNL     1     -41.519  56.167 -49.883  1.00  0.00     0.224 C 
HETATM   10  O   UNL     1     -41.165  55.763 -48.788  1.00  0.00    -0.273 OA
HETATM   11  C   UNL     1     -42.786  55.748 -50.587  1.00  0.00     0.117 C 
HETATM   12  H   UNL     1     -39.959  57.574 -49.890  1.00  0.00     0.170 HD
ENDROOT
BRANCH   1  13
HETATM   13  C   UNL     1     -42.104  54.676 -52.788  1.00  0.00    -0.049 A 
HETATM   14  C   UNL     1     -42.539  54.179 -54.028  1.00  0.00     0.010 A 
HETATM   15  C   UNL     1     -41.867  53.124 -54.649  1.00  0.00     0.037 A 
HETATM   16  C   UNL     1     -40.738  52.561 -54.061  1.00  0.00     0.069 A 
HETATM   17  C   UNL     1     -40.325  53.000 -52.807  1.00  0.00     0.037 A 
HETATM   18  C   UNL     1     -40.999  54.053 -52.179  1.00  0.00     0.010 A 
BRANCH  16  19
HETATM   19  O   UNL     1     -40.125  51.573 -54.779  1.00  0.00    -0.348 OA
BRANCH  19  20
HETATM   20  C   UNL     1     -40.528  50.245 -54.434  1.00  0.00     0.202 C 
BRANCH  20  21
HETATM   21  C   UNL     1     -39.462  49.673 -53.547  1.00  0.00    -0.011 C 
HETATM   22  C   UNL     1     -39.630  49.376 -52.252  1.00  0.00     0.009 C 
ENDBRANCH  20  21
ENDBRANCH  19  20
ENDBRANCH  16  19
ENDBRANCH   1  13
BRANCH   7  23
HETATM   23  C   UNL     1     -42.674  57.679 -54.954  1.00  0.00    -0.005 A 
HETATM   24  C   UNL     1     -43.991  58.153 -55.008  1.00  0.00     0.014 A 
HETATM   25  C   UNL     1     -44.754  58.002 -56.167  1.00  0.00     0.001 A 
HETATM   26  C   UNL     1     -44.208  57.372 -57.283  1.00  0.00     0.000 A 
HETATM   27  C   UNL     1     -42.903  56.883 -57.238  1.00  0.00     0.001 A 
HETATM   28  C   UNL     1     -42.140  57.031 -56.075  1.00  0.00     0.014 A 
ENDBRANCH   7  23
TORSDOF 5
ENDMDL
MODEL 4
REMARK VINA RESULT:      -7.2      2.883      5.849
REMARK  5 active torsions:
REMARK  status: ('A' for Active; 'I' for Inactive)
REMARK    1  A    between atoms: C_2  and  C_3 
REMARK    2  A    between atoms: C_3  and  O_4 
REMARK    3  A    between atoms: O_4  and  C_5 
REMARK    4  A    between atoms: C_8  and  C_9 
REMARK    5  A    between atoms: C_15  and  C_16 
ROOT
HETATM    1  C   UNL     1     -42.901  55.512 -53.759  1.00  0.00     0.066 C 
HETATM    2  C   UNL     1     -41.695  54.790 -54.242  1.00  0.00     0.028 A 
HETATM    3  C   UNL     1     -41.291  54.816 -55.552  1.00  0.00     0.133 A 
HETATM    4  N   UNL     1     -40.137  54.103 -55.630  1.00  0.00    -0.261 N 
HETATM    5  H   UNL     1     -39.549  53.921 -56.436  1.00  0.00     0.191 HD
HETATM    6  N   UNL     1     -39.772  53.583 -54.450  1.00  0.00    -0.172 NA
HETATM    7  C   UNL     1     -40.718  53.984 -53.582  1.00  0.00     0.098 A 
HETATM    8  N   UNL     1     -41.972  55.503 -56.524  1.00  0.00    -0.312 N 
HETATM    9  C   UNL     1     -43.225  56.119 -56.211  1.00  0.00     0.224 C 
HETATM   10  O   UNL     1     -43.731  56.779 -57.105  1.00  0.00    -0.273 OA
HETATM   11  C   UNL     1     -43.888  55.802 -54.894  1.00  0.00     0.117 C 
HETATM   12  H   UNL     1     -41.616  55.619 -57.465  1.00  0.00     0.170 HD
ENDROOT
BRANCH   1  13
HETATM   13  C   UNL     1     -42.425  56.776 -53.060  1.00  0.00    -0.049 A 
HETATM   14  C   UNL     1     -43.061  57.323 -51.933  1.00  0.00     0.010 A 
HETATM   15  C   UNL     1     -42.518  58.426 -51.272  1.00  0.00     0.037 A 
HETATM   16  C   UNL     1     -41.322  58.992 -51.704  1.00  0.00     0.069 A 
HETATM   17  C   UNL     1     -40.705  58.502 -52.852  1.00  0.00     0.037 A 
HETATM   18  C   UNL     1     -41.249  57.400 -53.520  1.00  0.00     0.010 A 
BRANCH  16  19
HETATM   19  O   UNL     1     -40.852  60.032 -50.953  1.00  0.00    -0.348 OA
BRANCH  19  20
HETATM   20  C   UNL     1     -40.009  59.651 -49.864  1.00  0.00     0.202 C 
BRANCH  20  21
HETATM   21  C   UNL     1     -38.623  60.125 -50.186  1.00  0.00    -0.011 C 
HETATM   22  C   UNL     1     -37.540  59.872 -49.440  1.00  0.00     0.009 C 
ENDBRANCH  20  21
ENDBRANCH  19  20
ENDBRANCH  16  19
ENDBRANCH   1  13
BRANCH   7  23
HETATM   23  C   UNL     1     -40.636  53.607 -52.172  1.00  0.00    -0.005 A 
HETATM   24  C   UNL     1     -40.821  54.580 -51.180  1.00  0.00     0.014 A 
HETATM   25  C   UNL     1     -40.744  54.241 -49.828  1.00  0.00     0.001 A 
HETATM   26  C   UNL     1     -40.478  52.925 -49.455  1.00  0.00     0.000 A 
HETATM   27  C   UNL     1     -40.278  51.951 -50.432  1.00  0.00     0.001 A 
HETATM   28  C   UNL     1     -40.351  52.292 -51.785  1.00  0.00     0.014 A 
ENDBRANCH   7  23
TORSDOF 5
ENDMDL
MODEL 5
REMARK VINA RESULT:      -7.1     15.998     19.172
REMARK  5 active torsions:
REMARK  status: ('A' for Active; 'I' for Inactive)
REMARK    1  A    between atoms: C_2  and  C_3 
REMARK    2  A    between atoms: C_3  and  O_4 
REMARK    3  A    between atoms: O_4  and  C_5 
REMARK    4  A    between atoms: C_8  and  C_9 
REMARK    5  A    between atoms: C_15  and  C_16 
ROOT
HETATM    1  C   UNL     1     -35.232  39.572 -53.917  1.00  0.00     0.066 C 
HETATM    2  C   UNL     1     -35.049  40.630 -54.945  1.00  0.00     0.028 A 
HETATM    3  C   UNL     1     -35.805  41.774 -54.973  1.00  0.00     0.133 A 
HETATM    4  N   UNL     1     -35.341  42.537 -55.997  1.00  0.00    -0.261 N 
HETATM    5  H   UNL     1     -35.648  43.452 -56.307  1.00  0.00     0.191 HD
HETATM    6  N   UNL     1     -34.340  41.948 -56.666  1.00  0.00    -0.172 NA
HETATM    7  C   UNL     1     -34.147  40.770 -56.043  1.00  0.00     0.098 A 
HETATM    8  N   UNL     1     -36.796  42.030 -54.061  1.00  0.00    -0.312 N 
HETATM    9  C   UNL     1     -37.163  41.024 -53.112  1.00  0.00     0.224 C 
HETATM   10  O   UNL     1     -37.996  41.354 -52.283  1.00  0.00    -0.273 OA
HETATM   11  C   UNL     1     -36.624  39.625 -53.281  1.00  0.00     0.117 C 
HETATM   12  H   UNL     1     -37.277  42.920 -54.009  1.00  0.00     0.170 HD
ENDROOT
BRANCH   1  13
HETATM   13  C   UNL     1     -34.116  39.732 -52.896  1.00  0.00    -0.049 A 
HETATM   14  C   UNL     1     -34.138  40.694 -51.872  1.00  0.00     0.010 A 
HETATM   15  C   UNL     1     -33.135  40.727 -50.902  1.00  0.00     0.037 A 
HETATM   16  C   UNL     1     -32.105  39.791 -50.917  1.00  0.00     0.069 A 
HETATM   17  C   UNL     1     -32.033  38.866 -51.954  1.00  0.00     0.037 A 
HETATM   18  C   UNL     1     -33.033  38.834 -52.932  1.00  0.00     0.010 A 
BRANCH  16  19
HETATM   19  O   UNL     1     -31.208  39.879 -49.891  1.00  0.00    -0.348 OA
BRANCH  19  20
HETATM   20  C   UNL     1     -31.792  39.905 -48.586  1.00  0.00     0.202 C 
BRANCH  20  21
HETATM   21  C   UNL     1     -32.210  38.504 -48.256  1.00  0.00    -0.011 C 
HETATM   22  C   UNL     1     -33.457  38.140 -47.929  1.00  0.00     0.009 C 
ENDBRANCH  20  21
ENDBRANCH  19  20
ENDBRANCH  16  19
ENDBRANCH   1  13
BRANCH   7  23
HETATM   23  C   UNL     1     -33.105  39.853 -56.502  1.00  0.00    -0.005 A 
HETATM   24  C   UNL     1     -33.457  38.711 -57.233  1.00  0.00     0.014 A 
HETATM   25  C   UNL     1     -32.476  37.822 -57.678  1.00  0.00     0.001 A 
HETATM   26  C   UNL     1     -31.134  38.066 -57.393  1.00  0.00     0.000 A 
HETATM   27  C   UNL     1     -30.773  39.192 -56.655  1.00  0.00     0.001 A 
HETATM   28  C   UNL     1     -31.755  40.079 -56.206  1.00  0.00     0.014 A 
ENDBRANCH   7  23
TORSDOF 5
ENDMDL
MODEL 6
REMARK VINA RESULT:      -7.0      2.728      5.800
REMARK  5 active torsions:
REMARK  status: ('A' for Active; 'I' for Inactive)
REMARK    1  A    between atoms: C_2  and  C_3 
REMARK    2  A    between atoms: C_3  and  O_4 
REMARK    3  A    between atoms: O_4  and  C_5 
REMARK    4  A    between atoms: C_8  and  C_9 
REMARK    5  A    between atoms: C_15  and  C_16 
ROOT
HETATM    1  C   UNL     1     -42.994  55.613 -53.686  1.00  0.00     0.066 C 
HETATM    2  C   UNL     1     -41.760  54.947 -54.177  1.00  0.00     0.028 A 
HETATM    3  C   UNL     1     -41.352  55.012 -55.485  1.00  0.00     0.133 A 
HETATM    4  N   UNL     1     -40.172  54.347 -55.572  1.00  0.00    -0.261 N 
HETATM    5  H   UNL     1     -39.575  54.202 -56.379  1.00  0.00     0.191 HD
HETATM    6  N   UNL     1     -39.790  53.819 -54.400  1.00  0.00    -0.172 NA
HETATM    7  C   UNL     1     -40.754  54.168 -53.528  1.00  0.00     0.098 A 
HETATM    8  N   UNL     1     -42.057  55.691 -56.447  1.00  0.00    -0.312 N 
HETATM    9  C   UNL     1     -43.334  56.252 -56.128  1.00  0.00     0.224 C 
HETATM   10  O   UNL     1     -43.862  56.908 -57.011  1.00  0.00    -0.273 OA
HETATM   11  C   UNL     1     -43.988  55.886 -54.819  1.00  0.00     0.117 C 
HETATM   12  H   UNL     1     -41.703  55.837 -57.385  1.00  0.00     0.170 HD
ENDROOT
BRANCH   1  13
HETATM   13  C   UNL     1     -42.568  56.883 -52.963  1.00  0.00    -0.049 A 
HETATM   14  C   UNL     1     -41.412  57.608 -53.294  1.00  0.00     0.010 A 
HETATM   15  C   UNL     1     -41.126  58.822 -52.665  1.00  0.00     0.037 A 
HETATM   16  C   UNL     1     -41.996  59.347 -51.714  1.00  0.00     0.069 A 
HETATM   17  C   UNL     1     -43.118  58.618 -51.331  1.00  0.00     0.037 A 
HETATM   18  C   UNL     1     -43.404  57.399 -51.955  1.00  0.00     0.010 A 
BRANCH  16  19
HETATM   19  O   UNL     1     -41.650  60.566 -51.202  1.00  0.00    -0.348 OA
BRANCH  19  20
HETATM   20  C   UNL     1     -42.553  61.081 -50.220  1.00  0.00     0.202 C 
BRANCH  20  21
HETATM   21  C   UNL     1     -43.073  62.389 -50.737  1.00  0.00    -0.011 C 
HETATM   22  C   UNL     1     -42.806  63.582 -50.191  1.00  0.00     0.009 C 
ENDBRANCH  20  21
ENDBRANCH  19  20
ENDBRANCH  16  19
ENDBRANCH   1  13
BRANCH   7  23
HETATM   23  C   UNL     1     -40.661  53.769 -52.125  1.00  0.00    -0.005 A 
HETATM   24  C   UNL     1     -40.345  52.444 -51.798  1.00  0.00     0.014 A 
HETATM   25  C   UNL     1     -40.252  52.043 -50.464  1.00  0.00     0.001 A 
HETATM   26  C   UNL     1     -40.478  52.964 -49.443  1.00  0.00     0.000 A 
HETATM   27  C   UNL     1     -40.807  54.283 -49.755  1.00  0.00     0.001 A 
HETATM   28  C   UNL     1     -40.904  54.683 -51.091  1.00  0.00     0.014 A 
ENDBRANCH   7  23
TORSDOF 5
ENDMDL
MODEL 7
REMARK VINA RESULT:      -6.9      3.248      6.631
REMARK  5 active torsions:
REMARK  status: ('A' for Active; 'I' for Inactive)
REMARK    1  A    between atoms: C_2  and  C_3 
REMARK    2  A    between atoms: C_3  and  O_4 
REMARK    3  A    between atoms: O_4  and  C_5 
REMARK    4  A    between atoms: C_8  and  C_9 
REMARK    5  A    between atoms: C_15  and  C_16 
ROOT
HETATM    1  C   UNL     1     -43.928  58.035 -55.636  1.00  0.00     0.066 C 
HETATM    2  C   UNL     1     -43.123  58.512 -56.790  1.00  0.00     0.028 A 
HETATM    3  C   UNL     1     -42.185  59.506 -56.679  1.00  0.00     0.133 A 
HETATM    4  N   UNL     1     -41.607  59.651 -57.899  1.00  0.00    -0.261 N 
HETATM    5  H   UNL     1     -40.865  60.279 -58.188  1.00  0.00     0.191 HD
HETATM    6  N   UNL     1     -42.130  58.828 -58.819  1.00  0.00    -0.172 NA
HETATM    7  C   UNL     1     -43.071  58.123 -58.163  1.00  0.00     0.098 A 
HETATM    8  N   UNL     1     -41.920  60.145 -55.494  1.00  0.00    -0.312 N 
HETATM    9  C   UNL     1     -42.729  59.874 -54.346  1.00  0.00     0.224 C 
HETATM   10  O   UNL     1     -42.382  60.421 -53.311  1.00  0.00    -0.273 OA
HETATM   11  C   UNL     1     -43.998  59.077 -54.515  1.00  0.00     0.117 C 
HETATM   12  H   UNL     1     -41.152  60.797 -55.383  1.00  0.00     0.170 HD
ENDROOT
BRANCH   1  13
HETATM   13  C   UNL     1     -43.323  56.718 -55.173  1.00  0.00    -0.049 A 
HETATM   14  C   UNL     1     -41.981  56.366 -55.393  1.00  0.00     0.010 A 
HETATM   15  C   UNL     1     -41.454  55.190 -54.855  1.00  0.00     0.037 A 
HETATM   16  C   UNL     1     -42.245  54.355 -54.070  1.00  0.00     0.069 A 
HETATM   17  C   UNL     1     -43.591  54.656 -53.887  1.00  0.00     0.037 A 
HETATM   18  C   UNL     1     -44.123  55.830 -54.429  1.00  0.00     0.010 A 
BRANCH  16  19
HETATM   19  O   UNL     1     -41.616  53.260 -53.549  1.00  0.00    -0.348 OA
BRANCH  19  20
HETATM   20  C   UNL     1     -40.402  53.544 -52.849  1.00  0.00     0.202 C 
BRANCH  20  21
HETATM   21  C   UNL     1     -40.716  53.520 -51.383  1.00  0.00    -0.011 C 
HETATM   22  C   UNL     1     -40.673  54.590 -50.579  1.00  0.00     0.009 C 
ENDBRANCH  20  21
ENDBRANCH  19  20
ENDBRANCH  16  19
ENDBRANCH   1  13
BRANCH   7  23
HETATM   23  C   UNL     1     -43.851  57.103 -58.862  1.00  0.00    -0.005 A 
HETATM   24  C   UNL     1     -45.115  57.424 -59.375  1.00  0.00     0.014 A 
HETATM   25  C   UNL     1     -45.876  56.464 -60.043  1.00  0.00     0.001 A 
HETATM   26  C   UNL     1     -45.381  55.171 -60.203  1.00  0.00     0.000 A 
HETATM   27  C   UNL     1     -44.131  54.835 -59.685  1.00  0.00     0.001 A 
HETATM   28  C   UNL     1     -43.371  55.796 -59.012  1.00  0.00     0.014 A 
ENDBRANCH   7  23
TORSDOF 5
ENDMDL
MODEL 8
REMARK VINA RESULT:      -6.8      2.383      4.899
REMARK  5 active torsions:
REMARK  status: ('A' for Active; 'I' for Inactive)
REMARK    1  A    between atoms: C_2  and  C_3 
REMARK    2  A    between atoms: C_3  and  O_4 
REMARK    3  A    between atoms: O_4  and  C_5 
REMARK    4  A    between atoms: C_8  and  C_9 
REMARK    5  A    between atoms: C_15  and  C_16 
ROOT
HETATM    1  C   UNL     1     -43.375  55.451 -51.803  1.00  0.00     0.066 C 
HETATM    2  C   UNL     1     -42.494  56.549 -51.324  1.00  0.00     0.028 A 
HETATM    3  C   UNL     1     -41.262  56.321 -50.767  1.00  0.00     0.133 A 
HETATM    4  N   UNL     1     -40.714  57.533 -50.495  1.00  0.00    -0.261 N 
HETATM    5  H   UNL     1     -39.809  57.753 -50.093  1.00  0.00     0.191 HD
HETATM    6  N   UNL     1     -41.527  58.550 -50.814  1.00  0.00    -0.172 NA
HETATM    7  C   UNL     1     -42.632  57.970 -51.318  1.00  0.00     0.098 A 
HETATM    8  N   UNL     1     -40.747  55.060 -50.599  1.00  0.00    -0.312 N 
HETATM    9  C   UNL     1     -41.558  53.918 -50.889  1.00  0.00     0.224 C 
HETATM   10  O   UNL     1     -41.004  52.835 -50.792  1.00  0.00    -0.273 OA
HETATM   11  C   UNL     1     -43.032  54.112 -51.144  1.00  0.00     0.117 C 
HETATM   12  H   UNL     1     -39.795  54.894 -50.295  1.00  0.00     0.170 HD
ENDROOT
BRANCH   1  13
HETATM   13  C   UNL     1     -43.257  55.404 -53.319  1.00  0.00    -0.049 A 
HETATM   14  C   UNL     1     -43.971  56.258 -54.176  1.00  0.00     0.010 A 
HETATM   15  C   UNL     1     -43.745  56.239 -55.554  1.00  0.00     0.037 A 
HETATM   16  C   UNL     1     -42.790  55.388 -56.102  1.00  0.00     0.069 A 
HETATM   17  C   UNL     1     -42.113  54.494 -55.279  1.00  0.00     0.037 A 
HETATM   18  C   UNL     1     -42.341  54.506 -53.898  1.00  0.00     0.010 A 
BRANCH  16  19
HETATM   19  O   UNL     1     -42.611  55.489 -57.453  1.00  0.00    -0.348 OA
BRANCH  19  20
HETATM   20  C   UNL     1     -43.526  56.366 -58.114  1.00  0.00     0.202 C 
BRANCH  20  21
HETATM   21  C   UNL     1     -43.811  55.778 -59.463  1.00  0.00    -0.011 C 
HETATM   22  C   UNL     1     -44.375  54.581 -59.667  1.00  0.00     0.009 C 
ENDBRANCH  20  21
ENDBRANCH  19  20
ENDBRANCH  16  19
ENDBRANCH   1  13
BRANCH   7  23
HETATM   23  C   UNL     1     -43.746  58.789 -51.792  1.00  0.00    -0.005 A 
HETATM   24  C   UNL     1     -43.611  59.531 -52.973  1.00  0.00     0.014 A 
HETATM   25  C   UNL     1     -44.663  60.321 -53.441  1.00  0.00     0.001 A 
HETATM   26  C   UNL     1     -45.860  60.378 -52.730  1.00  0.00     0.000 A 
HETATM   27  C   UNL     1     -46.002  59.655 -51.546  1.00  0.00     0.001 A 
HETATM   28  C   UNL     1     -44.947  58.868 -51.076  1.00  0.00     0.014 A 
ENDBRANCH   7  23
TORSDOF 5
ENDMDL
MODEL 9
REMARK VINA RESULT:      -6.8     16.166     18.945
REMARK  5 active torsions:
REMARK  status: ('A' for Active; 'I' for Inactive)
REMARK    1  A    between atoms: C_2  and  C_3 
REMARK    2  A    between atoms: C_3  and  O_4 
REMARK    3  A    between atoms: O_4  and  C_5 
REMARK    4  A    between atoms: C_8  and  C_9 
REMARK    5  A    between atoms: C_15  and  C_16 
ROOT
HETATM    1  C   UNL     1     -35.028  39.259 -52.982  1.00  0.00     0.066 C 
HETATM    2  C   UNL     1     -35.086  40.731 -52.783  1.00  0.00     0.028 A 
HETATM    3  C   UNL     1     -34.628  41.344 -51.644  1.00  0.00     0.133 A 
HETATM    4  N   UNL     1     -34.782  42.681 -51.818  1.00  0.00    -0.261 N 
HETATM    5  H   UNL     1     -34.540  43.442 -51.192  1.00  0.00     0.191 HD
HETATM    6  N   UNL     1     -35.342  42.987 -52.997  1.00  0.00    -0.172 NA
HETATM    7  C   UNL     1     -35.546  41.804 -53.605  1.00  0.00     0.098 A 
HETATM    8  N   UNL     1     -34.089  40.645 -50.593  1.00  0.00    -0.312 N 
HETATM    9  C   UNL     1     -34.111  39.215 -50.606  1.00  0.00     0.224 C 
HETATM   10  O   UNL     1     -33.542  38.666 -49.676  1.00  0.00    -0.273 OA
HETATM   11  C   UNL     1     -34.933  38.504 -51.652  1.00  0.00     0.117 C 
HETATM   12  H   UNL     1     -33.648  41.100 -49.803  1.00  0.00     0.170 HD
ENDROOT
BRANCH   1  13
HETATM   13  C   UNL     1     -33.853  38.971 -53.904  1.00  0.00    -0.049 A 
HETATM   14  C   UNL     1     -32.520  38.924 -53.464  1.00  0.00     0.010 A 
HETATM   15  C   UNL     1     -31.493  38.552 -54.334  1.00  0.00     0.037 A 
HETATM   16  C   UNL     1     -31.776  38.199 -55.651  1.00  0.00     0.069 A 
HETATM   17  C   UNL     1     -33.082  38.294 -56.123  1.00  0.00     0.037 A 
HETATM   18  C   UNL     1     -34.112  38.671 -55.255  1.00  0.00     0.010 A 
BRANCH  16  19
HETATM   19  O   UNL     1     -30.706  37.800 -56.401  1.00  0.00    -0.348 OA
BRANCH  19  20
HETATM   20  C   UNL     1     -29.701  38.799 -56.590  1.00  0.00     0.202 C 
BRANCH  20  21
HETATM   21  C   UNL     1     -28.396  38.087 -56.787  1.00  0.00    -0.011 C 
HETATM   22  C   UNL     1     -27.573  37.719 -55.797  1.00  0.00     0.009 C 
ENDBRANCH  20  21
ENDBRANCH  19  20
ENDBRANCH  16  19
ENDBRANCH   1  13
BRANCH   7  23
HETATM   23  C   UNL     1     -36.140  41.752 -54.940  1.00  0.00    -0.005 A 
HETATM   24  C   UNL     1     -35.381  42.135 -56.054  1.00  0.00     0.014 A 
HETATM   25  C   UNL     1     -35.930  42.093 -57.337  1.00  0.00     0.001 A 
HETATM   26  C   UNL     1     -37.246  41.671 -57.517  1.00  0.00     0.000 A 
HETATM   27  C   UNL     1     -38.016  41.300 -56.415  1.00  0.00     0.001 A 
HETATM   28  C   UNL     1     -37.467  41.346 -55.131  1.00  0.00     0.014 A 
ENDBRANCH   7  23
TORSDOF 5
ENDMDL
MODEL 10
REMARK VINA RESULT:      -6.7     15.679     18.185
REMARK  5 active torsions:
REMARK  status: ('A' for Active; 'I' for Inactive)
REMARK    1  A    between atoms: C_2  and  C_3 
REMARK    2  A    between atoms: C_3  and  O_4 
REMARK    3  A    between atoms: O_4  and  C_5 
REMARK    4  A    between atoms: C_8  and  C_9 
REMARK    5  A    between atoms: C_15  and  C_16 
ROOT
HETATM    1  C   UNL     1     -34.993  41.775 -56.218  1.00  0.00     0.066 C 
HETATM    2  C   UNL     1     -36.190  41.488 -55.385  1.00  0.00     0.028 A 
HETATM    3  C   UNL     1     -37.464  41.482 -55.894  1.00  0.00     0.133 A 
HETATM    4  N   UNL     1     -38.299  41.133 -54.882  1.00  0.00    -0.261 N 
HETATM    5  H   UNL     1     -39.306  41.014 -54.893  1.00  0.00     0.191 HD
HETATM    6  N   UNL     1     -37.653  40.937 -53.724  1.00  0.00    -0.172 NA
HETATM    7  C   UNL     1     -36.355  41.157 -54.005  1.00  0.00     0.098 A 
HETATM    8  N   UNL     1     -37.735  41.749 -57.212  1.00  0.00    -0.312 N 
HETATM    9  C   UNL     1     -36.683  42.179 -58.080  1.00  0.00     0.224 C 
HETATM   10  O   UNL     1     -36.987  42.319 -59.254  1.00  0.00    -0.273 OA
HETATM   11  C   UNL     1     -35.351  42.560 -57.484  1.00  0.00     0.117 C 
HETATM   12  H   UNL     1     -38.658  41.634 -57.615  1.00  0.00     0.170 HD
ENDROOT
BRANCH   1  13
HETATM   13  C   UNL     1     -34.323  40.444 -56.524  1.00  0.00    -0.049 A 
HETATM   14  C   UNL     1     -35.029  39.300 -56.930  1.00  0.00     0.010 A 
HETATM   15  C   UNL     1     -34.351  38.136 -57.297  1.00  0.00     0.037 A 
HETATM   16  C   UNL     1     -32.960  38.095 -57.290  1.00  0.00     0.069 A 
HETATM   17  C   UNL     1     -32.243  39.199 -56.837  1.00  0.00     0.037 A 
HETATM   18  C   UNL     1     -32.919  40.365 -56.463  1.00  0.00     0.010 A 
BRANCH  16  19
HETATM   19  O   UNL     1     -32.398  36.926 -57.719  1.00  0.00    -0.348 OA
BRANCH  19  20
HETATM   20  C   UNL     1     -31.430  37.075 -58.761  1.00  0.00     0.202 C 
BRANCH  20  21
HETATM   21  C   UNL     1     -32.175  37.099 -60.062  1.00  0.00    -0.011 C 
HETATM   22  C   UNL     1     -31.615  37.337 -61.254  1.00  0.00     0.009 C 
ENDBRANCH  20  21
ENDBRANCH  19  20
ENDBRANCH  16  19
ENDBRANCH   1  13
BRANCH   7  23
HETATM   23  C   UNL     1     -35.339  41.018 -52.964  1.00  0.00    -0.005 A 
HETATM   24  C   UNL     1     -35.191  42.022 -51.998  1.00  0.00     0.014 A 
HETATM   25  C   UNL     1     -34.225  41.908 -50.996  1.00  0.00     0.001 A 
HETATM   26  C   UNL     1     -33.395  40.789 -50.953  1.00  0.00     0.000 A 
HETATM   27  C   UNL     1     -33.523  39.790 -51.917  1.00  0.00     0.001 A 
HETATM   28  C   UNL     1     -34.487  39.906 -52.922  1.00  0.00     0.014 A 
ENDBRANCH   7  23
TORSDOF 5
ENDMDL
