MODEL 1
REMARK VINA RESULT:      -8.2      0.000      0.000
REMARK  4 active torsions:
REMARK  status: ('A' for Active; 'I' for Inactive)
REMARK    1  A    between atoms: C_5  and  C_6 
REMARK    2  A    between atoms: C_8  and  O_9 
REMARK    3  A    between atoms: C_15  and  C_16 
REMARK       I    between atoms: C_16  and  N_17 
REMARK    4  A    between atoms: N_17  and  C_18 
ROOT
HETATM    1  C   UNL     1     -42.656  58.301 -52.998  1.00  0.00     0.071 C 
HETATM    2  C   UNL     1     -42.478  57.820 -54.386  1.00  0.00     0.041 A 
HETATM    3  N   UNL     1     -42.432  58.657 -55.471  1.00  0.00    -0.342 N 
HETATM    4  H   UNL     1     -42.492  59.664 -55.443  1.00  0.00     0.167 HD
HETATM    5  C   UNL     1     -42.276  57.901 -56.611  1.00  0.00     0.139 A 
HETATM    6  N   UNL     1     -42.169  56.624 -56.290  1.00  0.00    -0.223 NA
HETATM    7  C   UNL     1     -42.325  56.549 -54.910  1.00  0.00     0.149 A 
ENDROOT
BRANCH   7   8
HETATM    8  C   UNL     1     -42.325  55.272 -54.182  1.00  0.00     0.276 C 
HETATM    9  N   UNL     1     -41.064  54.712 -54.170  1.00  0.00    -0.322 N 
HETATM   10  H   UNL     1     -40.358  55.289 -54.620  1.00  0.00     0.169 HD
HETATM   11  O   UNL     1     -43.339  54.812 -53.670  1.00  0.00    -0.266 OA
BRANCH   9  12
HETATM   12  C   UNL     1     -40.663  53.477 -53.632  1.00  0.00     0.035 A 
HETATM   13  C   UNL     1     -40.502  52.318 -54.397  1.00  0.00     0.039 A 
HETATM   14  C   UNL     1     -40.076  51.158 -53.767  1.00  0.00    -0.024 A 
HETATM   15  C   UNL     1     -39.828  51.123 -52.406  1.00  0.00    -0.026 A 
HETATM   16  C   UNL     1     -39.830  49.815 -54.348  1.00  0.00     0.207 C 
HETATM   17  C   UNL     1     -39.418  49.751 -52.017  1.00  0.00     0.207 C 
HETATM   18  C   UNL     1     -39.990  52.251 -51.624  1.00  0.00     0.012 A 
HETATM   19  O   UNL     1     -39.237  49.051 -53.270  1.00  0.00    -0.382 OA
HETATM   20  C   UNL     1     -40.402  53.434 -52.247  1.00  0.00     0.030 A 
ENDBRANCH   9  12
ENDBRANCH   7   8
BRANCH   5  21
HETATM   21  C   UNL     1     -42.218  58.464 -57.963  1.00  0.00     0.013 A 
HETATM   22  C   UNL     1     -41.802  59.787 -58.198  1.00  0.00     0.052 A 
HETATM   23  C   UNL     1     -41.761  60.301 -59.498  1.00  0.00     0.069 A 
HETATM   24  C   UNL     1     -42.130  59.487 -60.570  1.00  0.00     0.037 A 
HETATM   25  C   UNL     1     -42.555  58.178 -60.352  1.00  0.00     0.004 A 
HETATM   26  C   UNL     1     -42.603  57.673 -59.053  1.00  0.00     0.015 A 
BRANCH  23  27
HETATM   27  O   UNL     1     -41.381  61.568 -59.849  1.00  0.00    -0.356 OA
HETATM   28  C   UNL     1     -40.759  62.359 -58.845  1.00  0.00     0.210 C 
ENDBRANCH  23  27
ENDBRANCH   5  21
TORSDOF 4
ENDMDL
MODEL 2
REMARK VINA RESULT:      -8.1      1.543      2.168
REMARK  4 active torsions:
REMARK  status: ('A' for Active; 'I' for Inactive)
REMARK    1  A    between atoms: C_5  and  C_6 
REMARK    2  A    between atoms: C_8  and  O_9 
REMARK    3  A    between atoms: C_15  and  C_16 
REMARK       I    between atoms: C_16  and  N_17 
REMARK    4  A    between atoms: N_17  and  C_18 
ROOT
HETATM    1  C   UNL     1     -41.427  58.698 -53.156  1.00  0.00     0.071 C 
HETATM    2  C   UNL     1     -41.868  58.051 -54.413  1.00  0.00     0.041 A 
HETATM    3  N   UNL     1     -42.111  58.745 -55.569  1.00  0.00    -0.342 N 
HETATM    4  H   UNL     1     -42.000  59.741 -55.696  1.00  0.00     0.167 HD
HETATM    5  C   UNL     1     -42.520  57.861 -56.542  1.00  0.00     0.139 A 
HETATM    6  N   UNL     1     -42.496  56.629 -56.066  1.00  0.00    -0.223 NA
HETATM    7  C   UNL     1     -42.124  56.730 -54.729  1.00  0.00     0.149 A 
ENDROOT
BRANCH   7   8
HETATM    8  C   UNL     1     -42.043  55.562 -53.841  1.00  0.00     0.276 C 
HETATM    9  N   UNL     1     -40.978  54.754 -54.185  1.00  0.00    -0.322 N 
HETATM   10  H   UNL     1     -40.419  55.121 -54.951  1.00  0.00     0.169 HD
HETATM   11  O   UNL     1     -42.839  55.379 -52.928  1.00  0.00    -0.266 OA
BRANCH   9  12
HETATM   12  C   UNL     1     -40.599  53.523 -53.622  1.00  0.00     0.035 A 
HETATM   13  C   UNL     1     -40.472  52.344 -54.361  1.00  0.00     0.039 A 
HETATM   14  C   UNL     1     -40.065  51.189 -53.708  1.00  0.00    -0.024 A 
HETATM   15  C   UNL     1     -39.802  51.181 -52.348  1.00  0.00    -0.026 A 
HETATM   16  C   UNL     1     -39.856  49.827 -54.258  1.00  0.00     0.207 C 
HETATM   17  C   UNL     1     -39.419  49.810 -51.931  1.00  0.00     0.207 C 
HETATM   18  C   UNL     1     -39.930  52.331 -51.592  1.00  0.00     0.012 A 
HETATM   19  O   UNL     1     -39.267  49.076 -53.169  1.00  0.00    -0.382 OA
HETATM   20  C   UNL     1     -40.323  53.507 -52.240  1.00  0.00     0.030 A 
ENDBRANCH   9  12
ENDBRANCH   7   8
BRANCH   5  21
HETATM   21  C   UNL     1     -42.897  58.259 -57.902  1.00  0.00     0.013 A 
HETATM   22  C   UNL     1     -44.172  57.987 -58.427  1.00  0.00     0.052 A 
HETATM   23  C   UNL     1     -44.504  58.372 -59.730  1.00  0.00     0.069 A 
HETATM   24  C   UNL     1     -43.558  59.039 -60.511  1.00  0.00     0.037 A 
HETATM   25  C   UNL     1     -42.286  59.304 -60.008  1.00  0.00     0.004 A 
HETATM   26  C   UNL     1     -41.957  58.910 -58.712  1.00  0.00     0.015 A 
BRANCH  23  27
HETATM   27  O   UNL     1     -45.706  58.161 -60.350  1.00  0.00    -0.356 OA
HETATM   28  C   UNL     1     -46.594  57.233 -59.741  1.00  0.00     0.210 C 
ENDBRANCH  23  27
ENDBRANCH   5  21
TORSDOF 4
ENDMDL
MODEL 3
REMARK VINA RESULT:      -8.0      1.823      2.990
REMARK  4 active torsions:
REMARK  status: ('A' for Active; 'I' for Inactive)
REMARK    1  A    between atoms: C_5  and  C_6 
REMARK    2  A    between atoms: C_8  and  O_9 
REMARK    3  A    between atoms: C_15  and  C_16 
REMARK       I    between atoms: C_16  and  N_17 
REMARK    4  A    between atoms: N_17  and  C_18 
ROOT
HETATM    1  C   UNL     1     -44.162  54.743 -59.541  1.00  0.00     0.071 C 
HETATM    2  C   UNL     1     -43.443  55.881 -58.926  1.00  0.00     0.041 A 
HETATM    3  N   UNL     1     -43.220  57.067 -59.574  1.00  0.00    -0.342 N 
HETATM    4  H   UNL     1     -43.530  57.298 -60.507  1.00  0.00     0.167 HD
HETATM    5  C   UNL     1     -42.513  57.906 -58.741  1.00  0.00     0.139 A 
HETATM    6  N   UNL     1     -42.325  57.319 -57.573  1.00  0.00    -0.223 NA
HETATM    7  C   UNL     1     -42.868  56.043 -57.678  1.00  0.00     0.149 A 
ENDROOT
BRANCH   7   8
HETATM    8  C   UNL     1     -42.798  55.061 -56.587  1.00  0.00     0.276 C 
HETATM    9  N   UNL     1     -41.715  55.309 -55.769  1.00  0.00    -0.322 N 
HETATM   10  H   UNL     1     -41.188  56.138 -56.031  1.00  0.00     0.169 HD
HETATM   11  O   UNL     1     -43.623  54.162 -56.465  1.00  0.00    -0.266 OA
BRANCH   9  12
HETATM   12  C   UNL     1     -41.273  54.568 -54.660  1.00  0.00     0.035 A 
HETATM   13  C   UNL     1     -40.659  53.317 -54.764  1.00  0.00     0.039 A 
HETATM   14  C   UNL     1     -40.236  52.684 -53.603  1.00  0.00    -0.024 A 
HETATM   15  C   UNL     1     -40.425  53.256 -52.357  1.00  0.00    -0.026 A 
HETATM   16  C   UNL     1     -39.566  51.369 -53.446  1.00  0.00     0.207 C 
HETATM   17  C   UNL     1     -39.900  52.341 -51.313  1.00  0.00     0.207 C 
HETATM   18  C   UNL     1     -41.039  54.488 -52.225  1.00  0.00     0.012 A 
HETATM   19  O   UNL     1     -39.204  51.306 -52.045  1.00  0.00    -0.382 OA
HETATM   20  C   UNL     1     -41.456  55.146 -53.387  1.00  0.00     0.030 A 
ENDBRANCH   9  12
ENDBRANCH   7   8
BRANCH   5  21
HETATM   21  C   UNL     1     -42.073  59.251 -59.118  1.00  0.00     0.013 A 
HETATM   22  C   UNL     1     -42.084  59.688 -60.455  1.00  0.00     0.052 A 
HETATM   23  C   UNL     1     -41.652  60.976 -60.788  1.00  0.00     0.069 A 
HETATM   24  C   UNL     1     -41.214  61.836 -59.779  1.00  0.00     0.037 A 
HETATM   25  C   UNL     1     -41.186  61.413 -58.452  1.00  0.00     0.004 A 
HETATM   26  C   UNL     1     -41.608  60.125 -58.125  1.00  0.00     0.015 A 
BRANCH  23  27
HETATM   27  O   UNL     1     -41.613  61.510 -62.047  1.00  0.00    -0.356 OA
HETATM   28  C   UNL     1     -40.902  62.730 -62.212  1.00  0.00     0.210 C 
ENDBRANCH  23  27
ENDBRANCH   5  21
TORSDOF 4
ENDMDL
MODEL 4
REMARK VINA RESULT:      -7.7      3.300      9.074
REMARK  4 active torsions:
REMARK  status: ('A' for Active; 'I' for Inactive)
REMARK    1  A    between atoms: C_5  and  C_6 
REMARK    2  A    between atoms: C_8  and  O_9 
REMARK    3  A    between atoms: C_15  and  C_16 
REMARK       I    between atoms: C_16  and  N_17 
REMARK    4  A    between atoms: N_17  and  C_18 
ROOT
HETATM    1  C   UNL     1     -42.206  59.036 -54.689  1.00  0.00     0.071 C 
HETATM    2  C   UNL     1     -42.036  57.590 -54.958  1.00  0.00     0.041 A 
HETATM    3  N   UNL     1     -41.501  56.715 -54.049  1.00  0.00    -0.342 N 
HETATM    4  H   UNL     1     -41.192  56.947 -53.116  1.00  0.00     0.167 HD
HETATM    5  C   UNL     1     -41.465  55.457 -54.609  1.00  0.00     0.139 A 
HETATM    6  N   UNL     1     -42.003  55.489 -55.815  1.00  0.00    -0.223 NA
HETATM    7  C   UNL     1     -42.335  56.816 -56.065  1.00  0.00     0.149 A 
ENDROOT
BRANCH   7   8
HETATM    8  C   UNL     1     -42.910  57.260 -57.342  1.00  0.00     0.276 C 
HETATM    9  N   UNL     1     -44.287  57.322 -57.269  1.00  0.00    -0.322 N 
HETATM   10  H   UNL     1     -44.656  57.095 -56.349  1.00  0.00     0.169 HD
HETATM   11  O   UNL     1     -42.212  57.531 -58.313  1.00  0.00    -0.266 OA
BRANCH   9  12
HETATM   12  C   UNL     1     -45.201  57.642 -58.287  1.00  0.00     0.035 A 
HETATM   13  C   UNL     1     -45.692  56.710 -59.204  1.00  0.00     0.039 A 
HETATM   14  C   UNL     1     -46.613  57.130 -60.153  1.00  0.00    -0.024 A 
HETATM   15  C   UNL     1     -47.037  58.446 -60.217  1.00  0.00    -0.026 A 
HETATM   16  C   UNL     1     -47.277  56.345 -61.224  1.00  0.00     0.207 C 
HETATM   17  C   UNL     1     -47.992  58.599 -61.342  1.00  0.00     0.207 C 
HETATM   18  C   UNL     1     -46.559  59.391 -59.329  1.00  0.00     0.012 A 
HETATM   19  O   UNL     1     -48.259  57.249 -61.787  1.00  0.00    -0.382 OA
HETATM   20  C   UNL     1     -45.643  58.980 -58.355  1.00  0.00     0.030 A 
ENDBRANCH   9  12
ENDBRANCH   7   8
BRANCH   5  21
HETATM   21  C   UNL     1     -40.924  54.276 -53.930  1.00  0.00     0.013 A 
HETATM   22  C   UNL     1     -40.784  54.224 -52.532  1.00  0.00     0.052 A 
HETATM   23  C   UNL     1     -40.259  53.086 -51.909  1.00  0.00     0.069 A 
HETATM   24  C   UNL     1     -39.881  51.991 -52.688  1.00  0.00     0.037 A 
HETATM   25  C   UNL     1     -40.004  52.033 -54.075  1.00  0.00     0.004 A 
HETATM   26  C   UNL     1     -40.517  53.173 -54.692  1.00  0.00     0.015 A 
BRANCH  23  27
HETATM   27  O   UNL     1     -40.072  52.920 -50.564  1.00  0.00    -0.356 OA
HETATM   28  C   UNL     1     -39.778  54.085 -49.802  1.00  0.00     0.210 C 
ENDBRANCH  23  27
ENDBRANCH   5  21
TORSDOF 4
ENDMDL
MODEL 5
REMARK VINA RESULT:      -7.7      1.652      9.238
REMARK  4 active torsions:
REMARK  status: ('A' for Active; 'I' for Inactive)
REMARK    1  A    between atoms: C_5  and  C_6 
REMARK    2  A    between atoms: C_8  and  O_9 
REMARK    3  A    between atoms: C_15  and  C_16 
REMARK       I    between atoms: C_16  and  N_17 
REMARK    4  A    between atoms: N_17  and  C_18 
ROOT
HETATM    1  C   UNL     1     -44.553  57.572 -53.481  1.00  0.00     0.071 C 
HETATM    2  C   UNL     1     -43.592  56.600 -54.050  1.00  0.00     0.041 A 
HETATM    3  N   UNL     1     -42.987  55.621 -53.307  1.00  0.00    -0.342 N 
HETATM    4  H   UNL     1     -43.140  55.445 -52.324  1.00  0.00     0.167 HD
HETATM    5  C   UNL     1     -42.142  54.900 -54.121  1.00  0.00     0.139 A 
HETATM    6  N   UNL     1     -42.226  55.349 -55.361  1.00  0.00    -0.223 NA
HETATM    7  C   UNL     1     -43.100  56.431 -55.331  1.00  0.00     0.149 A 
ENDROOT
BRANCH   7   8
HETATM    8  C   UNL     1     -43.404  57.235 -56.523  1.00  0.00     0.276 C 
HETATM    9  N   UNL     1     -42.250  57.743 -57.083  1.00  0.00    -0.322 N 
HETATM   10  H   UNL     1     -41.401  57.443 -56.609  1.00  0.00     0.169 HD
HETATM   11  O   UNL     1     -44.551  57.397 -56.926  1.00  0.00    -0.266 OA
BRANCH   9  12
HETATM   12  C   UNL     1     -42.121  58.600 -58.189  1.00  0.00     0.035 A 
HETATM   13  C   UNL     1     -41.931  59.981 -58.076  1.00  0.00     0.039 A 
HETATM   14  C   UNL     1     -41.790  60.731 -59.235  1.00  0.00    -0.024 A 
HETATM   15  C   UNL     1     -41.849  60.145 -60.488  1.00  0.00    -0.026 A 
HETATM   16  C   UNL     1     -41.580  62.192 -59.383  1.00  0.00     0.207 C 
HETATM   17  C   UNL     1     -41.695  61.193 -61.527  1.00  0.00     0.207 C 
HETATM   18  C   UNL     1     -42.047  58.784 -60.628  1.00  0.00     0.012 A 
HETATM   19  O   UNL     1     -41.327  62.386 -60.796  1.00  0.00    -0.382 OA
HETATM   20  C   UNL     1     -42.174  58.011 -59.469  1.00  0.00     0.030 A 
ENDBRANCH   9  12
ENDBRANCH   7   8
BRANCH   5  21
HETATM   21  C   UNL     1     -41.306  53.791 -53.655  1.00  0.00     0.013 A 
HETATM   22  C   UNL     1     -41.100  53.542 -52.286  1.00  0.00     0.052 A 
HETATM   23  C   UNL     1     -40.292  52.480 -51.867  1.00  0.00     0.069 A 
HETATM   24  C   UNL     1     -39.693  51.656 -52.822  1.00  0.00     0.037 A 
HETATM   25  C   UNL     1     -39.879  51.897 -54.182  1.00  0.00     0.004 A 
HETATM   26  C   UNL     1     -40.677  52.963 -54.594  1.00  0.00     0.015 A 
BRANCH  23  27
HETATM   27  O   UNL     1     -40.016  52.143 -50.570  1.00  0.00    -0.356 OA
HETATM   28  C   UNL     1     -40.318  50.813 -50.168  1.00  0.00     0.210 C 
ENDBRANCH  23  27
ENDBRANCH   5  21
TORSDOF 4
ENDMDL
MODEL 6
REMARK VINA RESULT:      -7.6     15.197     17.032
REMARK  4 active torsions:
REMARK  status: ('A' for Active; 'I' for Inactive)
REMARK    1  A    between atoms: C_5  and  C_6 
REMARK    2  A    between atoms: C_8  and  O_9 
REMARK    3  A    between atoms: C_15  and  C_16 
REMARK       I    between atoms: C_16  and  N_17 
REMARK    4  A    between atoms: N_17  and  C_18 
ROOT
HETATM    1  C   UNL     1     -38.949  41.170 -52.735  1.00  0.00     0.071 C 
HETATM    2  C   UNL     1     -38.032  41.239 -53.895  1.00  0.00     0.041 A 
HETATM    3  N   UNL     1     -38.455  41.130 -55.194  1.00  0.00    -0.342 N 
HETATM    4  H   UNL     1     -39.411  41.014 -55.497  1.00  0.00     0.167 HD
HETATM    5  C   UNL     1     -37.363  41.217 -56.028  1.00  0.00     0.139 A 
HETATM    6  N   UNL     1     -36.272  41.430 -55.314  1.00  0.00    -0.223 NA
HETATM    7  C   UNL     1     -36.663  41.414 -53.980  1.00  0.00     0.149 A 
ENDROOT
BRANCH   7   8
HETATM    8  C   UNL     1     -35.706  41.560 -52.873  1.00  0.00     0.276 C 
HETATM    9  N   UNL     1     -35.178  40.337 -52.513  1.00  0.00    -0.322 N 
HETATM   10  H   UNL     1     -35.503  39.567 -53.093  1.00  0.00     0.169 HD
HETATM   11  O   UNL     1     -35.446  42.649 -52.375  1.00  0.00    -0.266 OA
BRANCH   9  12
HETATM   12  C   UNL     1     -34.282  40.047 -51.470  1.00  0.00     0.035 A 
HETATM   13  C   UNL     1     -34.640  39.335 -50.322  1.00  0.00     0.039 A 
HETATM   14  C   UNL     1     -33.667  39.082 -49.365  1.00  0.00    -0.024 A 
HETATM   15  C   UNL     1     -32.366  39.531 -49.519  1.00  0.00    -0.026 A 
HETATM   16  C   UNL     1     -33.789  38.357 -48.076  1.00  0.00     0.207 C 
HETATM   17  C   UNL     1     -31.568  39.137 -48.332  1.00  0.00     0.207 C 
HETATM   18  C   UNL     1     -31.989  40.246 -50.640  1.00  0.00     0.012 A 
HETATM   19  O   UNL     1     -32.431  38.247 -47.585  1.00  0.00    -0.382 OA
HETATM   20  C   UNL     1     -32.954  40.495 -51.621  1.00  0.00     0.030 A 
ENDBRANCH   9  12
ENDBRANCH   7   8
BRANCH   5  21
HETATM   21  C   UNL     1     -37.438  41.110 -57.487  1.00  0.00     0.013 A 
HETATM   22  C   UNL     1     -37.834  39.921 -58.124  1.00  0.00     0.052 A 
HETATM   23  C   UNL     1     -37.891  39.843 -59.520  1.00  0.00     0.069 A 
HETATM   24  C   UNL     1     -37.559  40.964 -60.283  1.00  0.00     0.037 A 
HETATM   25  C   UNL     1     -37.154  42.146 -59.667  1.00  0.00     0.004 A 
HETATM   26  C   UNL     1     -37.089  42.215 -58.276  1.00  0.00     0.015 A 
BRANCH  23  27
HETATM   27  O   UNL     1     -38.256  38.745 -60.249  1.00  0.00    -0.356 OA
HETATM   28  C   UNL     1     -39.185  37.849 -59.652  1.00  0.00     0.210 C 
ENDBRANCH  23  27
ENDBRANCH   5  21
TORSDOF 4
ENDMDL
MODEL 7
REMARK VINA RESULT:      -7.5      4.079      6.852
REMARK  4 active torsions:
REMARK  status: ('A' for Active; 'I' for Inactive)
REMARK    1  A    between atoms: C_5  and  C_6 
REMARK    2  A    between atoms: C_8  and  O_9 
REMARK    3  A    between atoms: C_15  and  C_16 
REMARK       I    between atoms: C_16  and  N_17 
REMARK    4  A    between atoms: N_17  and  C_18 
ROOT
HETATM    1  C   UNL     1     -44.815  57.467 -54.202  1.00  0.00     0.071 C 
HETATM    2  C   UNL     1     -44.207  58.166 -53.048  1.00  0.00     0.041 A 
HETATM    3  N   UNL     1     -44.841  59.165 -52.356  1.00  0.00    -0.342 N 
HETATM    4  H   UNL     1     -45.773  59.510 -52.538  1.00  0.00     0.167 HD
HETATM    5  C   UNL     1     -44.007  59.617 -51.358  1.00  0.00     0.139 A 
HETATM    6  N   UNL     1     -42.891  58.910 -51.355  1.00  0.00    -0.223 NA
HETATM    7  C   UNL     1     -42.982  58.023 -52.423  1.00  0.00     0.149 A 
ENDROOT
BRANCH   7   8
HETATM    8  C   UNL     1     -41.894  57.101 -52.779  1.00  0.00     0.276 C 
HETATM    9  N   UNL     1     -42.323  55.790 -52.732  1.00  0.00    -0.322 N 
HETATM   10  H   UNL     1     -43.310  55.692 -52.504  1.00  0.00     0.169 HD
HETATM   11  O   UNL     1     -40.773  57.498 -53.076  1.00  0.00    -0.266 OA
BRANCH   9  12
HETATM   12  C   UNL     1     -41.576  54.619 -52.946  1.00  0.00     0.035 A 
HETATM   13  C   UNL     1     -41.070  53.827 -51.912  1.00  0.00     0.039 A 
HETATM   14  C   UNL     1     -40.367  52.676 -52.237  1.00  0.00    -0.024 A 
HETATM   15  C   UNL     1     -40.146  52.311 -53.554  1.00  0.00    -0.026 A 
HETATM   16  C   UNL     1     -39.738  51.678 -51.337  1.00  0.00     0.207 C 
HETATM   17  C   UNL     1     -39.348  51.061 -53.589  1.00  0.00     0.207 C 
HETATM   18  C   UNL     1     -40.626  53.082 -54.597  1.00  0.00     0.012 A 
HETATM   19  O   UNL     1     -39.306  50.611 -52.215  1.00  0.00    -0.382 OA
HETATM   20  C   UNL     1     -41.351  54.237 -54.284  1.00  0.00     0.030 A 
ENDBRANCH   9  12
ENDBRANCH   7   8
BRANCH   5  21
HETATM   21  C   UNL     1     -44.347  60.705 -50.438  1.00  0.00     0.013 A 
HETATM   22  C   UNL     1     -45.492  60.656 -49.623  1.00  0.00     0.052 A 
HETATM   23  C   UNL     1     -45.797  61.712 -48.758  1.00  0.00     0.069 A 
HETATM   24  C   UNL     1     -44.949  62.820 -48.700  1.00  0.00     0.037 A 
HETATM   25  C   UNL     1     -43.818  62.887 -49.511  1.00  0.00     0.004 A 
HETATM   26  C   UNL     1     -43.523  61.837 -50.379  1.00  0.00     0.015 A 
BRANCH  23  27
HETATM   27  O   UNL     1     -46.880  61.780 -47.923  1.00  0.00    -0.356 OA
HETATM   28  C   UNL     1     -46.619  61.823 -46.526  1.00  0.00     0.210 C 
ENDBRANCH  23  27
ENDBRANCH   5  21
TORSDOF 4
ENDMDL
MODEL 8
REMARK VINA RESULT:      -7.5      1.940      9.228
REMARK  4 active torsions:
REMARK  status: ('A' for Active; 'I' for Inactive)
REMARK    1  A    between atoms: C_5  and  C_6 
REMARK    2  A    between atoms: C_8  and  O_9 
REMARK    3  A    between atoms: C_15  and  C_16 
REMARK       I    between atoms: C_16  and  N_17 
REMARK    4  A    between atoms: N_17  and  C_18 
ROOT
HETATM    1  C   UNL     1     -42.243  57.699 -50.992  1.00  0.00     0.071 C 
HETATM    2  C   UNL     1     -41.655  56.824 -52.031  1.00  0.00     0.041 A 
HETATM    3  N   UNL     1     -41.449  55.480 -51.852  1.00  0.00    -0.342 N 
HETATM    4  H   UNL     1     -41.688  54.950 -51.026  1.00  0.00     0.167 HD
HETATM    5  C   UNL     1     -40.875  54.961 -52.991  1.00  0.00     0.139 A 
HETATM    6  N   UNL     1     -40.756  55.910 -53.903  1.00  0.00    -0.223 NA
HETATM    7  C   UNL     1     -41.206  57.085 -53.312  1.00  0.00     0.149 A 
ENDROOT
BRANCH   7   8
HETATM    8  C   UNL     1     -41.173  58.381 -54.005  1.00  0.00     0.276 C 
HETATM    9  N   UNL     1     -42.034  58.386 -55.084  1.00  0.00    -0.322 N 
HETATM   10  H   UNL     1     -42.563  57.523 -55.186  1.00  0.00     0.169 HD
HETATM   11  O   UNL     1     -40.460  59.304 -53.629  1.00  0.00    -0.266 OA
BRANCH   9  12
HETATM   12  C   UNL     1     -42.246  59.406 -56.026  1.00  0.00     0.035 A 
HETATM   13  C   UNL     1     -41.941  59.278 -57.384  1.00  0.00     0.039 A 
HETATM   14  C   UNL     1     -42.217  60.341 -58.232  1.00  0.00    -0.024 A 
HETATM   15  C   UNL     1     -42.766  61.520 -57.759  1.00  0.00    -0.026 A 
HETATM   16  C   UNL     1     -41.992  60.453 -59.695  1.00  0.00     0.207 C 
HETATM   17  C   UNL     1     -42.919  62.476 -58.884  1.00  0.00     0.207 C 
HETATM   18  C   UNL     1     -43.066  61.678 -56.419  1.00  0.00     0.012 A 
HETATM   19  O   UNL     1     -42.626  61.700 -60.070  1.00  0.00    -0.382 OA
HETATM   20  C   UNL     1     -42.810  60.609 -55.554  1.00  0.00     0.030 A 
ENDBRANCH   9  12
ENDBRANCH   7   8
BRANCH   5  21
HETATM   21  C   UNL     1     -40.488  53.557 -53.144  1.00  0.00     0.013 A 
HETATM   22  C   UNL     1     -40.074  52.778 -52.048  1.00  0.00     0.052 A 
HETATM   23  C   UNL     1     -39.704  51.440 -52.223  1.00  0.00     0.069 A 
HETATM   24  C   UNL     1     -39.755  50.875 -53.498  1.00  0.00     0.037 A 
HETATM   25  C   UNL     1     -40.151  51.637 -54.595  1.00  0.00     0.004 A 
HETATM   26  C   UNL     1     -40.510  52.973 -54.418  1.00  0.00     0.015 A 
BRANCH  23  27
HETATM   27  O   UNL     1     -39.283  50.588 -51.239  1.00  0.00    -0.356 OA
HETATM   28  C   UNL     1     -40.203  50.299 -50.194  1.00  0.00     0.210 C 
ENDBRANCH  23  27
ENDBRANCH   5  21
TORSDOF 4
ENDMDL
MODEL 9
REMARK VINA RESULT:      -7.5      2.970      4.672
REMARK  4 active torsions:
REMARK  status: ('A' for Active; 'I' for Inactive)
REMARK    1  A    between atoms: C_5  and  C_6 
REMARK    2  A    between atoms: C_8  and  O_9 
REMARK    3  A    between atoms: C_15  and  C_16 
REMARK       I    between atoms: C_16  and  N_17 
REMARK    4  A    between atoms: N_17  and  C_18 
ROOT
HETATM    1  C   UNL     1     -42.107  56.763 -55.944  1.00  0.00     0.071 C 
HETATM    2  C   UNL     1     -42.391  57.295 -54.592  1.00  0.00     0.041 A 
HETATM    3  N   UNL     1     -42.528  58.632 -54.325  1.00  0.00    -0.342 N 
HETATM    4  H   UNL     1     -42.475  59.379 -55.003  1.00  0.00     0.167 HD
HETATM    5  C   UNL     1     -42.768  58.796 -52.979  1.00  0.00     0.139 A 
HETATM    6  N   UNL     1     -42.839  57.615 -52.391  1.00  0.00    -0.223 NA
HETATM    7  C   UNL     1     -42.574  56.667 -53.373  1.00  0.00     0.149 A 
ENDROOT
BRANCH   7   8
HETATM    8  C   UNL     1     -42.507  55.228 -53.085  1.00  0.00     0.276 C 
HETATM    9  N   UNL     1     -41.205  54.773 -53.144  1.00  0.00    -0.322 N 
HETATM   10  H   UNL     1     -40.525  55.507 -53.330  1.00  0.00     0.169 HD
HETATM   11  O   UNL     1     -43.506  54.566 -52.829  1.00  0.00    -0.266 OA
BRANCH   9  12
HETATM   12  C   UNL     1     -40.732  53.459 -52.990  1.00  0.00     0.035 A 
HETATM   13  C   UNL     1     -40.702  52.523 -54.027  1.00  0.00     0.039 A 
HETATM   14  C   UNL     1     -40.189  51.260 -53.770  1.00  0.00    -0.024 A 
HETATM   15  C   UNL     1     -39.728  50.908 -52.513  1.00  0.00    -0.026 A 
HETATM   16  C   UNL     1     -40.047  50.103 -54.689  1.00  0.00     0.207 C 
HETATM   17  C   UNL     1     -39.271  49.497 -52.536  1.00  0.00     0.207 C 
HETATM   18  C   UNL     1     -39.757  51.810 -51.466  1.00  0.00     0.012 A 
HETATM   19  O   UNL     1     -39.295  49.123 -53.934  1.00  0.00    -0.382 OA
HETATM   20  C   UNL     1     -40.255  53.094 -51.714  1.00  0.00     0.030 A 
ENDBRANCH   9  12
ENDBRANCH   7   8
BRANCH   5  21
HETATM   21  C   UNL     1     -42.937  60.100 -52.332  1.00  0.00     0.013 A 
HETATM   22  C   UNL     1     -43.623  61.155 -52.959  1.00  0.00     0.052 A 
HETATM   23  C   UNL     1     -43.765  62.392 -52.321  1.00  0.00     0.069 A 
HETATM   24  C   UNL     1     -43.226  62.573 -51.046  1.00  0.00     0.037 A 
HETATM   25  C   UNL     1     -42.534  61.540 -50.417  1.00  0.00     0.004 A 
HETATM   26  C   UNL     1     -42.386  60.312 -51.061  1.00  0.00     0.015 A 
BRANCH  23  27
HETATM   27  O   UNL     1     -44.405  63.490 -52.830  1.00  0.00    -0.356 OA
HETATM   28  C   UNL     1     -45.176  63.302 -54.010  1.00  0.00     0.210 C 
ENDBRANCH  23  27
ENDBRANCH   5  21
TORSDOF 4
ENDMDL
MODEL 10
REMARK VINA RESULT:      -7.3      2.581      8.684
REMARK  4 active torsions:
REMARK  status: ('A' for Active; 'I' for Inactive)
REMARK    1  A    between atoms: C_5  and  C_6 
REMARK    2  A    between atoms: C_8  and  O_9 
REMARK    3  A    between atoms: C_15  and  C_16 
REMARK       I    between atoms: C_16  and  N_17 
REMARK    4  A    between atoms: N_17  and  C_18 
ROOT
HETATM    1  C   UNL     1     -41.702  59.791 -51.528  1.00  0.00     0.071 C 
HETATM    2  C   UNL     1     -41.750  58.318 -51.662  1.00  0.00     0.041 A 
HETATM    3  N   UNL     1     -41.318  57.461 -50.683  1.00  0.00    -0.342 N 
HETATM    4  H   UNL     1     -40.951  57.730 -49.782  1.00  0.00     0.167 HD
HETATM    5  C   UNL     1     -41.480  56.166 -51.121  1.00  0.00     0.139 A 
HETATM    6  N   UNL     1     -42.045  56.165 -52.316  1.00  0.00    -0.223 NA
HETATM    7  C   UNL     1     -42.191  57.498 -52.685  1.00  0.00     0.149 A 
ENDROOT
BRANCH   7   8
HETATM    8  C   UNL     1     -42.735  57.903 -53.989  1.00  0.00     0.276 C 
HETATM    9  N   UNL     1     -42.212  57.127 -55.003  1.00  0.00    -0.322 N 
HETATM   10  H   UNL     1     -41.586  56.396 -54.676  1.00  0.00     0.169 HD
HETATM   11  O   UNL     1     -43.547  58.814 -54.103  1.00  0.00    -0.266 OA
BRANCH   9  12
HETATM   12  C   UNL     1     -42.433  57.236 -56.387  1.00  0.00     0.035 A 
HETATM   13  C   UNL     1     -42.869  56.174 -57.184  1.00  0.00     0.039 A 
HETATM   14  C   UNL     1     -43.082  56.400 -58.536  1.00  0.00    -0.024 A 
HETATM   15  C   UNL     1     -42.855  57.641 -59.107  1.00  0.00    -0.026 A 
HETATM   16  C   UNL     1     -43.539  55.452 -59.582  1.00  0.00     0.207 C 
HETATM   17  C   UNL     1     -43.139  57.570 -60.562  1.00  0.00     0.207 C 
HETATM   18  C   UNL     1     -42.413  58.705 -58.344  1.00  0.00     0.012 A 
HETATM   19  O   UNL     1     -43.749  56.273 -60.757  1.00  0.00    -0.382 OA
HETATM   20  C   UNL     1     -42.211  58.498 -56.976  1.00  0.00     0.030 A 
ENDBRANCH   9  12
ENDBRANCH   7   8
BRANCH   5  21
HETATM   21  C   UNL     1     -41.094  54.985 -50.343  1.00  0.00     0.013 A 
HETATM   22  C   UNL     1     -40.731  53.776 -50.962  1.00  0.00     0.052 A 
HETATM   23  C   UNL     1     -40.373  52.662 -50.195  1.00  0.00     0.069 A 
HETATM   24  C   UNL     1     -40.370  52.760 -48.802  1.00  0.00     0.037 A 
HETATM   25  C   UNL     1     -40.739  53.948 -48.175  1.00  0.00     0.004 A 
HETATM   26  C   UNL     1     -41.105  55.052 -48.943  1.00  0.00     0.015 A 
BRANCH  23  27
HETATM   27  O   UNL     1     -40.006  51.436 -50.681  1.00  0.00    -0.356 OA
HETATM   28  C   UNL     1     -39.549  51.383 -52.026  1.00  0.00     0.210 C 
ENDBRANCH  23  27
ENDBRANCH   5  21
TORSDOF 4
ENDMDL
