MODEL 1
REMARK VINA RESULT:      -8.7      0.000      0.000
REMARK  5 active torsions:
REMARK  status: ('A' for Active; 'I' for Inactive)
REMARK    1  A    between atoms: C_2  and  C_3 
REMARK    2  A    between atoms: C_6  and  C_7 
REMARK    3  A    between atoms: C_7  and  C_8 
REMARK       I    between atoms: C_8  and  N_9 
REMARK    4  A    between atoms: N_9  and  C_10 
REMARK    5  A    between atoms: C_12  and  C_13 
ROOT
HETATM    1  C   UNL     1     -42.489  56.161 -55.751  1.00  0.00     0.226 C 
HETATM    2  N   UNL     1     -41.283  55.680 -55.257  1.00  0.00    -0.327 N 
HETATM    3  O   UNL     1     -43.598  55.972 -55.259  1.00  0.00    -0.273 OA
HETATM    4  H   UNL     1     -40.464  55.847 -55.828  1.00  0.00     0.169 HD
ENDROOT
BRANCH   1   5
HETATM    5  C   UNL     1     -42.307  57.017 -56.997  1.00  0.00     0.144 C 
BRANCH   5   6
HETATM    6  C   UNL     1     -43.579  57.280 -57.738  1.00  0.00    -0.021 A 
HETATM    7  C   UNL     1     -44.178  56.487 -58.774  1.00  0.00    -0.001 A 
HETATM    8  C   UNL     1     -45.306  57.174 -59.233  1.00  0.00     0.049 A 
HETATM    9  C   UNL     1     -43.858  55.255 -59.378  1.00  0.00     0.014 A 
HETATM   10  C   UNL     1     -46.125  56.711 -60.283  1.00  0.00    -0.031 A 
HETATM   11  N   UNL     1     -45.411  58.317 -58.473  1.00  0.00    -0.364 N 
HETATM   12  C   UNL     1     -45.774  55.471 -60.846  1.00  0.00     0.009 A 
HETATM   13  C   UNL     1     -44.666  54.754 -60.403  1.00  0.00     0.002 A 
HETATM   14  C   UNL     1     -44.379  58.396 -57.582  1.00  0.00     0.097 A 
HETATM   15  H   UNL     1     -46.146  59.002 -58.573  1.00  0.00     0.165 HD
BRANCH  10  16
HETATM   16  C   UNL     1     -47.327  57.461 -60.800  1.00  0.00     0.036 C 
HETATM   17  C   UNL     1     -48.060  56.688 -61.885  1.00  0.00     0.010 C 
ENDBRANCH  10  16
ENDBRANCH   5   6
ENDBRANCH   1   5
BRANCH   2  18
HETATM   18  C   UNL     1     -41.064  54.947 -54.074  1.00  0.00     0.035 A 
HETATM   19  C   UNL     1     -40.679  53.604 -54.218  1.00  0.00     0.042 A 
HETATM   20  C   UNL     1     -40.417  52.797 -53.099  1.00  0.00    -0.021 A 
HETATM   21  C   UNL     1     -40.538  53.355 -51.822  1.00  0.00     0.012 A 
HETATM   22  C   UNL     1     -40.920  54.689 -51.671  1.00  0.00     0.003 A 
HETATM   23  C   UNL     1     -41.184  55.480 -52.791  1.00  0.00     0.029 A 
BRANCH  20  24
HETATM   24  C   UNL     1     -40.041  51.405 -53.280  1.00  0.00     0.010 A 
HETATM   25  C   UNL     1     -40.036  50.592 -54.439  1.00  0.00     0.152 A 
HETATM   26  N   UNL     1     -39.600  49.353 -54.200  1.00  0.00    -0.187 NA
HETATM   27  N   UNL     1     -39.327  49.364 -52.886  1.00  0.00    -0.289 N 
HETATM   28  H   UNL     1     -38.973  48.514 -52.460  1.00  0.00     0.188 HD
HETATM   29  C   UNL     1     -39.572  50.569 -52.291  1.00  0.00     0.123 A 
ENDBRANCH  20  24
ENDBRANCH   2  18
TORSDOF 5
ENDMDL
MODEL 2
REMARK VINA RESULT:      -8.6      1.986      2.877
REMARK  5 active torsions:
REMARK  status: ('A' for Active; 'I' for Inactive)
REMARK    1  A    between atoms: C_2  and  C_3 
REMARK    2  A    between atoms: C_6  and  C_7 
REMARK    3  A    between atoms: C_7  and  C_8 
REMARK       I    between atoms: C_8  and  N_9 
REMARK    4  A    between atoms: N_9  and  C_10 
REMARK    5  A    between atoms: C_12  and  C_13 
ROOT
HETATM    1  C   UNL     1     -42.299  56.001 -55.517  1.00  0.00     0.226 C 
HETATM    2  N   UNL     1     -41.035  55.486 -55.254  1.00  0.00    -0.327 N 
HETATM    3  O   UNL     1     -43.359  55.585 -55.057  1.00  0.00    -0.273 OA
HETATM    4  H   UNL     1     -40.269  55.883 -55.782  1.00  0.00     0.169 HD
ENDROOT
BRANCH   1   5
HETATM    5  C   UNL     1     -42.254  57.210 -56.442  1.00  0.00     0.144 C 
BRANCH   5   6
HETATM    6  C   UNL     1     -43.502  57.403 -57.243  1.00  0.00    -0.021 A 
HETATM    7  C   UNL     1     -43.974  56.616 -58.347  1.00  0.00    -0.001 A 
HETATM    8  C   UNL     1     -45.131  57.229 -58.838  1.00  0.00     0.049 A 
HETATM    9  C   UNL     1     -43.517  55.448 -58.987  1.00  0.00     0.014 A 
HETATM   10  C   UNL     1     -45.849  56.753 -59.954  1.00  0.00    -0.031 A 
HETATM   11  N   UNL     1     -45.375  58.319 -58.034  1.00  0.00    -0.364 N 
HETATM   12  C   UNL     1     -45.363  55.578 -60.552  1.00  0.00     0.009 A 
HETATM   13  C   UNL     1     -44.222  54.935 -60.080  1.00  0.00     0.002 A 
HETATM   14  C   UNL     1     -44.402  58.439 -57.081  1.00  0.00     0.097 A 
HETATM   15  H   UNL     1     -46.160  58.944 -58.143  1.00  0.00     0.165 HD
BRANCH  10  16
HETATM   16  C   UNL     1     -47.082  57.426 -60.504  1.00  0.00     0.036 C 
HETATM   17  C   UNL     1     -47.772  56.577 -61.561  1.00  0.00     0.010 C 
ENDBRANCH  10  16
ENDBRANCH   5   6
ENDBRANCH   1   5
BRANCH   2  18
HETATM   18  C   UNL     1     -40.693  54.444 -54.369  1.00  0.00     0.035 A 
HETATM   19  C   UNL     1     -40.869  54.690 -52.998  1.00  0.00     0.042 A 
HETATM   20  C   UNL     1     -40.577  53.708 -52.038  1.00  0.00    -0.021 A 
HETATM   21  C   UNL     1     -40.109  52.463 -52.469  1.00  0.00     0.012 A 
HETATM   22  C   UNL     1     -39.932  52.210 -53.831  1.00  0.00     0.003 A 
HETATM   23  C   UNL     1     -40.220  53.198 -54.776  1.00  0.00     0.029 A 
BRANCH  20  24
HETATM   24  C   UNL     1     -40.749  54.000 -50.625  1.00  0.00     0.010 A 
HETATM   25  C   UNL     1     -40.586  53.177 -49.485  1.00  0.00     0.152 A 
HETATM   26  N   UNL     1     -40.822  53.825 -48.341  1.00  0.00    -0.187 NA
HETATM   27  N   UNL     1     -41.141  55.066 -48.743  1.00  0.00    -0.289 N 
HETATM   28  H   UNL     1     -41.367  55.757 -48.036  1.00  0.00     0.188 HD
HETATM   29  C   UNL     1     -41.109  55.222 -50.099  1.00  0.00     0.123 A 
ENDBRANCH  20  24
ENDBRANCH   2  18
TORSDOF 5
ENDMDL
MODEL 3
REMARK VINA RESULT:      -8.6      3.052      8.463
REMARK  5 active torsions:
REMARK  status: ('A' for Active; 'I' for Inactive)
REMARK    1  A    between atoms: C_2  and  C_3 
REMARK    2  A    between atoms: C_6  and  C_7 
REMARK    3  A    between atoms: C_7  and  C_8 
REMARK       I    between atoms: C_8  and  N_9 
REMARK    4  A    between atoms: N_9  and  C_10 
REMARK    5  A    between atoms: C_12  and  C_13 
ROOT
HETATM    1  C   UNL     1     -42.716  55.823 -50.557  1.00  0.00     0.226 C 
HETATM    2  N   UNL     1     -42.541  57.082 -51.116  1.00  0.00    -0.327 N 
HETATM    3  O   UNL     1     -43.741  55.148 -50.602  1.00  0.00    -0.273 OA
HETATM    4  H   UNL     1     -41.665  57.547 -50.914  1.00  0.00     0.169 HD
ENDROOT
BRANCH   1   5
HETATM    5  C   UNL     1     -41.454  55.308 -49.878  1.00  0.00     0.144 C 
BRANCH   5   6
HETATM    6  C   UNL     1     -40.879  54.087 -50.522  1.00  0.00    -0.021 A 
HETATM    7  C   UNL     1     -40.712  53.824 -51.924  1.00  0.00    -0.001 A 
HETATM    8  C   UNL     1     -40.223  52.520 -52.053  1.00  0.00     0.049 A 
HETATM    9  C   UNL     1     -40.948  54.565 -53.098  1.00  0.00     0.014 A 
HETATM   10  C   UNL     1     -39.976  51.901 -53.296  1.00  0.00    -0.031 A 
HETATM   11  N   UNL     1     -40.057  52.030 -50.778  1.00  0.00    -0.364 N 
HETATM   12  C   UNL     1     -40.214  52.685 -54.439  1.00  0.00     0.009 A 
HETATM   13  C   UNL     1     -40.688  53.991 -54.345  1.00  0.00     0.002 A 
HETATM   14  C   UNL     1     -40.454  52.955 -49.854  1.00  0.00     0.097 A 
HETATM   15  H   UNL     1     -39.700  51.111 -50.562  1.00  0.00     0.165 HD
BRANCH  10  16
HETATM   16  C   UNL     1     -39.475  50.487 -53.442  1.00  0.00     0.036 C 
HETATM   17  C   UNL     1     -39.896  49.865 -54.764  1.00  0.00     0.010 C 
ENDBRANCH  10  16
ENDBRANCH   5   6
ENDBRANCH   1   5
BRANCH   2  18
HETATM   18  C   UNL     1     -43.454  57.814 -51.901  1.00  0.00     0.035 A 
HETATM   19  C   UNL     1     -43.515  57.499 -53.268  1.00  0.00     0.042 A 
HETATM   20  C   UNL     1     -44.408  58.158 -54.129  1.00  0.00    -0.021 A 
HETATM   21  C   UNL     1     -45.253  59.139 -53.601  1.00  0.00     0.012 A 
HETATM   22  C   UNL     1     -45.199  59.458 -52.243  1.00  0.00     0.003 A 
HETATM   23  C   UNL     1     -44.302  58.800 -51.398  1.00  0.00     0.029 A 
BRANCH  20  24
HETATM   24  C   UNL     1     -44.432  57.825 -55.543  1.00  0.00     0.010 A 
HETATM   25  C   UNL     1     -45.162  58.393 -56.614  1.00  0.00     0.152 A 
HETATM   26  N   UNL     1     -44.893  57.815 -57.788  1.00  0.00    -0.187 NA
HETATM   27  N   UNL     1     -43.992  56.870 -57.474  1.00  0.00    -0.289 N 
HETATM   28  H   UNL     1     -43.629  56.286 -58.219  1.00  0.00     0.188 HD
HETATM   29  C   UNL     1     -43.681  56.838 -56.145  1.00  0.00     0.123 A 
ENDBRANCH  20  24
ENDBRANCH   2  18
TORSDOF 5
ENDMDL
MODEL 4
REMARK VINA RESULT:      -8.4      2.702      8.139
REMARK  5 active torsions:
REMARK  status: ('A' for Active; 'I' for Inactive)
REMARK    1  A    between atoms: C_2  and  C_3 
REMARK    2  A    between atoms: C_6  and  C_7 
REMARK    3  A    between atoms: C_7  and  C_8 
REMARK       I    between atoms: C_8  and  N_9 
REMARK    4  A    between atoms: N_9  and  C_10 
REMARK    5  A    between atoms: C_12  and  C_13 
ROOT
HETATM    1  C   UNL     1     -42.769  56.942 -52.546  1.00  0.00     0.226 C 
HETATM    2  N   UNL     1     -42.254  57.845 -53.469  1.00  0.00    -0.327 N 
HETATM    3  O   UNL     1     -43.895  56.454 -52.563  1.00  0.00    -0.273 OA
HETATM    4  H   UNL     1     -41.338  58.224 -53.265  1.00  0.00     0.169 HD
ENDROOT
BRANCH   1   5
HETATM    5  C   UNL     1     -41.753  56.561 -51.477  1.00  0.00     0.144 C 
BRANCH   5   6
HETATM    6  C   UNL     1     -41.224  55.169 -51.618  1.00  0.00    -0.021 A 
HETATM    7  C   UNL     1     -40.804  54.501 -52.818  1.00  0.00    -0.001 A 
HETATM    8  C   UNL     1     -40.478  53.186 -52.476  1.00  0.00     0.049 A 
HETATM    9  C   UNL     1     -40.687  54.887 -54.168  1.00  0.00     0.014 A 
HETATM   10  C   UNL     1     -40.061  52.218 -53.414  1.00  0.00    -0.031 A 
HETATM   11  N   UNL     1     -40.649  53.074 -51.115  1.00  0.00    -0.364 N 
HETATM   12  C   UNL     1     -39.947  52.653 -54.747  1.00  0.00     0.009 A 
HETATM   13  C   UNL     1     -40.251  53.960 -55.119  1.00  0.00     0.002 A 
HETATM   14  C   UNL     1     -41.104  54.252 -50.592  1.00  0.00     0.097 A 
HETATM   15  H   UNL     1     -40.471  52.234 -50.585  1.00  0.00     0.165 HD
BRANCH  10  16
HETATM   16  C   UNL     1     -39.733  50.791 -53.055  1.00  0.00     0.036 C 
HETATM   17  C   UNL     1     -39.579  49.913 -54.287  1.00  0.00     0.010 C 
ENDBRANCH  10  16
ENDBRANCH   5   6
ENDBRANCH   1   5
BRANCH   2  18
HETATM   18  C   UNL     1     -42.872  58.333 -54.638  1.00  0.00     0.035 A 
HETATM   19  C   UNL     1     -42.480  57.753 -55.855  1.00  0.00     0.042 A 
HETATM   20  C   UNL     1     -43.052  58.156 -57.072  1.00  0.00    -0.021 A 
HETATM   21  C   UNL     1     -44.036  59.150 -57.057  1.00  0.00     0.012 A 
HETATM   22  C   UNL     1     -44.432  59.731 -55.851  1.00  0.00     0.003 A 
HETATM   23  C   UNL     1     -43.850  59.326 -54.648  1.00  0.00     0.029 A 
BRANCH  20  24
HETATM   24  C   UNL     1     -42.610  57.553 -58.317  1.00  0.00     0.010 A 
HETATM   25  C   UNL     1     -42.952  56.318 -58.919  1.00  0.00     0.152 A 
HETATM   26  N   UNL     1     -42.341  56.126 -60.091  1.00  0.00    -0.187 NA
HETATM   27  N   UNL     1     -41.600  57.235 -60.244  1.00  0.00    -0.289 N 
HETATM   28  H   UNL     1     -41.032  57.323 -61.080  1.00  0.00     0.188 HD
HETATM   29  C   UNL     1     -41.728  58.120 -59.212  1.00  0.00     0.123 A 
ENDBRANCH  20  24
ENDBRANCH   2  18
TORSDOF 5
ENDMDL
MODEL 5
REMARK VINA RESULT:      -8.2      1.863      8.524
REMARK  5 active torsions:
REMARK  status: ('A' for Active; 'I' for Inactive)
REMARK    1  A    between atoms: C_2  and  C_3 
REMARK    2  A    between atoms: C_6  and  C_7 
REMARK    3  A    between atoms: C_7  and  C_8 
REMARK       I    between atoms: C_8  and  N_9 
REMARK    4  A    between atoms: N_9  and  C_10 
REMARK    5  A    between atoms: C_12  and  C_13 
ROOT
HETATM    1  C   UNL     1     -42.637  56.990 -54.291  1.00  0.00     0.226 C 
HETATM    2  N   UNL     1     -42.242  57.590 -55.480  1.00  0.00    -0.327 N 
HETATM    3  O   UNL     1     -43.794  56.799 -53.927  1.00  0.00    -0.273 OA
HETATM    4  H   UNL     1     -41.250  57.757 -55.592  1.00  0.00     0.169 HD
ENDROOT
BRANCH   1   5
HETATM    5  C   UNL     1     -41.452  56.533 -53.449  1.00  0.00     0.144 C 
BRANCH   5   6
HETATM    6  C   UNL     1     -40.998  55.141 -53.754  1.00  0.00    -0.021 A 
HETATM    7  C   UNL     1     -40.656  54.101 -52.825  1.00  0.00    -0.001 A 
HETATM    8  C   UNL     1     -40.198  53.007 -53.567  1.00  0.00     0.049 A 
HETATM    9  C   UNL     1     -40.675  53.991 -51.421  1.00  0.00     0.014 A 
HETATM   10  C   UNL     1     -39.733  51.811 -52.983  1.00  0.00    -0.031 A 
HETATM   11  N   UNL     1     -40.303  53.356 -54.895  1.00  0.00    -0.364 N 
HETATM   12  C   UNL     1     -39.783  51.743 -51.580  1.00  0.00     0.009 A 
HETATM   13  C   UNL     1     -40.246  52.808 -50.812  1.00  0.00     0.002 A 
HETATM   14  C   UNL     1     -40.773  54.633 -55.019  1.00  0.00     0.097 A 
HETATM   15  H   UNL     1     -40.057  52.750 -55.664  1.00  0.00     0.165 HD
BRANCH  10  16
HETATM   16  C   UNL     1     -39.214  50.638 -53.777  1.00  0.00     0.036 C 
HETATM   17  C   UNL     1     -40.339  49.820 -54.391  1.00  0.00     0.010 C 
ENDBRANCH  10  16
ENDBRANCH   5   6
ENDBRANCH   1   5
BRANCH   2  18
HETATM   18  C   UNL     1     -43.061  58.036 -56.536  1.00  0.00     0.035 A 
HETATM   19  C   UNL     1     -43.464  57.077 -57.479  1.00  0.00     0.042 A 
HETATM   20  C   UNL     1     -44.297  57.418 -58.555  1.00  0.00    -0.021 A 
HETATM   21  C   UNL     1     -44.734  58.741 -58.677  1.00  0.00     0.012 A 
HETATM   22  C   UNL     1     -44.338  59.701 -57.744  1.00  0.00     0.003 A 
HETATM   23  C   UNL     1     -43.503  59.351 -56.681  1.00  0.00     0.029 A 
BRANCH  20  24
HETATM   24  C   UNL     1     -44.680  56.407 -59.527  1.00  0.00     0.010 A 
HETATM   25  C   UNL     1     -45.768  56.359 -60.431  1.00  0.00     0.152 A 
HETATM   26  N   UNL     1     -45.767  55.255 -61.183  1.00  0.00    -0.187 NA
HETATM   27  N   UNL     1     -44.680  54.589 -60.762  1.00  0.00    -0.289 N 
HETATM   28  H   UNL     1     -44.463  53.699 -61.196  1.00  0.00     0.188 HD
HETATM   29  C   UNL     1     -43.994  55.237 -59.775  1.00  0.00     0.123 A 
ENDBRANCH  20  24
ENDBRANCH   2  18
TORSDOF 5
ENDMDL
MODEL 6
REMARK VINA RESULT:      -8.2      1.540      2.555
REMARK  5 active torsions:
REMARK  status: ('A' for Active; 'I' for Inactive)
REMARK    1  A    between atoms: C_2  and  C_3 
REMARK    2  A    between atoms: C_6  and  C_7 
REMARK    3  A    between atoms: C_7  and  C_8 
REMARK       I    between atoms: C_8  and  N_9 
REMARK    4  A    between atoms: N_9  and  C_10 
REMARK    5  A    between atoms: C_12  and  C_13 
ROOT
HETATM    1  C   UNL     1     -42.807  56.056 -53.493  1.00  0.00     0.226 C 
HETATM    2  N   UNL     1     -41.522  55.896 -52.989  1.00  0.00    -0.327 N 
HETATM    3  O   UNL     1     -43.733  55.258 -53.378  1.00  0.00    -0.273 OA
HETATM    4  H   UNL     1     -40.846  56.604 -53.246  1.00  0.00     0.169 HD
ENDROOT
BRANCH   1   5
HETATM    5  C   UNL     1     -42.990  57.390 -54.204  1.00  0.00     0.144 C 
BRANCH   5   6
HETATM    6  C   UNL     1     -43.112  57.269 -55.690  1.00  0.00    -0.021 A 
HETATM    7  C   UNL     1     -44.247  57.582 -56.512  1.00  0.00    -0.001 A 
HETATM    8  C   UNL     1     -43.929  57.220 -57.825  1.00  0.00     0.049 A 
HETATM    9  C   UNL     1     -45.523  58.124 -56.261  1.00  0.00     0.014 A 
HETATM   10  C   UNL     1     -44.827  57.347 -58.905  1.00  0.00    -0.031 A 
HETATM   11  N   UNL     1     -42.636  56.749 -57.805  1.00  0.00    -0.364 N 
HETATM   12  C   UNL     1     -46.083  57.904 -58.608  1.00  0.00     0.009 A 
HETATM   13  C   UNL     1     -46.426  58.288 -57.315  1.00  0.00     0.002 A 
HETATM   14  C   UNL     1     -42.139  56.766 -56.533  1.00  0.00     0.097 A 
HETATM   15  H   UNL     1     -42.134  56.430 -58.621  1.00  0.00     0.165 HD
BRANCH  10  16
HETATM   16  C   UNL     1     -44.499  56.934 -60.318  1.00  0.00     0.036 C 
HETATM   17  C   UNL     1     -44.724  55.447 -60.545  1.00  0.00     0.010 C 
ENDBRANCH  10  16
ENDBRANCH   5   6
ENDBRANCH   1   5
BRANCH   2  18
HETATM   18  C   UNL     1     -41.030  54.841 -52.195  1.00  0.00     0.035 A 
HETATM   19  C   UNL     1     -40.718  53.641 -52.853  1.00  0.00     0.042 A 
HETATM   20  C   UNL     1     -40.202  52.539 -52.152  1.00  0.00    -0.021 A 
HETATM   21  C   UNL     1     -39.993  52.654 -50.774  1.00  0.00     0.012 A 
HETATM   22  C   UNL     1     -40.300  53.844 -50.113  1.00  0.00     0.003 A 
HETATM   23  C   UNL     1     -40.820  54.931 -50.820  1.00  0.00     0.029 A 
BRANCH  20  24
HETATM   24  C   UNL     1     -39.908  51.302 -52.858  1.00  0.00     0.010 A 
HETATM   25  C   UNL     1     -39.568  50.018 -52.370  1.00  0.00     0.152 A 
HETATM   26  N   UNL     1     -39.390  49.124 -53.346  1.00  0.00    -0.187 NA
HETATM   27  N   UNL     1     -39.611  49.832 -54.465  1.00  0.00    -0.289 N 
HETATM   28  H   UNL     1     -39.533  49.358 -55.358  1.00  0.00     0.188 HD
HETATM   29  C   UNL     1     -39.928  51.139 -54.226  1.00  0.00     0.123 A 
ENDBRANCH  20  24
ENDBRANCH   2  18
TORSDOF 5
ENDMDL
MODEL 7
REMARK VINA RESULT:      -8.2      2.547      3.694
REMARK  5 active torsions:
REMARK  status: ('A' for Active; 'I' for Inactive)
REMARK    1  A    between atoms: C_2  and  C_3 
REMARK    2  A    between atoms: C_6  and  C_7 
REMARK    3  A    between atoms: C_7  and  C_8 
REMARK       I    between atoms: C_8  and  N_9 
REMARK    4  A    between atoms: N_9  and  C_10 
REMARK    5  A    between atoms: C_12  and  C_13 
ROOT
HETATM    1  C   UNL     1     -42.746  55.562 -55.919  1.00  0.00     0.226 C 
HETATM    2  N   UNL     1     -41.499  55.104 -55.511  1.00  0.00    -0.327 N 
HETATM    3  O   UNL     1     -43.778  55.535 -55.256  1.00  0.00    -0.273 OA
HETATM    4  H   UNL     1     -40.765  55.113 -56.208  1.00  0.00     0.169 HD
ENDROOT
BRANCH   1   5
HETATM    5  C   UNL     1     -42.713  56.165 -57.318  1.00  0.00     0.144 C 
BRANCH   5   6
HETATM    6  C   UNL     1     -42.440  57.635 -57.333  1.00  0.00    -0.021 A 
HETATM    7  C   UNL     1     -42.245  58.485 -58.474  1.00  0.00    -0.001 A 
HETATM    8  C   UNL     1     -41.925  59.761 -58.000  1.00  0.00     0.049 A 
HETATM    9  C   UNL     1     -42.294  58.287 -59.868  1.00  0.00     0.014 A 
HETATM   10  C   UNL     1     -41.625  60.852 -58.842  1.00  0.00    -0.031 A 
HETATM   11  N   UNL     1     -41.968  59.696 -56.626  1.00  0.00    -0.364 N 
HETATM   12  C   UNL     1     -41.700  60.608 -60.225  1.00  0.00     0.009 A 
HETATM   13  C   UNL     1     -42.029  59.354 -60.730  1.00  0.00     0.002 A 
HETATM   14  C   UNL     1     -42.267  58.428 -56.215  1.00  0.00     0.097 A 
HETATM   15  H   UNL     1     -41.794  60.480 -56.012  1.00  0.00     0.165 HD
BRANCH  10  16
HETATM   16  C   UNL     1     -41.253  62.223 -58.336  1.00  0.00     0.036 C 
HETATM   17  C   UNL     1     -40.039  62.787 -59.056  1.00  0.00     0.010 C 
ENDBRANCH  10  16
ENDBRANCH   5   6
ENDBRANCH   1   5
BRANCH   2  18
HETATM   18  C   UNL     1     -41.140  54.585 -54.251  1.00  0.00     0.035 A 
HETATM   19  C   UNL     1     -40.717  53.246 -54.210  1.00  0.00     0.042 A 
HETATM   20  C   UNL     1     -40.318  52.644 -53.006  1.00  0.00    -0.021 A 
HETATM   21  C   UNL     1     -40.339  53.405 -51.833  1.00  0.00     0.012 A 
HETATM   22  C   UNL     1     -40.758  54.736 -51.865  1.00  0.00     0.003 A 
HETATM   23  C   UNL     1     -41.159  55.322 -53.068  1.00  0.00     0.029 A 
BRANCH  20  24
HETATM   24  C   UNL     1     -39.906  51.251 -52.993  1.00  0.00     0.010 A 
HETATM   25  C   UNL     1     -39.694  50.339 -54.055  1.00  0.00     0.152 A 
HETATM   26  N   UNL     1     -39.295  49.136 -53.633  1.00  0.00    -0.187 NA
HETATM   27  N   UNL     1     -39.254  49.270 -52.297  1.00  0.00    -0.289 N 
HETATM   28  H   UNL     1     -38.972  48.469 -51.742  1.00  0.00     0.188 HD
HETATM   29  C   UNL     1     -39.608  50.516 -51.865  1.00  0.00     0.123 A 
ENDBRANCH  20  24
ENDBRANCH   2  18
TORSDOF 5
ENDMDL
MODEL 8
REMARK VINA RESULT:      -8.2      2.353      8.406
REMARK  5 active torsions:
REMARK  status: ('A' for Active; 'I' for Inactive)
REMARK    1  A    between atoms: C_2  and  C_3 
REMARK    2  A    between atoms: C_6  and  C_7 
REMARK    3  A    between atoms: C_7  and  C_8 
REMARK       I    between atoms: C_8  and  N_9 
REMARK    4  A    between atoms: N_9  and  C_10 
REMARK    5  A    between atoms: C_12  and  C_13 
ROOT
HETATM    1  C   UNL     1     -41.719  56.977 -53.687  1.00  0.00     0.226 C 
HETATM    2  N   UNL     1     -42.734  56.882 -54.630  1.00  0.00    -0.327 N 
HETATM    3  O   UNL     1     -40.599  57.444 -53.874  1.00  0.00    -0.273 OA
HETATM    4  H   UNL     1     -43.570  56.388 -54.344  1.00  0.00     0.169 HD
ENDROOT
BRANCH   1   5
HETATM    5  C   UNL     1     -42.146  56.459 -52.319  1.00  0.00     0.144 C 
BRANCH   5   6
HETATM    6  C   UNL     1     -41.453  55.199 -51.908  1.00  0.00    -0.021 A 
HETATM    7  C   UNL     1     -40.970  54.142 -52.751  1.00  0.00    -0.001 A 
HETATM    8  C   UNL     1     -40.481  53.129 -51.920  1.00  0.00     0.049 A 
HETATM    9  C   UNL     1     -40.917  53.942 -54.145  1.00  0.00     0.014 A 
HETATM   10  C   UNL     1     -39.961  51.910 -52.402  1.00  0.00    -0.031 A 
HETATM   11  N   UNL     1     -40.621  53.576 -50.626  1.00  0.00    -0.364 N 
HETATM   12  C   UNL     1     -39.917  51.762 -53.799  1.00  0.00     0.009 A 
HETATM   13  C   UNL     1     -40.383  52.755 -54.656  1.00  0.00     0.002 A 
HETATM   14  C   UNL     1     -41.209  54.809 -50.605  1.00  0.00     0.097 A 
HETATM   15  H   UNL     1     -40.335  53.056 -49.809  1.00  0.00     0.165 HD
BRANCH  10  16
HETATM   16  C   UNL     1     -39.457  50.804 -51.509  1.00  0.00     0.036 C 
HETATM   17  C   UNL     1     -39.543  49.443 -52.182  1.00  0.00     0.010 C 
ENDBRANCH  10  16
ENDBRANCH   5   6
ENDBRANCH   1   5
BRANCH   2  18
HETATM   18  C   UNL     1     -42.727  57.354 -55.958  1.00  0.00     0.035 A 
HETATM   19  C   UNL     1     -43.275  56.510 -56.937  1.00  0.00     0.042 A 
HETATM   20  C   UNL     1     -43.333  56.899 -58.285  1.00  0.00    -0.021 A 
HETATM   21  C   UNL     1     -42.839  58.156 -58.645  1.00  0.00     0.012 A 
HETATM   22  C   UNL     1     -42.292  59.001 -57.678  1.00  0.00     0.003 A 
HETATM   23  C   UNL     1     -42.234  58.600 -56.341  1.00  0.00     0.029 A 
BRANCH  20  24
HETATM   24  C   UNL     1     -43.886  55.994 -59.279  1.00  0.00     0.010 A 
HETATM   25  C   UNL     1     -44.350  56.237 -60.593  1.00  0.00     0.152 A 
HETATM   26  N   UNL     1     -44.773  55.128 -61.206  1.00  0.00    -0.187 NA
HETATM   27  N   UNL     1     -44.585  54.170 -60.286  1.00  0.00    -0.289 N 
HETATM   28  H   UNL     1     -44.838  53.217 -60.525  1.00  0.00     0.188 HD
HETATM   29  C   UNL     1     -44.055  54.635 -59.117  1.00  0.00     0.123 A 
ENDBRANCH  20  24
ENDBRANCH   2  18
TORSDOF 5
ENDMDL
MODEL 9
REMARK VINA RESULT:      -8.1      2.951      3.743
REMARK  5 active torsions:
REMARK  status: ('A' for Active; 'I' for Inactive)
REMARK    1  A    between atoms: C_2  and  C_3 
REMARK    2  A    between atoms: C_6  and  C_7 
REMARK    3  A    between atoms: C_7  and  C_8 
REMARK       I    between atoms: C_8  and  N_9 
REMARK    4  A    between atoms: N_9  and  C_10 
REMARK    5  A    between atoms: C_12  and  C_13 
ROOT
HETATM    1  C   UNL     1     -41.632  57.108 -53.204  1.00  0.00     0.226 C 
HETATM    2  N   UNL     1     -42.051  55.850 -52.792  1.00  0.00    -0.327 N 
HETATM    3  O   UNL     1     -40.532  57.609 -52.990  1.00  0.00    -0.273 OA
HETATM    4  H   UNL     1     -43.020  55.617 -52.969  1.00  0.00     0.169 HD
ENDROOT
BRANCH   1   5
HETATM    5  C   UNL     1     -42.694  57.837 -54.017  1.00  0.00     0.144 C 
BRANCH   5   6
HETATM    6  C   UNL     1     -42.475  57.766 -55.495  1.00  0.00    -0.021 A 
HETATM    7  C   UNL     1     -42.290  58.853 -56.414  1.00  0.00    -0.001 A 
HETATM    8  C   UNL     1     -42.219  58.311 -57.700  1.00  0.00     0.049 A 
HETATM    9  C   UNL     1     -42.194  60.252 -56.275  1.00  0.00     0.014 A 
HETATM   10  C   UNL     1     -42.080  59.091 -58.867  1.00  0.00    -0.031 A 
HETATM   11  N   UNL     1     -42.311  56.945 -57.561  1.00  0.00    -0.364 N 
HETATM   12  C   UNL     1     -41.975  60.480 -58.677  1.00  0.00     0.009 A 
HETATM   13  C   UNL     1     -42.029  61.052 -57.409  1.00  0.00     0.002 A 
HETATM   14  C   UNL     1     -42.473  56.607 -56.247  1.00  0.00     0.097 A 
HETATM   15  H   UNL     1     -42.272  56.290 -58.329  1.00  0.00     0.165 HD
BRANCH  10  16
HETATM   16  C   UNL     1     -42.030  58.513 -60.259  1.00  0.00     0.036 C 
HETATM   17  C   UNL     1     -41.860  59.590 -61.319  1.00  0.00     0.010 C 
ENDBRANCH  10  16
ENDBRANCH   5   6
ENDBRANCH   1   5
BRANCH   2  18
HETATM   18  C   UNL     1     -41.301  54.867 -52.115  1.00  0.00     0.035 A 
HETATM   19  C   UNL     1     -41.013  53.688 -52.820  1.00  0.00     0.042 A 
HETATM   20  C   UNL     1     -40.254  52.659 -52.240  1.00  0.00    -0.021 A 
HETATM   21  C   UNL     1     -39.775  52.827 -50.937  1.00  0.00     0.012 A 
HETATM   22  C   UNL     1     -40.057  53.997 -50.229  1.00  0.00     0.003 A 
HETATM   23  C   UNL     1     -40.819  55.010 -50.814  1.00  0.00     0.029 A 
BRANCH  20  24
HETATM   24  C   UNL     1     -39.990  51.441 -52.988  1.00  0.00     0.010 A 
HETATM   25  C   UNL     1     -39.574  50.160 -52.552  1.00  0.00     0.152 A 
HETATM   26  N   UNL     1     -39.458  49.284 -53.553  1.00  0.00    -0.187 NA
HETATM   27  N   UNL     1     -39.796  50.001 -54.637  1.00  0.00    -0.289 N 
HETATM   28  H   UNL     1     -39.783  49.541 -55.541  1.00  0.00     0.188 HD
HETATM   29  C   UNL     1     -40.125  51.295 -54.352  1.00  0.00     0.123 A 
ENDBRANCH  20  24
ENDBRANCH   2  18
TORSDOF 5
ENDMDL
MODEL 10
REMARK VINA RESULT:      -8.1      4.920      9.631
REMARK  5 active torsions:
REMARK  status: ('A' for Active; 'I' for Inactive)
REMARK    1  A    between atoms: C_2  and  C_3 
REMARK    2  A    between atoms: C_6  and  C_7 
REMARK    3  A    between atoms: C_7  and  C_8 
REMARK       I    between atoms: C_8  and  N_9 
REMARK    4  A    between atoms: N_9  and  C_10 
REMARK    5  A    between atoms: C_12  and  C_13 
ROOT
HETATM    1  C   UNL     1     -42.133  56.697 -50.658  1.00  0.00     0.226 C 
HETATM    2  N   UNL     1     -43.481  56.761 -50.989  1.00  0.00    -0.327 N 
HETATM    3  O   UNL     1     -41.279  57.532 -50.939  1.00  0.00    -0.273 OA
HETATM    4  H   UNL     1     -44.040  55.948 -50.763  1.00  0.00     0.169 HD
ENDROOT
BRANCH   1   5
HETATM    5  C   UNL     1     -41.794  55.455 -49.844  1.00  0.00     0.144 C 
BRANCH   5   6
HETATM    6  C   UNL     1     -41.018  54.428 -50.605  1.00  0.00    -0.021 A 
HETATM    7  C   UNL     1     -41.230  53.982 -51.953  1.00  0.00    -0.001 A 
HETATM    8  C   UNL     1     -40.325  52.946 -52.202  1.00  0.00     0.049 A 
HETATM    9  C   UNL     1     -42.119  54.350 -52.982  1.00  0.00     0.014 A 
HETATM   10  C   UNL     1     -40.271  52.235 -53.419  1.00  0.00    -0.031 A 
HETATM   11  N   UNL     1     -39.564  52.802 -51.064  1.00  0.00    -0.364 N 
HETATM   12  C   UNL     1     -41.169  52.647 -54.420  1.00  0.00     0.009 A 
HETATM   13  C   UNL     1     -42.073  53.683 -54.210  1.00  0.00     0.002 A 
HETATM   14  C   UNL     1     -39.975  53.677 -50.099  1.00  0.00     0.097 A 
HETATM   15  H   UNL     1     -38.814  52.134 -50.961  1.00  0.00     0.165 HD
BRANCH  10  16
HETATM   16  C   UNL     1     -39.315  51.099 -53.683  1.00  0.00     0.036 C 
HETATM   17  C   UNL     1     -39.976  49.961 -54.444  1.00  0.00     0.010 C 
ENDBRANCH  10  16
ENDBRANCH   5   6
ENDBRANCH   1   5
BRANCH   2  18
HETATM   18  C   UNL     1     -44.162  57.808 -51.642  1.00  0.00     0.035 A 
HETATM   19  C   UNL     1     -44.686  58.829 -50.833  1.00  0.00     0.042 A 
HETATM   20  C   UNL     1     -45.362  59.926 -51.391  1.00  0.00    -0.021 A 
HETATM   21  C   UNL     1     -45.503  59.996 -52.781  1.00  0.00     0.012 A 
HETATM   22  C   UNL     1     -44.984  58.985 -53.592  1.00  0.00     0.003 A 
HETATM   23  C   UNL     1     -44.319  57.895 -53.025  1.00  0.00     0.029 A 
BRANCH  20  24
HETATM   24  C   UNL     1     -45.912  60.956 -50.526  1.00  0.00     0.010 A 
HETATM   25  C   UNL     1     -45.877  61.097 -49.118  1.00  0.00     0.152 A 
HETATM   26  N   UNL     1     -46.490  62.205 -48.694  1.00  0.00    -0.187 NA
HETATM   27  N   UNL     1     -46.924  62.778 -49.827  1.00  0.00    -0.289 N 
HETATM   28  H   UNL     1     -47.432  63.654 -49.760  1.00  0.00     0.188 HD
HETATM   29  C   UNL     1     -46.602  62.072 -50.951  1.00  0.00     0.123 A 
ENDBRANCH  20  24
ENDBRANCH   2  18
TORSDOF 5
ENDMDL
