MODEL 1
REMARK VINA RESULT:      -9.2      0.000      0.000
REMARK  4 active torsions:
REMARK  status: ('A' for Active; 'I' for Inactive)
REMARK    1  A    between atoms: C_4  and  N_5 
REMARK       I    between atoms: N_5  and  C_6 
REMARK       I    between atoms: C_6  and  N_7 
REMARK    2  A    between atoms: N_7  and  C_8 
REMARK    3  A    between atoms: C_8  and  C_9 
REMARK       I    between atoms: C_9  and  N_10 
REMARK    4  A    between atoms: N_10  and  C_11 
ROOT
HETATM    1  N   UNL     1     -43.332  55.032 -52.241  1.00  0.00    -0.307 N 
HETATM    2  C   UNL     1     -43.335  56.303 -52.752  1.00  0.00     0.321 C 
HETATM    3  N   UNL     1     -44.482  56.541 -53.476  1.00  0.00    -0.334 N 
HETATM    4  O   UNL     1     -42.470  57.156 -52.598  1.00  0.00    -0.247 OA
HETATM    5  H   UNL     1     -44.241  54.629 -52.032  1.00  0.00     0.170 HD
HETATM    6  H   UNL     1     -44.819  55.746 -54.003  1.00  0.00     0.164 HD
ENDROOT
BRANCH   3   7
HETATM    7  C   UNL     1     -44.668  57.842 -54.086  1.00  0.00     0.227 C 
BRANCH   7   8
HETATM    8  C   UNL     1     -44.710  57.733 -55.614  1.00  0.00     0.239 C 
HETATM    9  N   UNL     1     -43.543  57.228 -56.143  1.00  0.00    -0.324 N 
HETATM   10  H   UNL     1     -42.871  56.809 -55.493  1.00  0.00     0.169 HD
HETATM   11  O   UNL     1     -45.729  58.025 -56.236  1.00  0.00    -0.271 OA
BRANCH   9  12
HETATM   12  C   UNL     1     -43.170  57.076 -57.498  1.00  0.00     0.064 A 
HETATM   13  C   UNL     1     -42.743  58.244 -58.155  1.00  0.00     0.093 A 
HETATM   14  C   UNL     1     -42.371  58.155 -59.513  1.00  0.00    -0.005 A 
HETATM   15  N   UNL     1     -42.706  59.422 -57.487  1.00  0.00    -0.258 NA
HETATM   16  C   UNL     1     -41.949  59.322 -60.165  1.00  0.00     0.015 A 
HETATM   17  C   UNL     1     -42.432  56.924 -60.185  1.00  0.00     0.014 A 
HETATM   18  C   UNL     1     -41.907  60.526 -59.473  1.00  0.00     0.020 A 
HETATM   19  C   UNL     1     -42.291  60.524 -58.147  1.00  0.00     0.117 A 
HETATM   20  C   UNL     1     -42.863  55.781 -59.519  1.00  0.00     0.003 A 
HETATM   21  C   UNL     1     -43.235  55.856 -58.177  1.00  0.00     0.032 A 
ENDBRANCH   9  12
ENDBRANCH   7   8
ENDBRANCH   3   7
BRANCH   1  22
HETATM   22  C   UNL     1     -42.263  54.393 -51.569  1.00  0.00     0.066 A 
HETATM   23  C   UNL     1     -41.988  54.627 -50.215  1.00  0.00     0.038 A 
HETATM   24  C   UNL     1     -40.899  54.009 -49.596  1.00  0.00    -0.059 A 
HETATM   25  C   UNL     1     -40.609  54.252 -48.144  1.00  0.00     0.048 C 
HETATM   26  C   UNL     1     -40.115  53.122 -50.338  1.00  0.00     0.020 A 
HETATM   27  C   UNL     1     -40.387  52.883 -51.696  1.00  0.00    -0.005 A 
HETATM   28  C   UNL     1     -41.462  53.535 -52.336  1.00  0.00     0.093 A 
HETATM   29  C   UNL     1     -39.609  51.993 -52.450  1.00  0.00     0.015 A 
HETATM   30  N   UNL     1     -41.743  53.331 -53.647  1.00  0.00    -0.258 NA
HETATM   31  C   UNL     1     -40.971  52.464 -54.338  1.00  0.00     0.117 A 
HETATM   32  C   UNL     1     -39.905  51.776 -53.790  1.00  0.00     0.020 A 
ENDBRANCH   1  22
TORSDOF 4
ENDMDL
MODEL 2
REMARK VINA RESULT:      -9.1      2.428      5.308
REMARK  4 active torsions:
REMARK  status: ('A' for Active; 'I' for Inactive)
REMARK    1  A    between atoms: C_4  and  N_5 
REMARK       I    between atoms: N_5  and  C_6 
REMARK       I    between atoms: C_6  and  N_7 
REMARK    2  A    between atoms: N_7  and  C_8 
REMARK    3  A    between atoms: C_8  and  C_9 
REMARK       I    between atoms: C_9  and  N_10 
REMARK    4  A    between atoms: N_10  and  C_11 
ROOT
HETATM    1  N   UNL     1     -40.801  54.518 -55.158  1.00  0.00    -0.307 N 
HETATM    2  C   UNL     1     -42.059  54.939 -55.498  1.00  0.00     0.321 C 
HETATM    3  N   UNL     1     -42.006  56.074 -56.276  1.00  0.00    -0.334 N 
HETATM    4  O   UNL     1     -43.118  54.403 -55.196  1.00  0.00    -0.247 OA
HETATM    5  H   UNL     1     -40.061  54.728 -55.820  1.00  0.00     0.170 HD
HETATM    6  H   UNL     1     -41.269  56.720 -56.026  1.00  0.00     0.164 HD
ENDROOT
BRANCH   3   7
HETATM    7  C   UNL     1     -43.245  56.661 -56.744  1.00  0.00     0.227 C 
BRANCH   7   8
HETATM    8  C   UNL     1     -43.698  57.798 -55.823  1.00  0.00     0.239 C 
HETATM    9  N   UNL     1     -43.345  57.589 -54.508  1.00  0.00    -0.324 N 
HETATM   10  H   UNL     1     -42.678  56.838 -54.311  1.00  0.00     0.169 HD
HETATM   11  O   UNL     1     -44.259  58.792 -56.281  1.00  0.00    -0.271 OA
BRANCH   9  12
HETATM   12  C   UNL     1     -43.670  58.355 -53.364  1.00  0.00     0.064 A 
HETATM   13  C   UNL     1     -42.586  58.759 -52.565  1.00  0.00     0.093 A 
HETATM   14  C   UNL     1     -42.851  59.515 -51.404  1.00  0.00    -0.005 A 
HETATM   15  N   UNL     1     -41.323  58.413 -52.911  1.00  0.00    -0.258 NA
HETATM   16  C   UNL     1     -41.767  59.913 -50.608  1.00  0.00     0.015 A 
HETATM   17  C   UNL     1     -44.171  59.848 -51.061  1.00  0.00     0.014 A 
HETATM   18  C   UNL     1     -40.473  59.560 -50.971  1.00  0.00     0.020 A 
HETATM   19  C   UNL     1     -40.305  58.817 -52.122  1.00  0.00     0.117 A 
HETATM   20  C   UNL     1     -45.230  59.433 -51.863  1.00  0.00     0.003 A 
HETATM   21  C   UNL     1     -44.982  58.685 -53.012  1.00  0.00     0.032 A 
ENDBRANCH   9  12
ENDBRANCH   7   8
ENDBRANCH   3   7
BRANCH   1  22
HETATM   22  C   UNL     1     -40.473  53.475 -54.257  1.00  0.00     0.066 A 
HETATM   23  C   UNL     1     -40.098  52.200 -54.699  1.00  0.00     0.038 A 
HETATM   24  C   UNL     1     -39.820  51.185 -53.780  1.00  0.00    -0.059 A 
HETATM   25  C   UNL     1     -39.409  49.822 -54.252  1.00  0.00     0.048 C 
HETATM   26  C   UNL     1     -39.882  51.475 -52.414  1.00  0.00     0.020 A 
HETATM   27  C   UNL     1     -40.257  52.754 -51.966  1.00  0.00    -0.005 A 
HETATM   28  C   UNL     1     -40.575  53.771 -52.890  1.00  0.00     0.093 A 
HETATM   29  C   UNL     1     -40.320  53.058 -50.599  1.00  0.00     0.015 A 
HETATM   30  N   UNL     1     -40.950  55.011 -52.487  1.00  0.00    -0.258 NA
HETATM   31  C   UNL     1     -40.995  55.264 -51.161  1.00  0.00     0.117 A 
HETATM   32  C   UNL     1     -40.692  54.332 -50.188  1.00  0.00     0.020 A 
ENDBRANCH   1  22
TORSDOF 4
ENDMDL
MODEL 3
REMARK VINA RESULT:      -9.1      1.615      7.742
REMARK  4 active torsions:
REMARK  status: ('A' for Active; 'I' for Inactive)
REMARK    1  A    between atoms: C_4  and  N_5 
REMARK       I    between atoms: N_5  and  C_6 
REMARK       I    between atoms: C_6  and  N_7 
REMARK    2  A    between atoms: N_7  and  C_8 
REMARK    3  A    between atoms: C_8  and  C_9 
REMARK       I    between atoms: C_9  and  N_10 
REMARK    4  A    between atoms: N_10  and  C_11 
ROOT
HETATM    1  N   UNL     1     -43.298  58.420 -55.304  1.00  0.00    -0.307 N 
HETATM    2  C   UNL     1     -42.653  58.354 -54.097  1.00  0.00     0.321 C 
HETATM    3  N   UNL     1     -43.548  58.161 -53.069  1.00  0.00    -0.334 N 
HETATM    4  O   UNL     1     -41.445  58.429 -53.908  1.00  0.00    -0.247 OA
HETATM    5  H   UNL     1     -44.162  57.891 -55.382  1.00  0.00     0.170 HD
HETATM    6  H   UNL     1     -44.430  58.643 -53.184  1.00  0.00     0.164 HD
ENDROOT
BRANCH   3   7
HETATM    7  C   UNL     1     -43.046  58.055 -51.714  1.00  0.00     0.227 C 
BRANCH   7   8
HETATM    8  C   UNL     1     -42.890  56.589 -51.298  1.00  0.00     0.239 C 
HETATM    9  N   UNL     1     -41.590  56.143 -51.404  1.00  0.00    -0.324 N 
HETATM   10  H   UNL     1     -40.859  56.845 -51.549  1.00  0.00     0.169 HD
HETATM   11  O   UNL     1     -43.849  55.952 -50.867  1.00  0.00    -0.271 OA
BRANCH   9  12
HETATM   12  C   UNL     1     -41.076  54.841 -51.208  1.00  0.00     0.064 A 
HETATM   13  C   UNL     1     -40.770  54.117 -52.375  1.00  0.00     0.093 A 
HETATM   14  C   UNL     1     -40.264  52.807 -52.241  1.00  0.00    -0.005 A 
HETATM   15  N   UNL     1     -40.972  54.677 -53.592  1.00  0.00    -0.258 NA
HETATM   16  C   UNL     1     -39.964  52.088 -53.407  1.00  0.00     0.015 A 
HETATM   17  C   UNL     1     -40.078  52.245 -50.968  1.00  0.00     0.014 A 
HETATM   18  C   UNL     1     -40.167  52.670 -54.652  1.00  0.00     0.020 A 
HETATM   19  C   UNL     1     -40.667  53.955 -54.691  1.00  0.00     0.117 A 
HETATM   20  C   UNL     1     -40.393  52.976 -49.826  1.00  0.00     0.003 A 
HETATM   21  C   UNL     1     -40.894  54.271 -49.944  1.00  0.00     0.032 A 
ENDBRANCH   9  12
ENDBRANCH   7   8
ENDBRANCH   3   7
BRANCH   1  22
HETATM   22  C   UNL     1     -42.722  58.748 -56.555  1.00  0.00     0.066 A 
HETATM   23  C   UNL     1     -42.140  59.997 -56.802  1.00  0.00     0.038 A 
HETATM   24  C   UNL     1     -41.616  60.299 -58.062  1.00  0.00    -0.059 A 
HETATM   25  C   UNL     1     -40.985  61.634 -58.325  1.00  0.00     0.048 C 
HETATM   26  C   UNL     1     -41.646  59.318 -59.057  1.00  0.00     0.020 A 
HETATM   27  C   UNL     1     -42.228  58.062 -58.813  1.00  0.00    -0.005 A 
HETATM   28  C   UNL     1     -42.792  57.767 -57.554  1.00  0.00     0.093 A 
HETATM   29  C   UNL     1     -42.261  57.069 -59.803  1.00  0.00     0.015 A 
HETATM   30  N   UNL     1     -43.369  56.567 -57.293  1.00  0.00    -0.258 NA
HETATM   31  C   UNL     1     -43.378  55.637 -58.273  1.00  0.00     0.117 A 
HETATM   32  C   UNL     1     -42.842  55.836 -59.530  1.00  0.00     0.020 A 
ENDBRANCH   1  22
TORSDOF 4
ENDMDL
MODEL 4
REMARK VINA RESULT:      -9.0      0.732      2.074
REMARK  4 active torsions:
REMARK  status: ('A' for Active; 'I' for Inactive)
REMARK    1  A    between atoms: C_4  and  N_5 
REMARK       I    between atoms: N_5  and  C_6 
REMARK       I    between atoms: C_6  and  N_7 
REMARK    2  A    between atoms: N_7  and  C_8 
REMARK    3  A    between atoms: C_8  and  C_9 
REMARK       I    between atoms: C_9  and  N_10 
REMARK    4  A    between atoms: N_10  and  C_11 
ROOT
HETATM    1  N   UNL     1     -43.353  55.217 -52.202  1.00  0.00    -0.307 N 
HETATM    2  C   UNL     1     -43.434  56.573 -52.376  1.00  0.00     0.321 C 
HETATM    3  N   UNL     1     -44.513  56.906 -53.164  1.00  0.00    -0.334 N 
HETATM    4  O   UNL     1     -42.688  57.419 -51.900  1.00  0.00    -0.247 OA
HETATM    5  H   UNL     1     -44.231  54.707 -52.223  1.00  0.00     0.170 HD
HETATM    6  H   UNL     1     -44.703  56.252 -53.913  1.00  0.00     0.164 HD
ENDROOT
BRANCH   3   7
HETATM    7  C   UNL     1     -44.768  58.302 -53.451  1.00  0.00     0.227 C 
BRANCH   7   8
HETATM    8  C   UNL     1     -44.640  58.590 -54.950  1.00  0.00     0.239 C 
HETATM    9  N   UNL     1     -43.330  58.619 -55.375  1.00  0.00    -0.324 N 
HETATM   10  H   UNL     1     -42.616  58.268 -54.731  1.00  0.00     0.169 HD
HETATM   11  O   UNL     1     -45.641  58.713 -55.654  1.00  0.00    -0.271 OA
BRANCH   9  12
HETATM   12  C   UNL     1     -42.813  58.948 -56.649  1.00  0.00     0.064 A 
HETATM   13  C   UNL     1     -42.809  57.911 -57.599  1.00  0.00     0.093 A 
HETATM   14  C   UNL     1     -42.292  58.178 -58.885  1.00  0.00    -0.005 A 
HETATM   15  N   UNL     1     -43.284  56.686 -57.267  1.00  0.00    -0.258 NA
HETATM   16  C   UNL     1     -42.287  57.140 -59.827  1.00  0.00     0.015 A 
HETATM   17  C   UNL     1     -41.793  59.452 -59.197  1.00  0.00     0.014 A 
HETATM   18  C   UNL     1     -42.781  55.888 -59.483  1.00  0.00     0.020 A 
HETATM   19  C   UNL     1     -43.266  55.713 -58.204  1.00  0.00     0.117 A 
HETATM   20  C   UNL     1     -41.801  60.463 -58.241  1.00  0.00     0.003 A 
HETATM   21  C   UNL     1     -42.308  60.212 -56.967  1.00  0.00     0.032 A 
ENDBRANCH   9  12
ENDBRANCH   7   8
ENDBRANCH   3   7
BRANCH   1  22
HETATM   22  C   UNL     1     -42.302  54.507 -51.572  1.00  0.00     0.066 A 
HETATM   23  C   UNL     1     -41.991  54.682 -50.218  1.00  0.00     0.038 A 
HETATM   24  C   UNL     1     -40.920  53.993 -49.642  1.00  0.00    -0.059 A 
HETATM   25  C   UNL     1     -40.592  54.174 -48.189  1.00  0.00     0.048 C 
HETATM   26  C   UNL     1     -40.193  53.096 -50.428  1.00  0.00     0.020 A 
HETATM   27  C   UNL     1     -40.502  52.916 -51.788  1.00  0.00    -0.005 A 
HETATM   28  C   UNL     1     -41.557  53.638 -52.383  1.00  0.00     0.093 A 
HETATM   29  C   UNL     1     -39.781  52.017 -52.586  1.00  0.00     0.015 A 
HETATM   30  N   UNL     1     -41.872  53.492 -53.695  1.00  0.00    -0.258 NA
HETATM   31  C   UNL     1     -41.155  52.614 -54.429  1.00  0.00     0.117 A 
HETATM   32  C   UNL     1     -40.113  51.859 -53.927  1.00  0.00     0.020 A 
ENDBRANCH   1  22
TORSDOF 4
ENDMDL
MODEL 5
REMARK VINA RESULT:      -8.9      1.584      3.471
REMARK  4 active torsions:
REMARK  status: ('A' for Active; 'I' for Inactive)
REMARK    1  A    between atoms: C_4  and  N_5 
REMARK       I    between atoms: N_5  and  C_6 
REMARK       I    between atoms: C_6  and  N_7 
REMARK    2  A    between atoms: N_7  and  C_8 
REMARK    3  A    between atoms: C_8  and  C_9 
REMARK       I    between atoms: C_9  and  N_10 
REMARK    4  A    between atoms: N_10  and  C_11 
ROOT
HETATM    1  N   UNL     1     -42.277  56.482 -52.567  1.00  0.00    -0.307 N 
HETATM    2  C   UNL     1     -41.794  57.634 -53.128  1.00  0.00     0.321 C 
HETATM    3  N   UNL     1     -42.784  58.586 -53.231  1.00  0.00    -0.334 N 
HETATM    4  O   UNL     1     -40.642  57.847 -53.487  1.00  0.00    -0.247 OA
HETATM    5  H   UNL     1     -43.045  56.589 -51.911  1.00  0.00     0.170 HD
HETATM    6  H   UNL     1     -43.698  58.218 -53.456  1.00  0.00     0.164 HD
ENDROOT
BRANCH   3   7
HETATM    7  C   UNL     1     -42.455  59.880 -53.793  1.00  0.00     0.227 C 
BRANCH   7   8
HETATM    8  C   UNL     1     -42.919  59.982 -55.249  1.00  0.00     0.239 C 
HETATM    9  N   UNL     1     -41.997  59.471 -56.137  1.00  0.00    -0.324 N 
HETATM   10  H   UNL     1     -41.224  58.921 -55.752  1.00  0.00     0.169 HD
HETATM   11  O   UNL     1     -44.031  60.428 -55.525  1.00  0.00    -0.271 OA
BRANCH   9  12
HETATM   12  C   UNL     1     -42.021  59.477 -57.551  1.00  0.00     0.064 A 
HETATM   13  C   UNL     1     -42.365  58.261 -58.167  1.00  0.00     0.093 A 
HETATM   14  C   UNL     1     -42.393  58.205 -59.576  1.00  0.00    -0.005 A 
HETATM   15  N   UNL     1     -42.649  57.175 -57.409  1.00  0.00    -0.258 NA
HETATM   16  C   UNL     1     -42.732  56.989 -60.186  1.00  0.00     0.015 A 
HETATM   17  C   UNL     1     -42.080  59.342 -60.337  1.00  0.00     0.014 A 
HETATM   18  C   UNL     1     -43.029  55.880 -59.404  1.00  0.00     0.020 A 
HETATM   19  C   UNL     1     -42.975  56.022 -58.033  1.00  0.00     0.117 A 
HETATM   20  C   UNL     1     -41.737  60.535 -59.708  1.00  0.00     0.003 A 
HETATM   21  C   UNL     1     -41.705  60.604 -58.316  1.00  0.00     0.032 A 
ENDBRANCH   9  12
ENDBRANCH   7   8
ENDBRANCH   3   7
BRANCH   1  22
HETATM   22  C   UNL     1     -41.589  55.252 -52.435  1.00  0.00     0.066 A 
HETATM   23  C   UNL     1     -41.281  54.448 -53.540  1.00  0.00     0.038 A 
HETATM   24  C   UNL     1     -40.636  53.221 -53.367  1.00  0.00    -0.059 A 
HETATM   25  C   UNL     1     -40.298  52.364 -54.551  1.00  0.00     0.048 C 
HETATM   26  C   UNL     1     -40.266  52.829 -52.077  1.00  0.00     0.020 A 
HETATM   27  C   UNL     1     -40.572  53.633 -50.965  1.00  0.00    -0.005 A 
HETATM   28  C   UNL     1     -41.258  54.855 -51.132  1.00  0.00     0.093 A 
HETATM   29  C   UNL     1     -40.205  53.252 -49.667  1.00  0.00     0.015 A 
HETATM   30  N   UNL     1     -41.574  55.646 -50.076  1.00  0.00    -0.258 NA
HETATM   31  C   UNL     1     -41.199  55.243 -48.842  1.00  0.00     0.117 A 
HETATM   32  C   UNL     1     -40.519  54.069 -48.588  1.00  0.00     0.020 A 
ENDBRANCH   1  22
TORSDOF 4
ENDMDL
MODEL 6
REMARK VINA RESULT:      -8.9      1.273      1.274
REMARK  4 active torsions:
REMARK  status: ('A' for Active; 'I' for Inactive)
REMARK    1  A    between atoms: C_4  and  N_5 
REMARK       I    between atoms: N_5  and  C_6 
REMARK       I    between atoms: C_6  and  N_7 
REMARK    2  A    between atoms: N_7  and  C_8 
REMARK    3  A    between atoms: C_8  and  C_9 
REMARK       I    between atoms: C_9  and  N_10 
REMARK    4  A    between atoms: N_10  and  C_11 
ROOT
HETATM    1  N   UNL     1     -43.349  54.955 -52.266  1.00  0.00    -0.307 N 
HETATM    2  C   UNL     1     -43.403  56.253 -52.700  1.00  0.00     0.321 C 
HETATM    3  N   UNL     1     -44.526  56.471 -53.466  1.00  0.00    -0.334 N 
HETATM    4  O   UNL     1     -42.600  57.143 -52.450  1.00  0.00    -0.247 OA
HETATM    5  H   UNL     1     -44.241  54.489 -52.128  1.00  0.00     0.170 HD
HETATM    6  H   UNL     1     -44.789  55.692 -54.056  1.00  0.00     0.164 HD
ENDROOT
BRANCH   3   7
HETATM    7  C   UNL     1     -44.760  57.795 -54.006  1.00  0.00     0.227 C 
BRANCH   7   8
HETATM    8  C   UNL     1     -43.964  58.012 -55.297  1.00  0.00     0.239 C 
HETATM    9  N   UNL     1     -44.487  57.319 -56.367  1.00  0.00    -0.324 N 
HETATM   10  H   UNL     1     -45.419  56.909 -56.255  1.00  0.00     0.169 HD
HETATM   11  O   UNL     1     -43.007  58.783 -55.322  1.00  0.00    -0.271 OA
BRANCH   9  12
HETATM   12  C   UNL     1     -43.980  57.191 -57.681  1.00  0.00     0.064 A 
HETATM   13  C   UNL     1     -44.285  58.241 -58.564  1.00  0.00     0.093 A 
HETATM   14  C   UNL     1     -43.816  58.160 -59.893  1.00  0.00    -0.005 A 
HETATM   15  N   UNL     1     -45.023  59.294 -58.137  1.00  0.00    -0.258 NA
HETATM   16  C   UNL     1     -44.125  59.208 -60.772  1.00  0.00     0.015 A 
HETATM   17  C   UNL     1     -43.065  57.051 -60.313  1.00  0.00     0.014 A 
HETATM   18  C   UNL     1     -44.877  60.288 -60.326  1.00  0.00     0.020 A 
HETATM   19  C   UNL     1     -45.297  60.285 -59.012  1.00  0.00     0.117 A 
HETATM   20  C   UNL     1     -42.779  56.020 -59.424  1.00  0.00     0.003 A 
HETATM   21  C   UNL     1     -43.238  56.086 -58.109  1.00  0.00     0.032 A 
ENDBRANCH   9  12
ENDBRANCH   7   8
ENDBRANCH   3   7
BRANCH   1  22
HETATM   22  C   UNL     1     -42.277  54.337 -51.578  1.00  0.00     0.066 A 
HETATM   23  C   UNL     1     -42.012  54.593 -50.227  1.00  0.00     0.038 A 
HETATM   24  C   UNL     1     -40.920  53.995 -49.592  1.00  0.00    -0.059 A 
HETATM   25  C   UNL     1     -40.642  54.262 -48.143  1.00  0.00     0.048 C 
HETATM   26  C   UNL     1     -40.122  53.106 -50.318  1.00  0.00     0.020 A 
HETATM   27  C   UNL     1     -40.384  52.845 -51.674  1.00  0.00    -0.005 A 
HETATM   28  C   UNL     1     -41.463  53.477 -52.329  1.00  0.00     0.093 A 
HETATM   29  C   UNL     1     -39.593  51.954 -52.411  1.00  0.00     0.015 A 
HETATM   30  N   UNL     1     -41.734  53.252 -53.639  1.00  0.00    -0.258 NA
HETATM   31  C   UNL     1     -40.948  52.383 -54.312  1.00  0.00     0.117 A 
HETATM   32  C   UNL     1     -39.878  51.715 -53.750  1.00  0.00     0.020 A 
ENDBRANCH   1  22
TORSDOF 4
ENDMDL
MODEL 7
REMARK VINA RESULT:      -8.6      1.967      2.755
REMARK  4 active torsions:
REMARK  status: ('A' for Active; 'I' for Inactive)
REMARK    1  A    between atoms: C_4  and  N_5 
REMARK       I    between atoms: N_5  and  C_6 
REMARK       I    between atoms: C_6  and  N_7 
REMARK    2  A    between atoms: N_7  and  C_8 
REMARK    3  A    between atoms: C_8  and  C_9 
REMARK       I    between atoms: C_9  and  N_10 
REMARK    4  A    between atoms: N_10  and  C_11 
ROOT
HETATM    1  N   UNL     1     -42.083  56.448 -52.662  1.00  0.00    -0.307 N 
HETATM    2  C   UNL     1     -41.487  57.620 -53.045  1.00  0.00     0.321 C 
HETATM    3  N   UNL     1     -42.304  58.335 -53.892  1.00  0.00    -0.334 N 
HETATM    4  O   UNL     1     -40.389  58.033 -52.693  1.00  0.00    -0.247 OA
HETATM    5  H   UNL     1     -43.097  56.452 -52.618  1.00  0.00     0.170 HD
HETATM    6  H   UNL     1     -42.843  57.768 -54.533  1.00  0.00     0.164 HD
ENDROOT
BRANCH   3   7
HETATM    7  C   UNL     1     -41.845  59.614 -54.395  1.00  0.00     0.227 C 
BRANCH   7   8
HETATM    8  C   UNL     1     -42.188  59.778 -55.879  1.00  0.00     0.239 C 
HETATM    9  N   UNL     1     -43.417  59.248 -56.202  1.00  0.00    -0.324 N 
HETATM   10  H   UNL     1     -44.039  58.989 -55.430  1.00  0.00     0.169 HD
HETATM   11  O   UNL     1     -41.430  60.382 -56.635  1.00  0.00    -0.271 OA
BRANCH   9  12
HETATM   12  C   UNL     1     -44.029  59.120 -57.470  1.00  0.00     0.064 A 
HETATM   13  C   UNL     1     -43.904  57.865 -58.091  1.00  0.00     0.093 A 
HETATM   14  C   UNL     1     -44.483  57.684 -59.365  1.00  0.00    -0.005 A 
HETATM   15  N   UNL     1     -43.230  56.867 -57.472  1.00  0.00    -0.258 NA
HETATM   16  C   UNL     1     -44.354  56.431 -59.982  1.00  0.00     0.015 A 
HETATM   17  C   UNL     1     -45.164  58.740 -59.991  1.00  0.00     0.014 A 
HETATM   18  C   UNL     1     -43.667  55.409 -59.339  1.00  0.00     0.020 A 
HETATM   19  C   UNL     1     -43.129  55.673 -58.096  1.00  0.00     0.117 A 
HETATM   20  C   UNL     1     -45.271  59.976 -59.362  1.00  0.00     0.003 A 
HETATM   21  C   UNL     1     -44.703  60.169 -58.104  1.00  0.00     0.032 A 
ENDBRANCH   9  12
ENDBRANCH   7   8
ENDBRANCH   3   7
BRANCH   1  22
HETATM   22  C   UNL     1     -41.489  55.402 -51.913  1.00  0.00     0.066 A 
HETATM   23  C   UNL     1     -41.396  55.446 -50.517  1.00  0.00     0.038 A 
HETATM   24  C   UNL     1     -40.767  54.414 -49.816  1.00  0.00    -0.059 A 
HETATM   25  C   UNL     1     -40.675  54.456 -48.319  1.00  0.00     0.048 C 
HETATM   26  C   UNL     1     -40.271  53.319 -50.528  1.00  0.00     0.020 A 
HETATM   27  C   UNL     1     -40.363  53.270 -51.930  1.00  0.00    -0.005 A 
HETATM   28  C   UNL     1     -40.963  54.328 -52.645  1.00  0.00     0.093 A 
HETATM   29  C   UNL     1     -39.871  52.176 -52.655  1.00  0.00     0.015 A 
HETATM   30  N   UNL     1     -41.057  54.313 -53.998  1.00  0.00    -0.258 NA
HETATM   31  C   UNL     1     -40.573  53.238 -54.659  1.00  0.00     0.117 A 
HETATM   32  C   UNL     1     -39.979  52.156 -54.040  1.00  0.00     0.020 A 
ENDBRANCH   1  22
TORSDOF 4
ENDMDL
MODEL 8
REMARK VINA RESULT:      -8.5      1.721      3.294
REMARK  4 active torsions:
REMARK  status: ('A' for Active; 'I' for Inactive)
REMARK    1  A    between atoms: C_4  and  N_5 
REMARK       I    between atoms: N_5  and  C_6 
REMARK       I    between atoms: C_6  and  N_7 
REMARK    2  A    between atoms: N_7  and  C_8 
REMARK    3  A    between atoms: C_8  and  C_9 
REMARK       I    between atoms: C_9  and  N_10 
REMARK    4  A    between atoms: N_10  and  C_11 
ROOT
HETATM    1  N   UNL     1     -42.338  55.129 -53.459  1.00  0.00    -0.307 N 
HETATM    2  C   UNL     1     -41.963  56.344 -53.966  1.00  0.00     0.321 C 
HETATM    3  N   UNL     1     -43.029  56.981 -54.562  1.00  0.00    -0.334 N 
HETATM    4  O   UNL     1     -40.850  56.852 -53.905  1.00  0.00    -0.247 OA
HETATM    5  H   UNL     1     -43.303  55.047 -53.153  1.00  0.00     0.170 HD
HETATM    6  H   UNL     1     -43.666  56.365 -55.050  1.00  0.00     0.164 HD
ENDROOT
BRANCH   3   7
HETATM    7  C   UNL     1     -42.825  58.290 -55.148  1.00  0.00     0.227 C 
BRANCH   7   8
HETATM    8  C   UNL     1     -42.651  58.193 -56.667  1.00  0.00     0.239 C 
HETATM    9  N   UNL     1     -42.707  59.422 -57.287  1.00  0.00    -0.324 N 
HETATM   10  H   UNL     1     -42.661  60.254 -56.693  1.00  0.00     0.169 HD
HETATM   11  O   UNL     1     -42.427  57.111 -57.206  1.00  0.00    -0.271 OA
BRANCH   9  12
HETATM   12  C   UNL     1     -42.688  59.726 -58.668  1.00  0.00     0.064 A 
HETATM   13  C   UNL     1     -41.788  60.730 -59.065  1.00  0.00     0.093 A 
HETATM   14  C   UNL     1     -41.734  61.084 -60.430  1.00  0.00    -0.005 A 
HETATM   15  N   UNL     1     -41.004  61.341 -58.144  1.00  0.00    -0.258 NA
HETATM   16  C   UNL     1     -40.838  62.089 -60.822  1.00  0.00     0.015 A 
HETATM   17  C   UNL     1     -42.568  60.445 -61.361  1.00  0.00     0.014 A 
HETATM   18  C   UNL     1     -40.032  62.708 -59.873  1.00  0.00     0.020 A 
HETATM   19  C   UNL     1     -40.150  62.301 -58.560  1.00  0.00     0.117 A 
HETATM   20  C   UNL     1     -43.456  59.458 -60.946  1.00  0.00     0.003 A 
HETATM   21  C   UNL     1     -43.519  59.099 -59.601  1.00  0.00     0.032 A 
ENDBRANCH   9  12
ENDBRANCH   7   8
ENDBRANCH   3   7
BRANCH   1  22
HETATM   22  C   UNL     1     -41.485  54.143 -52.906  1.00  0.00     0.066 A 
HETATM   23  C   UNL     1     -40.940  53.110 -53.679  1.00  0.00     0.038 A 
HETATM   24  C   UNL     1     -40.134  52.133 -53.089  1.00  0.00    -0.059 A 
HETATM   25  C   UNL     1     -39.544  51.031 -53.919  1.00  0.00     0.048 C 
HETATM   26  C   UNL     1     -39.848  52.227 -51.725  1.00  0.00     0.020 A 
HETATM   27  C   UNL     1     -40.391  53.263 -50.945  1.00  0.00    -0.005 A 
HETATM   28  C   UNL     1     -41.236  54.230 -51.528  1.00  0.00     0.093 A 
HETATM   29  C   UNL     1     -40.108  53.370 -49.576  1.00  0.00     0.015 A 
HETATM   30  N   UNL     1     -41.782  55.235 -50.799  1.00  0.00    -0.258 NA
HETATM   31  C   UNL     1     -41.482  55.304 -49.483  1.00  0.00     0.117 A 
HETATM   32  C   UNL     1     -40.658  54.407 -48.832  1.00  0.00     0.020 A 
ENDBRANCH   1  22
TORSDOF 4
ENDMDL
MODEL 9
REMARK VINA RESULT:      -8.5      5.344      9.142
REMARK  4 active torsions:
REMARK  status: ('A' for Active; 'I' for Inactive)
REMARK    1  A    between atoms: C_4  and  N_5 
REMARK       I    between atoms: N_5  and  C_6 
REMARK       I    between atoms: C_6  and  N_7 
REMARK    2  A    between atoms: N_7  and  C_8 
REMARK    3  A    between atoms: C_8  and  C_9 
REMARK       I    between atoms: C_9  and  N_10 
REMARK    4  A    between atoms: N_10  and  C_11 
ROOT
HETATM    1  N   UNL     1     -44.928  60.394 -49.736  1.00  0.00    -0.307 N 
HETATM    2  C   UNL     1     -45.365  59.227 -50.303  1.00  0.00     0.321 C 
HETATM    3  N   UNL     1     -44.303  58.445 -50.704  1.00  0.00    -0.334 N 
HETATM    4  O   UNL     1     -46.528  58.869 -50.439  1.00  0.00    -0.247 OA
HETATM    5  H   UNL     1     -44.028  60.358 -49.266  1.00  0.00     0.170 HD
HETATM    6  H   UNL     1     -43.516  58.964 -51.071  1.00  0.00     0.164 HD
ENDROOT
BRANCH   3   7
HETATM    7  C   UNL     1     -44.571  57.161 -51.318  1.00  0.00     0.227 C 
BRANCH   7   8
HETATM    8  C   UNL     1     -43.401  56.718 -52.202  1.00  0.00     0.239 C 
HETATM    9  N   UNL     1     -43.458  55.381 -52.526  1.00  0.00    -0.324 N 
HETATM   10  H   UNL     1     -44.330  54.882 -52.327  1.00  0.00     0.169 HD
HETATM   11  O   UNL     1     -42.568  57.531 -52.595  1.00  0.00    -0.271 OA
BRANCH   9  12
HETATM   12  C   UNL     1     -42.519  54.593 -53.232  1.00  0.00     0.064 A 
HETATM   13  C   UNL     1     -41.668  53.796 -52.446  1.00  0.00     0.093 A 
HETATM   14  C   UNL     1     -40.702  52.999 -53.095  1.00  0.00    -0.005 A 
HETATM   15  N   UNL     1     -41.780  53.814 -51.095  1.00  0.00    -0.258 NA
HETATM   16  C   UNL     1     -39.854  52.208 -52.307  1.00  0.00     0.015 A 
HETATM   17  C   UNL     1     -40.599  53.010 -54.495  1.00  0.00     0.014 A 
HETATM   18  C   UNL     1     -39.977  52.226 -50.923  1.00  0.00     0.020 A 
HETATM   19  C   UNL     1     -40.947  53.036 -50.370  1.00  0.00     0.117 A 
HETATM   20  C   UNL     1     -41.446  53.810 -55.255  1.00  0.00     0.003 A 
HETATM   21  C   UNL     1     -42.404  54.604 -54.625  1.00  0.00     0.032 A 
ENDBRANCH   9  12
ENDBRANCH   7   8
ENDBRANCH   3   7
BRANCH   1  22
HETATM   22  C   UNL     1     -45.728  61.493 -49.340  1.00  0.00     0.066 A 
HETATM   23  C   UNL     1     -46.512  62.211 -50.251  1.00  0.00     0.038 A 
HETATM   24  C   UNL     1     -47.258  63.315 -49.830  1.00  0.00    -0.059 A 
HETATM   25  C   UNL     1     -48.105  64.078 -50.805  1.00  0.00     0.048 C 
HETATM   26  C   UNL     1     -47.241  63.664 -48.477  1.00  0.00     0.020 A 
HETATM   27  C   UNL     1     -46.456  62.947 -47.558  1.00  0.00    -0.005 A 
HETATM   28  C   UNL     1     -45.671  61.855 -47.986  1.00  0.00     0.093 A 
HETATM   29  C   UNL     1     -46.432  63.286 -46.198  1.00  0.00     0.015 A 
HETATM   30  N   UNL     1     -44.897  61.150 -47.123  1.00  0.00    -0.258 NA
HETATM   31  C   UNL     1     -44.905  61.508 -45.821  1.00  0.00     0.117 A 
HETATM   32  C   UNL     1     -45.648  62.555 -45.314  1.00  0.00     0.020 A 
ENDBRANCH   1  22
TORSDOF 4
ENDMDL
MODEL 10
REMARK VINA RESULT:      -8.5      2.732      3.690
REMARK  4 active torsions:
REMARK  status: ('A' for Active; 'I' for Inactive)
REMARK    1  A    between atoms: C_4  and  N_5 
REMARK       I    between atoms: N_5  and  C_6 
REMARK       I    between atoms: C_6  and  N_7 
REMARK    2  A    between atoms: N_7  and  C_8 
REMARK    3  A    between atoms: C_8  and  C_9 
REMARK       I    between atoms: C_9  and  N_10 
REMARK    4  A    between atoms: N_10  and  C_11 
ROOT
HETATM    1  N   UNL     1     -40.694  54.181 -54.386  1.00  0.00    -0.307 N 
HETATM    2  C   UNL     1     -41.889  54.349 -55.034  1.00  0.00     0.321 C 
HETATM    3  N   UNL     1     -41.727  55.095 -56.181  1.00  0.00    -0.334 N 
HETATM    4  O   UNL     1     -42.976  53.901 -54.694  1.00  0.00    -0.247 OA
HETATM    5  H   UNL     1     -39.863  54.168 -54.970  1.00  0.00     0.170 HD
HETATM    6  H   UNL     1     -41.043  55.836 -56.106  1.00  0.00     0.164 HD
ENDROOT
BRANCH   3   7
HETATM    7  C   UNL     1     -42.884  55.369 -57.007  1.00  0.00     0.227 C 
BRANCH   7   8
HETATM    8  C   UNL     1     -43.199  56.868 -57.036  1.00  0.00     0.239 C 
HETATM    9  N   UNL     1     -44.546  57.129 -56.917  1.00  0.00    -0.324 N 
HETATM   10  H   UNL     1     -45.156  56.356 -56.635  1.00  0.00     0.169 HD
HETATM   11  O   UNL     1     -42.296  57.698 -57.099  1.00  0.00    -0.271 OA
BRANCH   9  12
HETATM   12  C   UNL     1     -45.226  58.367 -57.000  1.00  0.00     0.064 A 
HETATM   13  C   UNL     1     -46.004  58.567 -58.153  1.00  0.00     0.093 A 
HETATM   14  C   UNL     1     -46.694  59.790 -58.296  1.00  0.00    -0.005 A 
HETATM   15  N   UNL     1     -46.070  57.602 -59.102  1.00  0.00    -0.258 NA
HETATM   16  C   UNL     1     -47.466  59.987 -59.450  1.00  0.00     0.015 A 
HETATM   17  C   UNL     1     -46.597  60.779 -57.304  1.00  0.00     0.014 A 
HETATM   18  C   UNL     1     -47.536  58.990 -60.416  1.00  0.00     0.020 A 
HETATM   19  C   UNL     1     -46.827  57.827 -60.197  1.00  0.00     0.117 A 
HETATM   20  C   UNL     1     -45.816  60.563 -56.173  1.00  0.00     0.003 A 
HETATM   21  C   UNL     1     -45.128  59.360 -56.020  1.00  0.00     0.032 A 
ENDBRANCH   9  12
ENDBRANCH   7   8
ENDBRANCH   3   7
BRANCH   1  22
HETATM   22  C   UNL     1     -40.498  53.594 -53.112  1.00  0.00     0.066 A 
HETATM   23  C   UNL     1     -40.613  54.331 -51.927  1.00  0.00     0.038 A 
HETATM   24  C   UNL     1     -40.373  53.726 -50.690  1.00  0.00    -0.059 A 
HETATM   25  C   UNL     1     -40.505  54.513 -49.420  1.00  0.00     0.048 C 
HETATM   26  C   UNL     1     -40.058  52.365 -50.654  1.00  0.00     0.020 A 
HETATM   27  C   UNL     1     -39.943  51.621 -51.841  1.00  0.00    -0.005 A 
HETATM   28  C   UNL     1     -40.147  52.236 -53.094  1.00  0.00     0.093 A 
HETATM   29  C   UNL     1     -39.630  50.255 -51.817  1.00  0.00     0.015 A 
HETATM   30  N   UNL     1     -40.033  51.546 -54.256  1.00  0.00    -0.258 NA
HETATM   31  C   UNL     1     -39.732  50.230 -54.189  1.00  0.00     0.117 A 
HETATM   32  C   UNL     1     -39.526  49.546 -53.008  1.00  0.00     0.020 A 
ENDBRANCH   1  22
TORSDOF 4
ENDMDL
