MODEL 1
REMARK VINA RESULT:      -7.6      0.000      0.000
REMARK  6 active torsions:
REMARK  status: ('A' for Active; 'I' for Inactive)
REMARK    1  A    between atoms: N_2  and  C_4 
REMARK    2  A    between atoms: C_4  and  C_5 
REMARK    3  A    between atoms: C_5  and  N_6 
REMARK    4  A    between atoms: C_5  and  C_21 
REMARK       I    between atoms: N_6  and  C_7 
REMARK       I    between atoms: C_7  and  N_8 
REMARK    5  A    between atoms: N_8  and  C_9 
REMARK    6  A    between atoms: C_12  and  C_13 
ROOT
HETATM    1  N   UNL     1     -42.099  57.711 -54.132  1.00  0.00    -0.333 N 
HETATM    2  C   UNL     1     -41.534  58.914 -54.441  1.00  0.00     0.322 C 
HETATM    3  N   UNL     1     -41.933  59.526 -55.584  1.00  0.00    -0.287 N 
HETATM    4  O   UNL     1     -40.708  59.444 -53.702  1.00  0.00    -0.247 OA
HETATM    5  H   UNL     1     -42.479  57.225 -54.942  1.00  0.00     0.165 HD
HETATM    6  H   UNL     1     -41.451  60.379 -55.833  1.00  0.00     0.172 HD
ENDROOT
BRANCH   1   7
HETATM    7  C   UNL     1     -41.573  56.901 -53.041  1.00  0.00     0.145 C 
BRANCH   7   8
HETATM    8  C   UNL     1     -42.564  56.739 -51.842  1.00  0.00     0.263 C 
BRANCH   8   9
HETATM    9  N   UNL     1     -42.460  57.850 -50.788  1.00  0.00    -0.076 N 
HETATM   10  C   UNL     1     -43.231  59.090 -51.145  1.00  0.00     0.269 C 
HETATM   11  H   UNL     1     -42.864  57.479 -49.917  1.00  0.00     0.279 HD
HETATM   12  C   UNL     1     -41.023  58.173 -50.488  1.00  0.00     0.269 C 
ENDBRANCH   8   9
ENDBRANCH   7   8
BRANCH   7  13
HETATM   13  C   UNL     1     -41.077  55.538 -53.509  1.00  0.00    -0.034 A 
HETATM   14  C   UNL     1     -40.663  55.294 -54.829  1.00  0.00     0.009 A 
HETATM   15  C   UNL     1     -40.254  54.020 -55.226  1.00  0.00     0.001 A 
HETATM   16  C   UNL     1     -40.257  52.969 -54.313  1.00  0.00     0.000 A 
HETATM   17  C   UNL     1     -40.664  53.192 -53.000  1.00  0.00     0.001 A 
HETATM   18  C   UNL     1     -41.068  54.466 -52.599  1.00  0.00     0.009 A 
ENDBRANCH   7  13
ENDBRANCH   1   7
BRANCH   3  19
HETATM   19  C   UNL     1     -42.940  59.110 -56.406  1.00  0.00     0.175 A 
HETATM   20  S   UNL     1     -44.340  60.075 -56.378  1.00  0.00    -0.061 SA
HETATM   21  C   UNL     1     -45.060  59.020 -57.528  1.00  0.00     0.086 A 
HETATM   22  C   UNL     1     -44.184  57.995 -57.838  1.00  0.00     0.078 A 
HETATM   23  N   UNL     1     -42.954  58.060 -57.190  1.00  0.00    -0.223 NA
BRANCH  22  24
HETATM   24  C   UNL     1     -44.496  56.892 -58.730  1.00  0.00     0.011 A 
HETATM   25  C   UNL     1     -45.666  56.927 -59.485  1.00  0.00     0.130 A 
HETATM   26  N   UNL     1     -46.065  55.955 -60.339  1.00  0.00    -0.272 NA
HETATM   27  C   UNL     1     -45.243  54.889 -60.459  1.00  0.00     0.116 A 
HETATM   28  C   UNL     1     -44.054  54.755 -59.758  1.00  0.00     0.020 A 
HETATM   29  C   UNL     1     -43.678  55.772 -58.879  1.00  0.00     0.017 A 
ENDBRANCH  22  24
ENDBRANCH   3  19
TORSDOF 6
ENDMDL
MODEL 2
REMARK VINA RESULT:      -7.3      2.620      7.055
REMARK  6 active torsions:
REMARK  status: ('A' for Active; 'I' for Inactive)
REMARK    1  A    between atoms: N_2  and  C_4 
REMARK    2  A    between atoms: C_4  and  C_5 
REMARK    3  A    between atoms: C_5  and  N_6 
REMARK    4  A    between atoms: C_5  and  C_21 
REMARK       I    between atoms: N_6  and  C_7 
REMARK       I    between atoms: C_7  and  N_8 
REMARK    5  A    between atoms: N_8  and  C_9 
REMARK    6  A    between atoms: C_12  and  C_13 
ROOT
HETATM    1  N   UNL     1     -43.531  57.291 -56.111  1.00  0.00    -0.333 N 
HETATM    2  C   UNL     1     -44.663  57.334 -55.350  1.00  0.00     0.322 C 
HETATM    3  N   UNL     1     -44.644  56.699 -54.151  1.00  0.00    -0.287 N 
HETATM    4  O   UNL     1     -45.663  57.944 -55.721  1.00  0.00    -0.247 OA
HETATM    5  H   UNL     1     -42.924  56.506 -55.886  1.00  0.00     0.165 HD
HETATM    6  H   UNL     1     -45.513  56.679 -53.635  1.00  0.00     0.172 HD
ENDROOT
BRANCH   1   7
HETATM    7  C   UNL     1     -43.543  57.764 -57.489  1.00  0.00     0.145 C 
BRANCH   7   8
HETATM    8  C   UNL     1     -42.140  58.214 -58.014  1.00  0.00     0.263 C 
BRANCH   8   9
HETATM    9  N   UNL     1     -42.164  59.513 -58.833  1.00  0.00    -0.076 N 
HETATM   10  C   UNL     1     -43.304  60.425 -58.477  1.00  0.00     0.269 C 
HETATM   11  H   UNL     1     -41.291  60.018 -58.623  1.00  0.00     0.279 HD
HETATM   12  C   UNL     1     -42.144  59.219 -60.306  1.00  0.00     0.269 C 
ENDBRANCH   8   9
ENDBRANCH   7   8
BRANCH   7  13
HETATM   13  C   UNL     1     -44.173  56.762 -58.448  1.00  0.00    -0.034 A 
HETATM   14  C   UNL     1     -43.623  55.492 -58.687  1.00  0.00     0.009 A 
HETATM   15  C   UNL     1     -44.209  54.619 -59.605  1.00  0.00     0.001 A 
HETATM   16  C   UNL     1     -45.352  55.003 -60.302  1.00  0.00     0.000 A 
HETATM   17  C   UNL     1     -45.912  56.258 -60.079  1.00  0.00     0.001 A 
HETATM   18  C   UNL     1     -45.330  57.130 -59.158  1.00  0.00     0.009 A 
ENDBRANCH   7  13
ENDBRANCH   1   7
BRANCH   3  19
HETATM   19  C   UNL     1     -43.555  56.115 -53.571  1.00  0.00     0.175 A 
HETATM   20  S   UNL     1     -42.753  57.070 -52.415  1.00  0.00    -0.061 SA
HETATM   21  C   UNL     1     -41.626  55.794 -52.180  1.00  0.00     0.086 A 
HETATM   22  C   UNL     1     -41.934  54.735 -53.015  1.00  0.00     0.078 A 
HETATM   23  N   UNL     1     -43.059  54.926 -53.812  1.00  0.00    -0.223 NA
BRANCH  22  24
HETATM   24  C   UNL     1     -41.148  53.518 -53.119  1.00  0.00     0.011 A 
HETATM   25  C   UNL     1     -40.363  53.111 -52.044  1.00  0.00     0.130 A 
HETATM   26  N   UNL     1     -39.583  52.004 -52.029  1.00  0.00    -0.272 NA
HETATM   27  C   UNL     1     -39.595  51.250 -53.150  1.00  0.00     0.116 A 
HETATM   28  C   UNL     1     -40.342  51.561 -54.276  1.00  0.00     0.020 A 
HETATM   29  C   UNL     1     -41.128  52.714 -54.259  1.00  0.00     0.017 A 
ENDBRANCH  22  24
ENDBRANCH   3  19
TORSDOF 6
ENDMDL
MODEL 3
REMARK VINA RESULT:      -7.1      2.753      6.630
REMARK  6 active torsions:
REMARK  status: ('A' for Active; 'I' for Inactive)
REMARK    1  A    between atoms: N_2  and  C_4 
REMARK    2  A    between atoms: C_4  and  C_5 
REMARK    3  A    between atoms: C_5  and  N_6 
REMARK    4  A    between atoms: C_5  and  C_21 
REMARK       I    between atoms: N_6  and  C_7 
REMARK       I    between atoms: C_7  and  N_8 
REMARK    5  A    between atoms: N_8  and  C_9 
REMARK    6  A    between atoms: C_12  and  C_13 
ROOT
HETATM    1  N   UNL     1     -43.217  57.864 -55.194  1.00  0.00    -0.333 N 
HETATM    2  C   UNL     1     -44.437  57.687 -54.611  1.00  0.00     0.322 C 
HETATM    3  N   UNL     1     -44.538  56.767 -53.619  1.00  0.00    -0.287 N 
HETATM    4  O   UNL     1     -45.414  58.351 -54.952  1.00  0.00    -0.247 OA
HETATM    5  H   UNL     1     -42.601  57.060 -55.091  1.00  0.00     0.165 HD
HETATM    6  H   UNL     1     -45.465  56.598 -53.250  1.00  0.00     0.172 HD
ENDROOT
BRANCH   1   7
HETATM    7  C   UNL     1     -43.077  58.673 -56.398  1.00  0.00     0.145 C 
BRANCH   7   8
HETATM    8  C   UNL     1     -41.966  59.769 -56.296  1.00  0.00     0.263 C 
BRANCH   8   9
HETATM    9  N   UNL     1     -42.494  61.208 -56.382  1.00  0.00    -0.076 N 
HETATM   10  C   UNL     1     -43.990  61.305 -56.276  1.00  0.00     0.269 C 
HETATM   11  H   UNL     1     -42.097  61.724 -55.585  1.00  0.00     0.279 HD
HETATM   12  C   UNL     1     -41.994  61.889 -57.625  1.00  0.00     0.269 C 
ENDBRANCH   8   9
ENDBRANCH   7   8
BRANCH   7  13
HETATM   13  C   UNL     1     -42.880  57.830 -57.652  1.00  0.00    -0.034 A 
HETATM   14  C   UNL     1     -43.407  56.535 -57.786  1.00  0.00     0.009 A 
HETATM   15  C   UNL     1     -43.168  55.781 -58.936  1.00  0.00     0.001 A 
HETATM   16  C   UNL     1     -42.394  56.306 -59.967  1.00  0.00     0.000 A 
HETATM   17  C   UNL     1     -41.861  57.587 -59.852  1.00  0.00     0.001 A 
HETATM   18  C   UNL     1     -42.103  58.345 -58.705  1.00  0.00     0.009 A 
ENDBRANCH   7  13
ENDBRANCH   1   7
BRANCH   3  19
HETATM   19  C   UNL     1     -43.503  56.077 -53.058  1.00  0.00     0.175 A 
HETATM   20  S   UNL     1     -42.836  56.783 -51.662  1.00  0.00    -0.061 SA
HETATM   21  C   UNL     1     -41.716  55.483 -51.570  1.00  0.00     0.086 A 
HETATM   22  C   UNL     1     -41.921  54.611 -52.624  1.00  0.00     0.078 A 
HETATM   23  N   UNL     1     -42.964  54.958 -53.477  1.00  0.00    -0.223 NA
BRANCH  22  24
HETATM   24  C   UNL     1     -41.108  53.436 -52.885  1.00  0.00     0.011 A 
HETATM   25  C   UNL     1     -40.281  52.934 -51.884  1.00  0.00     0.130 A 
HETATM   26  N   UNL     1     -39.473  51.855 -52.015  1.00  0.00    -0.272 NA
HETATM   27  C   UNL     1     -39.500  51.230 -53.213  1.00  0.00     0.116 A 
HETATM   28  C   UNL     1     -40.288  51.644 -54.276  1.00  0.00     0.020 A 
HETATM   29  C   UNL     1     -41.102  52.765 -54.109  1.00  0.00     0.017 A 
ENDBRANCH  22  24
ENDBRANCH   3  19
TORSDOF 6
ENDMDL
MODEL 4
REMARK VINA RESULT:      -7.1      3.373      6.626
REMARK  6 active torsions:
REMARK  status: ('A' for Active; 'I' for Inactive)
REMARK    1  A    between atoms: N_2  and  C_4 
REMARK    2  A    between atoms: C_4  and  C_5 
REMARK    3  A    between atoms: C_5  and  N_6 
REMARK    4  A    between atoms: C_5  and  C_21 
REMARK       I    between atoms: N_6  and  C_7 
REMARK       I    between atoms: C_7  and  N_8 
REMARK    5  A    between atoms: N_8  and  C_9 
REMARK    6  A    between atoms: C_12  and  C_13 
ROOT
HETATM    1  N   UNL     1     -43.764  56.923 -52.585  1.00  0.00    -0.333 N 
HETATM    2  C   UNL     1     -44.319  56.902 -51.339  1.00  0.00     0.322 C 
HETATM    3  N   UNL     1     -43.777  56.065 -50.418  1.00  0.00    -0.287 N 
HETATM    4  O   UNL     1     -45.265  57.629 -51.045  1.00  0.00    -0.247 OA
HETATM    5  H   UNL     1     -43.250  56.074 -52.811  1.00  0.00     0.165 HD
HETATM    6  H   UNL     1     -44.247  56.009 -49.525  1.00  0.00     0.172 HD
ENDROOT
BRANCH   1   7
HETATM    7  C   UNL     1     -44.417  57.632 -53.678  1.00  0.00     0.145 C 
BRANCH   7   8
HETATM    8  C   UNL     1     -44.273  59.187 -53.596  1.00  0.00     0.263 C 
BRANCH   8   9
HETATM    9  N   UNL     1     -42.831  59.674 -53.393  1.00  0.00    -0.076 N 
HETATM   10  C   UNL     1     -42.614  60.374 -52.081  1.00  0.00     0.269 C 
HETATM   11  H   UNL     1     -42.228  58.840 -53.399  1.00  0.00     0.279 HD
HETATM   12  C   UNL     1     -42.387  60.531 -54.545  1.00  0.00     0.269 C 
ENDBRANCH   8   9
ENDBRANCH   7   8
BRANCH   7  13
HETATM   13  C   UNL     1     -43.978  57.129 -55.048  1.00  0.00    -0.034 A 
HETATM   14  C   UNL     1     -44.323  57.783 -56.242  1.00  0.00     0.009 A 
HETATM   15  C   UNL     1     -43.935  57.265 -57.479  1.00  0.00     0.001 A 
HETATM   16  C   UNL     1     -43.202  56.084 -57.543  1.00  0.00     0.000 A 
HETATM   17  C   UNL     1     -42.851  55.420 -56.370  1.00  0.00     0.001 A 
HETATM   18  C   UNL     1     -43.233  55.939 -55.132  1.00  0.00     0.009 A 
ENDBRANCH   7  13
ENDBRANCH   1   7
BRANCH   3  19
HETATM   19  C   UNL     1     -42.645  55.321 -50.581  1.00  0.00     0.175 A 
HETATM   20  S   UNL     1     -41.381  55.684 -49.503  1.00  0.00    -0.061 SA
HETATM   21  C   UNL     1     -40.420  54.478 -50.261  1.00  0.00     0.086 A 
HETATM   22  C   UNL     1     -41.129  53.895 -51.296  1.00  0.00     0.078 A 
HETATM   23  N   UNL     1     -42.421  54.384 -51.469  1.00  0.00    -0.223 NA
BRANCH  22  24
HETATM   24  C   UNL     1     -40.593  52.881 -52.187  1.00  0.00     0.011 A 
HETATM   25  C   UNL     1     -39.829  51.841 -51.667  1.00  0.00     0.130 A 
HETATM   26  N   UNL     1     -39.271  50.848 -52.399  1.00  0.00    -0.272 NA
HETATM   27  C   UNL     1     -39.498  50.887 -53.730  1.00  0.00     0.116 A 
HETATM   28  C   UNL     1     -40.246  51.875 -54.352  1.00  0.00     0.020 A 
HETATM   29  C   UNL     1     -40.799  52.888 -53.568  1.00  0.00     0.017 A 
ENDBRANCH  22  24
ENDBRANCH   3  19
TORSDOF 6
ENDMDL
MODEL 5
REMARK VINA RESULT:      -7.0      2.737      4.023
REMARK  6 active torsions:
REMARK  status: ('A' for Active; 'I' for Inactive)
REMARK    1  A    between atoms: N_2  and  C_4 
REMARK    2  A    between atoms: C_4  and  C_5 
REMARK    3  A    between atoms: C_5  and  N_6 
REMARK    4  A    between atoms: C_5  and  C_21 
REMARK       I    between atoms: N_6  and  C_7 
REMARK       I    between atoms: C_7  and  N_8 
REMARK    5  A    between atoms: N_8  and  C_9 
REMARK    6  A    between atoms: C_12  and  C_13 
ROOT
HETATM    1  N   UNL     1     -41.869  56.148 -55.483  1.00  0.00    -0.333 N 
HETATM    2  C   UNL     1     -43.034  55.486 -55.737  1.00  0.00     0.322 C 
HETATM    3  N   UNL     1     -43.692  55.779 -56.887  1.00  0.00    -0.287 N 
HETATM    4  O   UNL     1     -43.470  54.634 -54.966  1.00  0.00    -0.247 OA
HETATM    5  H   UNL     1     -41.793  57.034 -55.978  1.00  0.00     0.165 HD
HETATM    6  H   UNL     1     -44.589  55.333 -57.023  1.00  0.00     0.172 HD
ENDROOT
BRANCH   1   7
HETATM    7  C   UNL     1     -41.222  56.042 -54.181  1.00  0.00     0.145 C 
BRANCH   7   8
HETATM    8  C   UNL     1     -42.083  56.604 -53.002  1.00  0.00     0.263 C 
BRANCH   8   9
HETATM    9  N   UNL     1     -41.499  57.862 -52.343  1.00  0.00    -0.076 N 
HETATM   10  C   UNL     1     -40.440  58.535 -53.170  1.00  0.00     0.269 C 
HETATM   11  H   UNL     1     -42.273  58.532 -52.233  1.00  0.00     0.279 HD
HETATM   12  C   UNL     1     -40.995  57.558 -50.960  1.00  0.00     0.269 C 
ENDBRANCH   8   9
ENDBRANCH   7   8
BRANCH   7  13
HETATM   13  C   UNL     1     -40.756  54.625 -53.871  1.00  0.00    -0.034 A 
HETATM   14  C   UNL     1     -40.299  53.743 -54.864  1.00  0.00     0.009 A 
HETATM   15  C   UNL     1     -39.920  52.439 -54.542  1.00  0.00     0.001 A 
HETATM   16  C   UNL     1     -39.995  51.994 -53.225  1.00  0.00     0.000 A 
HETATM   17  C   UNL     1     -40.446  52.854 -52.227  1.00  0.00     0.001 A 
HETATM   18  C   UNL     1     -40.821  54.160 -52.546  1.00  0.00     0.009 A 
ENDBRANCH   7  13
ENDBRANCH   1   7
BRANCH   3  19
HETATM   19  C   UNL     1     -43.238  56.594 -57.883  1.00  0.00     0.175 A 
HETATM   20  S   UNL     1     -43.146  55.874 -59.421  1.00  0.00    -0.061 SA
HETATM   21  C   UNL     1     -42.551  57.358 -60.053  1.00  0.00     0.086 A 
HETATM   22  C   UNL     1     -42.449  58.293 -59.039  1.00  0.00     0.078 A 
HETATM   23  N   UNL     1     -42.857  57.844 -57.786  1.00  0.00    -0.223 NA
BRANCH  22  24
HETATM   24  C   UNL     1     -41.921  59.635 -59.212  1.00  0.00     0.011 A 
HETATM   25  C   UNL     1     -41.416  60.324 -58.113  1.00  0.00     0.130 A 
HETATM   26  N   UNL     1     -40.909  61.579 -58.153  1.00  0.00    -0.272 NA
HETATM   27  C   UNL     1     -40.893  62.180 -59.363  1.00  0.00     0.116 A 
HETATM   28  C   UNL     1     -41.368  61.584 -60.521  1.00  0.00     0.020 A 
HETATM   29  C   UNL     1     -41.892  60.293 -60.443  1.00  0.00     0.017 A 
ENDBRANCH  22  24
ENDBRANCH   3  19
TORSDOF 6
ENDMDL
MODEL 6
REMARK VINA RESULT:      -6.9      1.860      2.390
REMARK  6 active torsions:
REMARK  status: ('A' for Active; 'I' for Inactive)
REMARK    1  A    between atoms: N_2  and  C_4 
REMARK    2  A    between atoms: C_4  and  C_5 
REMARK    3  A    between atoms: C_5  and  N_6 
REMARK    4  A    between atoms: C_5  and  C_21 
REMARK       I    between atoms: N_6  and  C_7 
REMARK       I    between atoms: C_7  and  N_8 
REMARK    5  A    between atoms: N_8  and  C_9 
REMARK    6  A    between atoms: C_12  and  C_13 
ROOT
HETATM    1  N   UNL     1     -41.402  57.251 -52.728  1.00  0.00    -0.333 N 
HETATM    2  C   UNL     1     -41.096  58.514 -52.314  1.00  0.00     0.322 C 
HETATM    3  N   UNL     1     -41.299  59.533 -53.186  1.00  0.00    -0.287 N 
HETATM    4  O   UNL     1     -40.671  58.732 -51.181  1.00  0.00    -0.247 OA
HETATM    5  H   UNL     1     -41.405  57.149 -53.741  1.00  0.00     0.165 HD
HETATM    6  H   UNL     1     -40.998  60.451 -52.887  1.00  0.00     0.172 HD
ENDROOT
BRANCH   1   7
HETATM    7  C   UNL     1     -41.017  56.093 -51.933  1.00  0.00     0.145 C 
BRANCH   7   8
HETATM    8  C   UNL     1     -42.036  55.738 -50.800  1.00  0.00     0.263 C 
BRANCH   8   9
HETATM    9  N   UNL     1     -43.483  55.576 -51.287  1.00  0.00    -0.076 N 
HETATM   10  C   UNL     1     -44.360  56.753 -50.963  1.00  0.00     0.269 C 
HETATM   11  H   UNL     1     -43.449  55.493 -52.312  1.00  0.00     0.279 HD
HETATM   12  C   UNL     1     -44.082  54.297 -50.774  1.00  0.00     0.269 C 
ENDBRANCH   8   9
ENDBRANCH   7   8
BRANCH   7  13
HETATM   13  C   UNL     1     -40.723  54.866 -52.786  1.00  0.00    -0.034 A 
HETATM   14  C   UNL     1     -40.626  54.921 -54.187  1.00  0.00     0.009 A 
HETATM   15  C   UNL     1     -40.396  53.765 -54.934  1.00  0.00     0.001 A 
HETATM   16  C   UNL     1     -40.265  52.535 -54.296  1.00  0.00     0.000 A 
HETATM   17  C   UNL     1     -40.358  52.460 -52.909  1.00  0.00     0.001 A 
HETATM   18  C   UNL     1     -40.582  53.615 -52.159  1.00  0.00     0.009 A 
ENDBRANCH   7  13
ENDBRANCH   1   7
BRANCH   3  19
HETATM   19  C   UNL     1     -41.896  59.434 -54.408  1.00  0.00     0.175 A 
HETATM   20  S   UNL     1     -43.030  60.652 -54.760  1.00  0.00    -0.061 SA
HETATM   21  C   UNL     1     -43.313  59.914 -56.286  1.00  0.00     0.086 A 
HETATM   22  C   UNL     1     -42.533  58.779 -56.410  1.00  0.00     0.078 A 
HETATM   23  N   UNL     1     -41.708  58.513 -55.321  1.00  0.00    -0.223 NA
BRANCH  22  24
HETATM   24  C   UNL     1     -42.570  57.880 -57.551  1.00  0.00     0.011 A 
HETATM   25  C   UNL     1     -43.132  56.614 -57.413  1.00  0.00     0.130 A 
HETATM   26  N   UNL     1     -43.214  55.691 -58.400  1.00  0.00    -0.272 NA
HETATM   27  C   UNL     1     -42.715  56.055 -59.602  1.00  0.00     0.116 A 
HETATM   28  C   UNL     1     -42.136  57.291 -59.849  1.00  0.00     0.020 A 
HETATM   29  C   UNL     1     -42.061  58.215 -58.807  1.00  0.00     0.017 A 
ENDBRANCH  22  24
ENDBRANCH   3  19
TORSDOF 6
ENDMDL
MODEL 7
REMARK VINA RESULT:      -6.5      2.906      5.143
REMARK  6 active torsions:
REMARK  status: ('A' for Active; 'I' for Inactive)
REMARK    1  A    between atoms: N_2  and  C_4 
REMARK    2  A    between atoms: C_4  and  C_5 
REMARK    3  A    between atoms: C_5  and  N_6 
REMARK    4  A    between atoms: C_5  and  C_21 
REMARK       I    between atoms: N_6  and  C_7 
REMARK       I    between atoms: C_7  and  N_8 
REMARK    5  A    between atoms: N_8  and  C_9 
REMARK    6  A    between atoms: C_12  and  C_13 
ROOT
HETATM    1  N   UNL     1     -42.276  55.833 -55.771  1.00  0.00    -0.333 N 
HETATM    2  C   UNL     1     -43.097  54.870 -56.283  1.00  0.00     0.322 C 
HETATM    3  N   UNL     1     -43.640  55.088 -57.508  1.00  0.00    -0.287 N 
HETATM    4  O   UNL     1     -43.323  53.829 -55.673  1.00  0.00    -0.247 OA
HETATM    5  H   UNL     1     -42.435  56.754 -56.175  1.00  0.00     0.165 HD
HETATM    6  H   UNL     1     -44.302  54.399 -57.838  1.00  0.00     0.172 HD
ENDROOT
BRANCH   1   7
HETATM    7  C   UNL     1     -41.828  55.768 -54.386  1.00  0.00     0.145 C 
BRANCH   7   8
HETATM    8  C   UNL     1     -40.424  55.102 -54.208  1.00  0.00     0.263 C 
BRANCH   8   9
HETATM    9  N   UNL     1     -40.453  53.777 -53.432  1.00  0.00    -0.076 N 
HETATM   10  C   UNL     1     -40.313  52.565 -54.310  1.00  0.00     0.269 C 
HETATM   11  H   UNL     1     -39.647  53.786 -52.791  1.00  0.00     0.279 HD
HETATM   12  C   UNL     1     -41.682  53.685 -52.573  1.00  0.00     0.269 C 
ENDBRANCH   8   9
ENDBRANCH   7   8
BRANCH   7  13
HETATM   13  C   UNL     1     -41.865  57.125 -53.694  1.00  0.00    -0.034 A 
HETATM   14  C   UNL     1     -43.065  57.772 -53.356  1.00  0.00     0.009 A 
HETATM   15  C   UNL     1     -43.054  59.033 -52.759  1.00  0.00     0.001 A 
HETATM   16  C   UNL     1     -41.845  59.671 -52.496  1.00  0.00     0.000 A 
HETATM   17  C   UNL     1     -40.645  59.047 -52.825  1.00  0.00     0.001 A 
HETATM   18  C   UNL     1     -40.653  57.783 -53.417  1.00  0.00     0.009 A 
ENDBRANCH   7  13
ENDBRANCH   1   7
BRANCH   3  19
HETATM   19  C   UNL     1     -43.351  56.131 -58.338  1.00  0.00     0.175 A 
HETATM   20  S   UNL     1     -43.674  55.854 -59.985  1.00  0.00    -0.061 SA
HETATM   21  C   UNL     1     -43.106  57.438 -60.337  1.00  0.00     0.086 A 
HETATM   22  C   UNL     1     -42.694  58.059 -59.172  1.00  0.00     0.078 A 
HETATM   23  N   UNL     1     -42.848  57.297 -58.017  1.00  0.00    -0.223 NA
BRANCH  22  24
HETATM   24  C   UNL     1     -42.101  59.383 -59.115  1.00  0.00     0.011 A 
HETATM   25  C   UNL     1     -41.616  59.870 -57.904  1.00  0.00     0.130 A 
HETATM   26  N   UNL     1     -41.053  61.089 -57.730  1.00  0.00    -0.272 NA
HETATM   27  C   UNL     1     -40.957  61.867 -58.830  1.00  0.00     0.116 A 
HETATM   28  C   UNL     1     -41.405  61.479 -60.084  1.00  0.00     0.020 A 
HETATM   29  C   UNL     1     -41.988  60.219 -60.227  1.00  0.00     0.017 A 
ENDBRANCH  22  24
ENDBRANCH   3  19
TORSDOF 6
ENDMDL
MODEL 8
REMARK VINA RESULT:      -6.5     16.528     18.473
REMARK  6 active torsions:
REMARK  status: ('A' for Active; 'I' for Inactive)
REMARK    1  A    between atoms: N_2  and  C_4 
REMARK    2  A    between atoms: C_4  and  C_5 
REMARK    3  A    between atoms: C_5  and  N_6 
REMARK    4  A    between atoms: C_5  and  C_21 
REMARK       I    between atoms: N_6  and  C_7 
REMARK       I    between atoms: C_7  and  N_8 
REMARK    5  A    between atoms: N_8  and  C_9 
REMARK    6  A    between atoms: C_12  and  C_13 
ROOT
HETATM    1  N   UNL     1     -35.179  40.767 -54.246  1.00  0.00    -0.333 N 
HETATM    2  C   UNL     1     -35.723  42.011 -54.112  1.00  0.00     0.322 C 
HETATM    3  N   UNL     1     -36.620  42.415 -55.046  1.00  0.00    -0.287 N 
HETATM    4  O   UNL     1     -35.431  42.740 -53.166  1.00  0.00    -0.247 OA
HETATM    5  H   UNL     1     -35.215  40.413 -55.200  1.00  0.00     0.165 HD
HETATM    6  H   UNL     1     -36.956  43.365 -54.970  1.00  0.00     0.172 HD
ENDROOT
BRANCH   1   7
HETATM    7  C   UNL     1     -34.061  40.349 -53.411  1.00  0.00     0.145 C 
BRANCH   7   8
HETATM    8  C   UNL     1     -34.454  39.320 -52.301  1.00  0.00     0.263 C 
BRANCH   8   9
HETATM    9  N   UNL     1     -34.601  39.933 -50.900  1.00  0.00    -0.076 N 
HETATM   10  C   UNL     1     -35.999  40.388 -50.589  1.00  0.00     0.269 C 
HETATM   11  H   UNL     1     -34.361  39.196 -50.222  1.00  0.00     0.279 HD
HETATM   12  C   UNL     1     -33.611  41.044 -50.694  1.00  0.00     0.269 C 
ENDBRANCH   8   9
ENDBRANCH   7   8
BRANCH   7  13
HETATM   13  C   UNL     1     -32.882  39.831 -54.224  1.00  0.00    -0.034 A 
HETATM   14  C   UNL     1     -31.998  38.852 -53.740  1.00  0.00     0.009 A 
HETATM   15  C   UNL     1     -30.906  38.434 -54.502  1.00  0.00     0.001 A 
HETATM   16  C   UNL     1     -30.676  38.991 -55.757  1.00  0.00     0.000 A 
HETATM   17  C   UNL     1     -31.541  39.963 -56.254  1.00  0.00     0.001 A 
HETATM   18  C   UNL     1     -32.636  40.379 -55.496  1.00  0.00     0.009 A 
ENDBRANCH   7  13
ENDBRANCH   1   7
BRANCH   3  19
HETATM   19  C   UNL     1     -37.128  41.646 -56.052  1.00  0.00     0.175 A 
HETATM   20  S   UNL     1     -38.757  41.193 -55.864  1.00  0.00    -0.061 SA
HETATM   21  C   UNL     1     -38.665  40.338 -57.352  1.00  0.00     0.086 A 
HETATM   22  C   UNL     1     -37.390  40.447 -57.879  1.00  0.00     0.078 A 
HETATM   23  N   UNL     1     -36.509  41.214 -57.123  1.00  0.00    -0.223 NA
BRANCH  22  24
HETATM   24  C   UNL     1     -36.949  39.792 -59.098  1.00  0.00     0.011 A 
HETATM   25  C   UNL     1     -35.828  38.968 -59.070  1.00  0.00     0.130 A 
HETATM   26  N   UNL     1     -35.320  38.316 -60.143  1.00  0.00    -0.272 NA
HETATM   27  C   UNL     1     -35.975  38.486 -61.312  1.00  0.00     0.116 A 
HETATM   28  C   UNL     1     -37.102  39.282 -61.450  1.00  0.00     0.020 A 
HETATM   29  C   UNL     1     -37.594  39.946 -60.326  1.00  0.00     0.017 A 
ENDBRANCH  22  24
ENDBRANCH   3  19
TORSDOF 6
ENDMDL
MODEL 9
REMARK VINA RESULT:      -6.4      2.209      2.627
REMARK  6 active torsions:
REMARK  status: ('A' for Active; 'I' for Inactive)
REMARK    1  A    between atoms: N_2  and  C_4 
REMARK    2  A    between atoms: C_4  and  C_5 
REMARK    3  A    between atoms: C_5  and  N_6 
REMARK    4  A    between atoms: C_5  and  C_21 
REMARK       I    between atoms: N_6  and  C_7 
REMARK       I    between atoms: C_7  and  N_8 
REMARK    5  A    between atoms: N_8  and  C_9 
REMARK    6  A    between atoms: C_12  and  C_13 
ROOT
HETATM    1  N   UNL     1     -42.426  56.915 -52.515  1.00  0.00    -0.333 N 
HETATM    2  C   UNL     1     -43.693  56.662 -52.077  1.00  0.00     0.322 C 
HETATM    3  N   UNL     1     -44.726  57.039 -52.872  1.00  0.00    -0.287 N 
HETATM    4  O   UNL     1     -43.901  56.091 -51.008  1.00  0.00    -0.247 OA
HETATM    5  H   UNL     1     -42.380  57.667 -53.199  1.00  0.00     0.165 HD
HETATM    6  H   UNL     1     -45.657  56.910 -52.498  1.00  0.00     0.172 HD
ENDROOT
BRANCH   1   7
HETATM    7  C   UNL     1     -41.283  56.733 -51.630  1.00  0.00     0.145 C 
BRANCH   7   8
HETATM    8  C   UNL     1     -41.462  57.396 -50.224  1.00  0.00     0.263 C 
BRANCH   8   9
HETATM    9  N   UNL     1     -41.008  58.861 -50.159  1.00  0.00    -0.076 N 
HETATM   10  C   UNL     1     -42.057  59.836 -50.615  1.00  0.00     0.269 C 
HETATM   11  H   UNL     1     -40.804  59.070 -49.172  1.00  0.00     0.279 HD
HETATM   12  C   UNL     1     -39.722  59.058 -50.912  1.00  0.00     0.269 C 
ENDBRANCH   8   9
ENDBRANCH   7   8
BRANCH   7  13
HETATM   13  C   UNL     1     -40.883  55.271 -51.481  1.00  0.00    -0.034 A 
HETATM   14  C   UNL     1     -40.902  54.366 -52.555  1.00  0.00     0.009 A 
HETATM   15  C   UNL     1     -40.567  53.024 -52.367  1.00  0.00     0.001 A 
HETATM   16  C   UNL     1     -40.214  52.564 -51.102  1.00  0.00     0.000 A 
HETATM   17  C   UNL     1     -40.190  53.445 -50.024  1.00  0.00     0.001 A 
HETATM   18  C   UNL     1     -40.519  54.788 -50.211  1.00  0.00     0.009 A 
ENDBRANCH   7  13
ENDBRANCH   1   7
BRANCH   3  19
HETATM   19  C   UNL     1     -44.620  57.545 -54.135  1.00  0.00     0.175 A 
HETATM   20  S   UNL     1     -45.067  59.178 -54.298  1.00  0.00    -0.061 SA
HETATM   21  C   UNL     1     -44.710  59.082 -55.977  1.00  0.00     0.086 A 
HETATM   22  C   UNL     1     -44.290  57.803 -56.295  1.00  0.00     0.078 A 
HETATM   23  N   UNL     1     -44.233  56.921 -55.220  1.00  0.00    -0.223 NA
BRANCH  22  24
HETATM   24  C   UNL     1     -43.967  57.358 -57.640  1.00  0.00     0.011 A 
HETATM   25  C   UNL     1     -44.380  58.114 -58.733  1.00  0.00     0.130 A 
HETATM   26  N   UNL     1     -44.146  57.794 -60.028  1.00  0.00    -0.272 NA
HETATM   27  C   UNL     1     -43.449  56.658 -60.247  1.00  0.00     0.116 A 
HETATM   28  C   UNL     1     -42.988  55.833 -59.232  1.00  0.00     0.020 A 
HETATM   29  C   UNL     1     -43.255  56.189 -57.909  1.00  0.00     0.017 A 
ENDBRANCH  22  24
ENDBRANCH   3  19
TORSDOF 6
ENDMDL
MODEL 10
REMARK VINA RESULT:      -6.4      2.742      7.562
REMARK  6 active torsions:
REMARK  status: ('A' for Active; 'I' for Inactive)
REMARK    1  A    between atoms: N_2  and  C_4 
REMARK    2  A    between atoms: C_4  and  C_5 
REMARK    3  A    between atoms: C_5  and  N_6 
REMARK    4  A    between atoms: C_5  and  C_21 
REMARK       I    between atoms: N_6  and  C_7 
REMARK       I    between atoms: C_7  and  N_8 
REMARK    5  A    between atoms: N_8  and  C_9 
REMARK    6  A    between atoms: C_12  and  C_13 
ROOT
HETATM    1  N   UNL     1     -43.624  57.073 -56.203  1.00  0.00    -0.333 N 
HETATM    2  C   UNL     1     -44.729  57.216 -55.416  1.00  0.00     0.322 C 
HETATM    3  N   UNL     1     -44.808  56.458 -54.293  1.00  0.00    -0.287 N 
HETATM    4  O   UNL     1     -45.616  58.018 -55.695  1.00  0.00    -0.247 OA
HETATM    5  H   UNL     1     -43.153  56.179 -56.078  1.00  0.00     0.165 HD
HETATM    6  H   UNL     1     -45.666  56.524 -53.762  1.00  0.00     0.172 HD
ENDROOT
BRANCH   1   7
HETATM    7  C   UNL     1     -43.565  57.691 -57.521  1.00  0.00     0.145 C 
BRANCH   7   8
HETATM    8  C   UNL     1     -42.130  58.154 -57.938  1.00  0.00     0.263 C 
BRANCH   8   9
HETATM    9  N   UNL     1     -41.948  59.678 -57.968  1.00  0.00    -0.076 N 
HETATM   10  C   UNL     1     -42.168  60.335 -56.634  1.00  0.00     0.269 C 
HETATM   11  H   UNL     1     -40.971  59.860 -58.241  1.00  0.00     0.279 HD
HETATM   12  C   UNL     1     -42.811  60.301 -59.028  1.00  0.00     0.269 C 
ENDBRANCH   8   9
ENDBRANCH   7   8
BRANCH   7  13
HETATM   13  C   UNL     1     -44.178  56.815 -58.608  1.00  0.00    -0.034 A 
HETATM   14  C   UNL     1     -43.565  55.638 -59.068  1.00  0.00     0.009 A 
HETATM   15  C   UNL     1     -44.139  54.886 -60.094  1.00  0.00     0.001 A 
HETATM   16  C   UNL     1     -45.332  55.301 -60.680  1.00  0.00     0.000 A 
HETATM   17  C   UNL     1     -45.954  56.465 -60.238  1.00  0.00     0.001 A 
HETATM   18  C   UNL     1     -45.384  57.216 -59.209  1.00  0.00     0.009 A 
ENDBRANCH   7  13
ENDBRANCH   1   7
BRANCH   3  19
HETATM   19  C   UNL     1     -43.828  55.644 -53.805  1.00  0.00     0.175 A 
HETATM   20  S   UNL     1     -43.327  54.406 -54.859  1.00  0.00    -0.061 SA
HETATM   21  C   UNL     1     -42.214  53.873 -53.663  1.00  0.00     0.086 A 
HETATM   22  C   UNL     1     -42.317  54.669 -52.536  1.00  0.00     0.078 A 
HETATM   23  N   UNL     1     -43.249  55.698 -52.631  1.00  0.00    -0.223 NA
BRANCH  22  24
HETATM   24  C   UNL     1     -41.565  54.458 -51.312  1.00  0.00     0.011 A 
HETATM   25  C   UNL     1     -42.074  54.921 -50.102  1.00  0.00     0.130 A 
HETATM   26  N   UNL     1     -41.459  54.792 -48.902  1.00  0.00    -0.272 NA
HETATM   27  C   UNL     1     -40.269  54.151 -48.907  1.00  0.00     0.116 A 
HETATM   28  C   UNL     1     -39.673  53.648 -50.053  1.00  0.00     0.020 A 
HETATM   29  C   UNL     1     -40.331  53.807 -51.274  1.00  0.00     0.017 A 
ENDBRANCH  22  24
ENDBRANCH   3  19
TORSDOF 6
ENDMDL
