MODEL 1
REMARK VINA RESULT:      -6.7      0.000      0.000
REMARK  5 active torsions:
REMARK  status: ('A' for Active; 'I' for Inactive)
REMARK    1  A    between atoms: C_2  and  O_3 
REMARK    2  A    between atoms: C_4  and  C_5 
REMARK    3  A    between atoms: C_5  and  O_6 
REMARK    4  A    between atoms: C_9  and  C_10 
REMARK    5  A    between atoms: C_22  and  O_23 
ROOT
HETATM    1  C   UNL     1     -42.970  57.531 -56.263  1.00  0.00     0.047 C 
HETATM    2  C   UNL     1     -43.534  57.080 -54.907  1.00  0.00     0.073 C 
HETATM    3  C   UNL     1     -42.866  55.770 -54.356  1.00  0.00     0.133 C 
HETATM    4  C   UNL     1     -43.238  55.378 -52.883  1.00  0.00     0.074 C 
HETATM    5  C   UNL     1     -43.896  56.489 -52.133  1.00  0.00     0.030 A 
HETATM    6  C   UNL     1     -43.980  57.785 -52.593  1.00  0.00     0.042 A 
HETATM    7  N   UNL     1     -44.662  58.501 -51.651  1.00  0.00    -0.279 N 
HETATM    8  H   UNL     1     -44.904  59.488 -51.653  1.00  0.00     0.189 HD
HETATM    9  N   UNL     1     -45.093  57.732 -50.628  1.00  0.00    -0.149 NA
HETATM   10  C   UNL     1     -44.620  56.533 -50.942  1.00  0.00     0.190 A 
HETATM   11  C   UNL     1     -43.491  58.271 -53.905  1.00  0.00     0.097 C 
ENDROOT
BRANCH   4  12
HETATM   12  C   UNL     1     -42.096  54.908 -51.988  1.00  0.00    -0.047 A 
HETATM   13  C   UNL     1     -41.567  53.602 -52.058  1.00  0.00     0.027 A 
HETATM   14  C   UNL     1     -40.542  53.201 -51.202  1.00  0.00     0.011 A 
HETATM   15 BR   UNL     1     -39.864  51.440 -51.317  1.00  0.00    -0.051 Br
HETATM   16  C   UNL     1     -40.019  54.083 -50.263  1.00  0.00     0.019 A 
HETATM   17  C   UNL     1     -40.530  55.378 -50.179  1.00  0.00     0.002 A 
HETATM   18  C   UNL     1     -41.560  55.787 -51.031  1.00  0.00     0.008 A 
ENDBRANCH   4  12
BRANCH   3  19
HETATM   19  C   UNL     1     -41.368  55.772 -54.587  1.00  0.00     0.266 C 
HETATM   20  O   UNL     1     -40.582  56.562 -54.083  1.00  0.00    -0.265 OA
BRANCH  19  21
HETATM   21  O   UNL     1     -41.030  54.758 -55.434  1.00  0.00    -0.326 OA
HETATM   22  C   UNL     1     -39.879  54.012 -55.035  1.00  0.00     0.213 C 
ENDBRANCH  19  21
ENDBRANCH   3  19
BRANCH   2  23
HETATM   23  O   UNL     1     -44.921  56.769 -55.197  1.00  0.00    -0.389 OA
HETATM   24  H   UNL     1     -44.956  56.249 -56.021  1.00  0.00     0.210 HD
ENDBRANCH   2  23
BRANCH  10  25
HETATM   25  O   UNL     1     -44.939  55.555 -50.102  1.00  0.00    -0.343 OA
HETATM   26  H   UNL     1     -45.902  55.631 -49.991  1.00  0.00     0.219 HD
ENDBRANCH  10  25
TORSDOF 5
ENDMDL
MODEL 2
REMARK VINA RESULT:      -6.5     15.845     17.934
REMARK  5 active torsions:
REMARK  status: ('A' for Active; 'I' for Inactive)
REMARK    1  A    between atoms: C_2  and  O_3 
REMARK    2  A    between atoms: C_4  and  C_5 
REMARK    3  A    between atoms: C_5  and  O_6 
REMARK    4  A    between atoms: C_9  and  C_10 
REMARK    5  A    between atoms: C_22  and  O_23 
ROOT
HETATM    1  C   UNL     1     -35.159  41.226 -51.327  1.00  0.00     0.047 C 
HETATM    2  C   UNL     1     -35.281  41.595 -52.813  1.00  0.00     0.073 C 
HETATM    3  C   UNL     1     -34.077  41.085 -53.684  1.00  0.00     0.133 C 
HETATM    4  C   UNL     1     -34.244  41.237 -55.237  1.00  0.00     0.074 C 
HETATM    5  C   UNL     1     -35.650  41.526 -55.647  1.00  0.00     0.030 A 
HETATM    6  C   UNL     1     -36.731  41.457 -54.795  1.00  0.00     0.042 A 
HETATM    7  N   UNL     1     -37.835  41.806 -55.519  1.00  0.00    -0.279 N 
HETATM    8  H   UNL     1     -38.804  41.860 -55.217  1.00  0.00     0.189 HD
HETATM    9  N   UNL     1     -37.532  42.169 -56.783  1.00  0.00    -0.149 NA
HETATM   10  C   UNL     1     -36.217  41.991 -56.834  1.00  0.00     0.190 A 
HETATM   11  C   UNL     1     -36.672  41.146 -53.347  1.00  0.00     0.097 C 
ENDROOT
BRANCH   4  12
HETATM   12  C   UNL     1     -33.810  40.051 -56.093  1.00  0.00    -0.047 A 
HETATM   13  C   UNL     1     -34.717  39.067 -56.539  1.00  0.00     0.027 A 
HETATM   14  C   UNL     1     -34.276  37.981 -57.296  1.00  0.00     0.011 A 
HETATM   15 BR   UNL     1     -35.518  36.675 -57.868  1.00  0.00    -0.051 Br
HETATM   16  C   UNL     1     -32.933  37.852 -57.630  1.00  0.00     0.019 A 
HETATM   17  C   UNL     1     -32.022  38.814 -57.197  1.00  0.00     0.002 A 
HETATM   18  C   UNL     1     -32.455  39.904 -56.435  1.00  0.00     0.008 A 
ENDBRANCH   4  12
BRANCH   3  19
HETATM   19  C   UNL     1     -33.660  39.684 -53.287  1.00  0.00     0.266 C 
HETATM   20  O   UNL     1     -34.403  38.713 -53.251  1.00  0.00    -0.265 OA
BRANCH  19  21
HETATM   21  O   UNL     1     -32.330  39.667 -52.983  1.00  0.00    -0.326 OA
HETATM   22  C   UNL     1     -32.031  39.213 -51.663  1.00  0.00     0.213 C 
ENDBRANCH  19  21
ENDBRANCH   3  19
BRANCH   2  23
HETATM   23  O   UNL     1     -35.231  43.045 -52.812  1.00  0.00    -0.389 OA
HETATM   24  H   UNL     1     -34.647  43.334 -52.087  1.00  0.00     0.210 HD
ENDBRANCH   2  23
BRANCH  10  25
HETATM   25  O   UNL     1     -35.640  42.318 -57.983  1.00  0.00    -0.343 OA
HETATM   26  H   UNL     1     -34.759  41.907 -57.941  1.00  0.00     0.219 HD
ENDBRANCH  10  25
TORSDOF 5
ENDMDL
MODEL 3
REMARK VINA RESULT:      -6.5      2.704      4.283
REMARK  5 active torsions:
REMARK  status: ('A' for Active; 'I' for Inactive)
REMARK    1  A    between atoms: C_2  and  O_3 
REMARK    2  A    between atoms: C_4  and  C_5 
REMARK    3  A    between atoms: C_5  and  O_6 
REMARK    4  A    between atoms: C_9  and  C_10 
REMARK    5  A    between atoms: C_22  and  O_23 
ROOT
HETATM    1  C   UNL     1     -43.251  60.705 -53.964  1.00  0.00     0.047 C 
HETATM    2  C   UNL     1     -42.700  59.367 -54.481  1.00  0.00     0.073 C 
HETATM    3  C   UNL     1     -41.980  58.518 -53.373  1.00  0.00     0.133 C 
HETATM    4  C   UNL     1     -41.589  57.054 -53.779  1.00  0.00     0.074 C 
HETATM    5  C   UNL     1     -42.264  56.595 -55.029  1.00  0.00     0.030 A 
HETATM    6  C   UNL     1     -43.283  57.283 -55.651  1.00  0.00     0.042 A 
HETATM    7  N   UNL     1     -43.627  56.571 -56.765  1.00  0.00    -0.279 N 
HETATM    8  H   UNL     1     -44.341  56.776 -57.457  1.00  0.00     0.189 HD
HETATM    9  N   UNL     1     -42.843  55.487 -56.948  1.00  0.00    -0.149 NA
HETATM   10  C   UNL     1     -42.037  55.525 -55.894  1.00  0.00     0.190 A 
HETATM   11  C   UNL     1     -43.828  58.593 -55.225  1.00  0.00     0.097 C 
ENDROOT
BRANCH   4  12
HETATM   12  C   UNL     1     -41.860  55.960 -52.750  1.00  0.00    -0.047 A 
HETATM   13  C   UNL     1     -40.944  55.639 -51.727  1.00  0.00     0.027 A 
HETATM   14  C   UNL     1     -41.216  54.612 -50.822  1.00  0.00     0.011 A 
HETATM   15 BR   UNL     1     -39.960  54.202 -49.470  1.00  0.00    -0.051 Br
HETATM   16  C   UNL     1     -42.399  53.887 -50.911  1.00  0.00     0.019 A 
HETATM   17  C   UNL     1     -43.316  54.190 -51.917  1.00  0.00     0.002 A 
HETATM   18  C   UNL     1     -43.050  55.216 -52.829  1.00  0.00     0.008 A 
ENDBRANCH   4  12
BRANCH   3  19
HETATM   19  C   UNL     1     -42.734  58.566 -52.059  1.00  0.00     0.266 C 
HETATM   20  O   UNL     1     -43.924  58.317 -51.924  1.00  0.00    -0.265 OA
BRANCH  19  21
HETATM   21  O   UNL     1     -41.886  58.923 -51.053  1.00  0.00    -0.326 OA
HETATM   22  C   UNL     1     -42.118  60.226 -50.517  1.00  0.00     0.213 C 
ENDBRANCH  19  21
ENDBRANCH   3  19
BRANCH   2  23
HETATM   23  O   UNL     1     -41.693  59.760 -55.448  1.00  0.00    -0.389 OA
HETATM   24  H   UNL     1     -41.532  59.011 -56.050  1.00  0.00     0.210 HD
ENDBRANCH   2  23
BRANCH  10  25
HETATM   25  O   UNL     1     -41.117  54.569 -55.843  1.00  0.00    -0.343 OA
HETATM   26  H   UNL     1     -40.710  54.666 -54.966  1.00  0.00     0.219 HD
ENDBRANCH  10  25
TORSDOF 5
ENDMDL
MODEL 4
REMARK VINA RESULT:      -6.4      2.825      5.051
REMARK  5 active torsions:
REMARK  status: ('A' for Active; 'I' for Inactive)
REMARK    1  A    between atoms: C_2  and  O_3 
REMARK    2  A    between atoms: C_4  and  C_5 
REMARK    3  A    between atoms: C_5  and  O_6 
REMARK    4  A    between atoms: C_9  and  C_10 
REMARK    5  A    between atoms: C_22  and  O_23 
ROOT
HETATM    1  C   UNL     1     -40.995  53.160 -50.210  1.00  0.00     0.047 C 
HETATM    2  C   UNL     1     -40.774  54.579 -50.756  1.00  0.00     0.073 C 
HETATM    3  C   UNL     1     -41.086  54.713 -52.289  1.00  0.00     0.133 C 
HETATM    4  C   UNL     1     -41.092  56.175 -52.861  1.00  0.00     0.074 C 
HETATM    5  C   UNL     1     -41.136  57.218 -51.793  1.00  0.00     0.030 A 
HETATM    6  C   UNL     1     -41.365  56.948 -50.461  1.00  0.00     0.042 A 
HETATM    7  N   UNL     1     -41.312  58.140 -49.796  1.00  0.00    -0.279 N 
HETATM    8  H   UNL     1     -41.439  58.322 -48.805  1.00  0.00     0.189 HD
HETATM    9  N   UNL     1     -40.992  59.171 -50.607  1.00  0.00    -0.149 NA
HETATM   10  C   UNL     1     -40.893  58.591 -51.796  1.00  0.00     0.190 A 
HETATM   11  C   UNL     1     -41.545  55.601 -49.870  1.00  0.00     0.097 C 
ENDROOT
BRANCH   4  12
HETATM   12  C   UNL     1     -42.223  56.532 -53.821  1.00  0.00    -0.047 A 
HETATM   13  C   UNL     1     -42.119  56.347 -55.215  1.00  0.00     0.027 A 
HETATM   14  C   UNL     1     -43.164  56.714 -56.063  1.00  0.00     0.011 A 
HETATM   15 BR   UNL     1     -42.986  56.461 -57.928  1.00  0.00    -0.051 Br
HETATM   16  C   UNL     1     -44.331  57.266 -55.548  1.00  0.00     0.019 A 
HETATM   17  C   UNL     1     -44.451  57.458 -54.172  1.00  0.00     0.002 A 
HETATM   18  C   UNL     1     -43.407  57.096 -53.316  1.00  0.00     0.008 A 
ENDBRANCH   4  12
BRANCH   3  19
HETATM   19  C   UNL     1     -42.334  53.944 -52.672  1.00  0.00     0.266 C 
HETATM   20  O   UNL     1     -43.399  53.990 -52.071  1.00  0.00    -0.265 OA
BRANCH  19  21
HETATM   21  O   UNL     1     -42.093  53.199 -53.788  1.00  0.00    -0.326 OA
HETATM   22  C   UNL     1     -40.759  52.700 -53.891  1.00  0.00     0.213 C 
ENDBRANCH  19  21
ENDBRANCH   3  19
BRANCH   2  23
HETATM   23  O   UNL     1     -39.351  54.796 -50.583  1.00  0.00    -0.389 OA
HETATM   24  H   UNL     1     -38.934  53.947 -50.347  1.00  0.00     0.210 HD
ENDBRANCH   2  23
BRANCH  10  25
HETATM   25  O   UNL     1     -40.542  59.392 -52.795  1.00  0.00    -0.343 OA
HETATM   26  H   UNL     1     -41.348  59.896 -53.001  1.00  0.00     0.219 HD
ENDBRANCH  10  25
TORSDOF 5
ENDMDL
MODEL 5
REMARK VINA RESULT:      -6.3      3.257      4.738
REMARK  5 active torsions:
REMARK  status: ('A' for Active; 'I' for Inactive)
REMARK    1  A    between atoms: C_2  and  O_3 
REMARK    2  A    between atoms: C_4  and  C_5 
REMARK    3  A    between atoms: C_5  and  O_6 
REMARK    4  A    between atoms: C_9  and  C_10 
REMARK    5  A    between atoms: C_22  and  O_23 
ROOT
HETATM    1  C   UNL     1     -41.787  55.432 -55.700  1.00  0.00     0.047 C 
HETATM    2  C   UNL     1     -41.585  55.487 -54.178  1.00  0.00     0.073 C 
HETATM    3  C   UNL     1     -41.286  56.931 -53.639  1.00  0.00     0.133 C 
HETATM    4  C   UNL     1     -41.286  57.092 -52.078  1.00  0.00     0.074 C 
HETATM    5  C   UNL     1     -41.901  55.929 -51.372  1.00  0.00     0.030 A 
HETATM    6  C   UNL     1     -42.591  54.919 -52.007  1.00  0.00     0.042 A 
HETATM    7  N   UNL     1     -42.982  54.033 -51.043  1.00  0.00    -0.279 N 
HETATM    8  H   UNL     1     -43.514  53.174 -51.146  1.00  0.00     0.189 HD
HETATM    9  N   UNL     1     -42.528  54.369 -49.817  1.00  0.00    -0.149 NA
HETATM   10  C   UNL     1     -41.885  55.509 -50.042  1.00  0.00     0.190 A 
HETATM   11  C   UNL     1     -42.785  54.792 -53.470  1.00  0.00     0.097 C 
ENDROOT
BRANCH   4  12
HETATM   12  C   UNL     1     -41.989  58.324 -51.515  1.00  0.00    -0.047 A 
HETATM   13  C   UNL     1     -43.394  58.439 -51.470  1.00  0.00     0.027 A 
HETATM   14  C   UNL     1     -44.000  59.594 -50.973  1.00  0.00     0.011 A 
HETATM   15 BR   UNL     1     -45.886  59.718 -50.938  1.00  0.00    -0.051 Br
HETATM   16  C   UNL     1     -43.227  60.653 -50.510  1.00  0.00     0.019 A 
HETATM   17  C   UNL     1     -41.837  60.557 -50.548  1.00  0.00     0.002 A 
HETATM   18  C   UNL     1     -41.222  59.405 -51.047  1.00  0.00     0.008 A 
ENDBRANCH   4  12
BRANCH   3  19
HETATM   19  C   UNL     1     -42.154  57.969 -54.322  1.00  0.00     0.266 C 
HETATM   20  O   UNL     1     -43.346  57.838 -54.562  1.00  0.00    -0.265 OA
BRANCH  19  21
HETATM   21  O   UNL     1     -41.407  59.070 -54.621  1.00  0.00    -0.326 OA
HETATM   22  C   UNL     1     -42.146  60.291 -54.667  1.00  0.00     0.213 C 
ENDBRANCH  19  21
ENDBRANCH   3  19
BRANCH   2  23
HETATM   23  O   UNL     1     -40.393  54.689 -53.962  1.00  0.00    -0.389 OA
HETATM   24  H   UNL     1     -40.665  53.779 -53.741  1.00  0.00     0.210 HD
ENDBRANCH   2  23
BRANCH  10  25
HETATM   25  O   UNL     1     -41.294  56.050 -48.984  1.00  0.00    -0.343 OA
HETATM   26  H   UNL     1     -40.592  55.420 -48.745  1.00  0.00     0.219 HD
ENDBRANCH  10  25
TORSDOF 5
ENDMDL
MODEL 6
REMARK VINA RESULT:      -6.3     15.883     17.688
REMARK  5 active torsions:
REMARK  status: ('A' for Active; 'I' for Inactive)
REMARK    1  A    between atoms: C_2  and  O_3 
REMARK    2  A    between atoms: C_4  and  C_5 
REMARK    3  A    between atoms: C_5  and  O_6 
REMARK    4  A    between atoms: C_9  and  C_10 
REMARK    5  A    between atoms: C_22  and  O_23 
ROOT
HETATM    1  C   UNL     1     -32.226  39.860 -52.848  1.00  0.00     0.047 C 
HETATM    2  C   UNL     1     -33.683  40.342 -52.926  1.00  0.00     0.073 C 
HETATM    3  C   UNL     1     -34.108  40.814 -54.362  1.00  0.00     0.133 C 
HETATM    4  C   UNL     1     -35.636  41.110 -54.560  1.00  0.00     0.074 C 
HETATM    5  C   UNL     1     -36.482  40.573 -53.453  1.00  0.00     0.030 A 
HETATM    6  C   UNL     1     -36.020  39.724 -52.472  1.00  0.00     0.042 A 
HETATM    7  N   UNL     1     -37.068  39.470 -51.634  1.00  0.00    -0.279 N 
HETATM    8  H   UNL     1     -37.094  38.882 -50.807  1.00  0.00     0.189 HD
HETATM    9  N   UNL     1     -38.179  40.160 -51.971  1.00  0.00    -0.149 NA
HETATM   10  C   UNL     1     -37.801  40.811 -53.064  1.00  0.00     0.190 A 
HETATM   11  C   UNL     1     -34.622  39.257 -52.322  1.00  0.00     0.097 C 
ENDROOT
BRANCH   4  12
HETATM   12  C   UNL     1     -36.276  40.592 -55.845  1.00  0.00    -0.047 A 
HETATM   13  C   UNL     1     -36.435  41.399 -56.990  1.00  0.00     0.027 A 
HETATM   14  C   UNL     1     -37.051  40.897 -58.137  1.00  0.00     0.011 A 
HETATM   15 BR   UNL     1     -37.256  42.010 -59.651  1.00  0.00    -0.051 Br
HETATM   16  C   UNL     1     -37.519  39.588 -58.172  1.00  0.00     0.019 A 
HETATM   17  C   UNL     1     -37.372  38.776 -57.048  1.00  0.00     0.002 A 
HETATM   18  C   UNL     1     -36.758  39.273 -55.894  1.00  0.00     0.008 A 
ENDBRANCH   4  12
BRANCH   3  19
HETATM   19  C   UNL     1     -33.561  39.893 -55.434  1.00  0.00     0.266 C 
HETATM   20  O   UNL     1     -33.740  38.684 -55.479  1.00  0.00    -0.265 OA
BRANCH  19  21
HETATM   21  O   UNL     1     -32.844  40.616 -56.342  1.00  0.00    -0.326 OA
HETATM   22  C   UNL     1     -31.595  40.031 -56.712  1.00  0.00     0.213 C 
ENDBRANCH  19  21
ENDBRANCH   3  19
BRANCH   2  23
HETATM   23  O   UNL     1     -33.705  41.507 -52.063  1.00  0.00    -0.389 OA
HETATM   24  H   UNL     1     -34.634  41.737 -51.877  1.00  0.00     0.210 HD
ENDBRANCH   2  23
BRANCH  10  25
HETATM   25  O   UNL     1     -38.714  41.616 -53.594  1.00  0.00    -0.343 OA
HETATM   26  H   UNL     1     -39.172  42.005 -52.829  1.00  0.00     0.219 HD
ENDBRANCH  10  25
TORSDOF 5
ENDMDL
MODEL 7
REMARK VINA RESULT:      -6.3      3.153      5.256
REMARK  5 active torsions:
REMARK  status: ('A' for Active; 'I' for Inactive)
REMARK    1  A    between atoms: C_2  and  O_3 
REMARK    2  A    between atoms: C_4  and  C_5 
REMARK    3  A    between atoms: C_5  and  O_6 
REMARK    4  A    between atoms: C_9  and  C_10 
REMARK    5  A    between atoms: C_22  and  O_23 
ROOT
HETATM    1  C   UNL     1     -40.413  53.657 -52.839  1.00  0.00     0.047 C 
HETATM    2  C   UNL     1     -41.516  54.385 -53.623  1.00  0.00     0.073 C 
HETATM    3  C   UNL     1     -42.585  55.076 -52.703  1.00  0.00     0.133 C 
HETATM    4  C   UNL     1     -43.610  56.014 -53.430  1.00  0.00     0.074 C 
HETATM    5  C   UNL     1     -43.196  56.363 -54.821  1.00  0.00     0.030 A 
HETATM    6  C   UNL     1     -41.955  56.081 -55.350  1.00  0.00     0.042 A 
HETATM    7  N   UNL     1     -41.957  56.528 -56.640  1.00  0.00    -0.279 N 
HETATM    8  H   UNL     1     -41.211  56.493 -57.328  1.00  0.00     0.189 HD
HETATM    9  N   UNL     1     -43.155  57.028 -57.012  1.00  0.00    -0.149 NA
HETATM   10  C   UNL     1     -43.878  56.918 -55.905  1.00  0.00     0.190 A 
HETATM   11  C   UNL     1     -40.867  55.349 -54.659  1.00  0.00     0.097 C 
ENDROOT
BRANCH   4  12
HETATM   12  C   UNL     1     -43.919  57.348 -52.755  1.00  0.00    -0.047 A 
HETATM   13  C   UNL     1     -43.355  58.565 -53.190  1.00  0.00     0.027 A 
HETATM   14  C   UNL     1     -43.640  59.760 -52.529  1.00  0.00     0.011 A 
HETATM   15 BR   UNL     1     -42.857  61.372 -53.133  1.00  0.00    -0.051 Br
HETATM   16  C   UNL     1     -44.490  59.773 -51.428  1.00  0.00     0.019 A 
HETATM   17  C   UNL     1     -45.056  58.579 -50.984  1.00  0.00     0.002 A 
HETATM   18  C   UNL     1     -44.773  57.377 -51.639  1.00  0.00     0.008 A 
ENDBRANCH   4  12
BRANCH   3  19
HETATM   19  C   UNL     1     -41.937  55.750 -51.510  1.00  0.00     0.266 C 
HETATM   20  O   UNL     1     -41.116  56.655 -51.576  1.00  0.00    -0.265 OA
BRANCH  19  21
HETATM   21  O   UNL     1     -42.412  55.202 -50.355  1.00  0.00    -0.326 OA
HETATM   22  C   UNL     1     -41.412  54.936 -49.372  1.00  0.00     0.213 C 
ENDBRANCH  19  21
ENDBRANCH   3  19
BRANCH   2  23
HETATM   23  O   UNL     1     -42.188  53.318 -54.341  1.00  0.00    -0.389 OA
HETATM   24  H   UNL     1     -41.952  53.383 -55.284  1.00  0.00     0.210 HD
ENDBRANCH   2  23
BRANCH  10  25
HETATM   25  O   UNL     1     -45.141  57.312 -56.005  1.00  0.00    -0.343 OA
HETATM   26  H   UNL     1     -45.162  58.185 -55.578  1.00  0.00     0.219 HD
ENDBRANCH  10  25
TORSDOF 5
ENDMDL
MODEL 8
REMARK VINA RESULT:      -6.2      2.624      3.090
REMARK  5 active torsions:
REMARK  status: ('A' for Active; 'I' for Inactive)
REMARK    1  A    between atoms: C_2  and  O_3 
REMARK    2  A    between atoms: C_4  and  C_5 
REMARK    3  A    between atoms: C_5  and  O_6 
REMARK    4  A    between atoms: C_9  and  C_10 
REMARK    5  A    between atoms: C_22  and  O_23 
ROOT
HETATM    1  C   UNL     1     -44.255  57.720 -56.890  1.00  0.00     0.047 C 
HETATM    2  C   UNL     1     -44.781  57.908 -55.459  1.00  0.00     0.073 C 
HETATM    3  C   UNL     1     -44.134  56.925 -54.420  1.00  0.00     0.133 C 
HETATM    4  C   UNL     1     -44.464  57.208 -52.912  1.00  0.00     0.074 C 
HETATM    5  C   UNL     1     -45.057  58.560 -52.689  1.00  0.00     0.030 A 
HETATM    6  C   UNL     1     -45.117  59.543 -53.652  1.00  0.00     0.042 A 
HETATM    7  N   UNL     1     -45.741  60.619 -53.088  1.00  0.00    -0.279 N 
HETATM    8  H   UNL     1     -45.952  61.522 -53.502  1.00  0.00     0.189 HD
HETATM    9  N   UNL     1     -46.158  60.374 -51.827  1.00  0.00    -0.149 NA
HETATM   10  C   UNL     1     -45.735  59.134 -51.613  1.00  0.00     0.190 A 
HETATM   11  C   UNL     1     -44.663  59.408 -55.056  1.00  0.00     0.097 C 
ENDROOT
BRANCH   4  12
HETATM   12  C   UNL     1     -43.304  57.109 -51.925  1.00  0.00    -0.047 A 
HETATM   13  C   UNL     1     -42.424  58.184 -51.681  1.00  0.00     0.027 A 
HETATM   14  C   UNL     1     -41.358  58.046 -50.793  1.00  0.00     0.011 A 
HETATM   15 BR   UNL     1     -40.192  59.504 -50.497  1.00  0.00    -0.051 Br
HETATM   16  C   UNL     1     -41.144  56.843 -50.128  1.00  0.00     0.019 A 
HETATM   17  C   UNL     1     -42.003  55.769 -50.358  1.00  0.00     0.002 A 
HETATM   18  C   UNL     1     -43.073  55.899 -51.249  1.00  0.00     0.008 A 
ENDBRANCH   4  12
BRANCH   3  19
HETATM   19  C   UNL     1     -42.647  56.763 -54.660  1.00  0.00     0.266 C 
HETATM   20  O   UNL     1     -41.863  57.682 -54.849  1.00  0.00    -0.265 OA
BRANCH  19  21
HETATM   21  O   UNL     1     -42.315  55.440 -54.628  1.00  0.00    -0.326 OA
HETATM   22  C   UNL     1     -43.323  54.565 -55.134  1.00  0.00     0.213 C 
ENDBRANCH  19  21
ENDBRANCH   3  19
BRANCH   2  23
HETATM   23  O   UNL     1     -46.187  57.566 -55.562  1.00  0.00    -0.389 OA
HETATM   24  H   UNL     1     -46.711  58.385 -55.495  1.00  0.00     0.210 HD
ENDBRANCH   2  23
BRANCH  10  25
HETATM   25  O   UNL     1     -46.052  58.618 -50.433  1.00  0.00    -0.343 OA
HETATM   26  H   UNL     1     -46.380  59.372 -49.914  1.00  0.00     0.219 HD
ENDBRANCH  10  25
TORSDOF 5
ENDMDL
MODEL 9
REMARK VINA RESULT:      -6.1     15.886     18.185
REMARK  5 active torsions:
REMARK  status: ('A' for Active; 'I' for Inactive)
REMARK    1  A    between atoms: C_2  and  O_3 
REMARK    2  A    between atoms: C_4  and  C_5 
REMARK    3  A    between atoms: C_5  and  O_6 
REMARK    4  A    between atoms: C_9  and  C_10 
REMARK    5  A    between atoms: C_22  and  O_23 
ROOT
HETATM    1  C   UNL     1     -38.569  41.079 -52.601  1.00  0.00     0.047 C 
HETATM    2  C   UNL     1     -37.064  41.139 -52.902  1.00  0.00     0.073 C 
HETATM    3  C   UNL     1     -36.164  40.860 -51.646  1.00  0.00     0.133 C 
HETATM    4  C   UNL     1     -34.630  40.690 -51.927  1.00  0.00     0.074 C 
HETATM    5  C   UNL     1     -34.322  40.484 -53.373  1.00  0.00     0.030 A 
HETATM    6  C   UNL     1     -35.276  40.249 -54.338  1.00  0.00     0.042 A 
HETATM    7  N   UNL     1     -34.621  40.133 -55.531  1.00  0.00    -0.279 N 
HETATM    8  H   UNL     1     -35.005  39.954 -56.454  1.00  0.00     0.189 HD
HETATM    9  N   UNL     1     -33.293  40.348 -55.415  1.00  0.00    -0.149 NA
HETATM   10  C   UNL     1     -33.141  40.554 -54.113  1.00  0.00     0.190 A 
HETATM   11  C   UNL     1     -36.741  40.220 -54.117  1.00  0.00     0.097 C 
ENDROOT
BRANCH   4  12
HETATM   12  C   UNL     1     -33.919  39.554 -51.197  1.00  0.00    -0.047 A 
HETATM   13  C   UNL     1     -33.256  39.743 -49.967  1.00  0.00     0.027 A 
HETATM   14  C   UNL     1     -32.593  38.685 -49.344  1.00  0.00     0.011 A 
HETATM   15 BR   UNL     1     -31.705  38.976 -47.701  1.00  0.00    -0.051 Br
HETATM   16  C   UNL     1     -32.576  37.422 -49.926  1.00  0.00     0.019 A 
HETATM   17  C   UNL     1     -33.225  37.217 -51.143  1.00  0.00     0.002 A 
HETATM   18  C   UNL     1     -33.890  38.273 -51.774  1.00  0.00     0.008 A 
ENDBRANCH   4  12
BRANCH   3  19
HETATM   19  C   UNL     1     -36.720  39.730 -50.804  1.00  0.00     0.266 C 
HETATM   20  O   UNL     1     -37.075  38.642 -51.236  1.00  0.00    -0.265 OA
BRANCH  19  21
HETATM   21  O   UNL     1     -36.760  40.106 -49.493  1.00  0.00    -0.326 OA
HETATM   22  C   UNL     1     -36.727  39.022 -48.565  1.00  0.00     0.213 C 
ENDBRANCH  19  21
ENDBRANCH   3  19
BRANCH   2  23
HETATM   23  O   UNL     1     -36.846  42.518 -53.294  1.00  0.00    -0.389 OA
HETATM   24  H   UNL     1     -36.661  43.042 -52.493  1.00  0.00     0.210 HD
ENDBRANCH   2  23
BRANCH  10  25
HETATM   25  O   UNL     1     -31.904  40.834 -53.719  1.00  0.00    -0.343 OA
HETATM   26  H   UNL     1     -31.978  41.693 -53.269  1.00  0.00     0.219 HD
ENDBRANCH  10  25
TORSDOF 5
ENDMDL
MODEL 10
REMARK VINA RESULT:      -6.1      3.187      4.964
REMARK  5 active torsions:
REMARK  status: ('A' for Active; 'I' for Inactive)
REMARK    1  A    between atoms: C_2  and  O_3 
REMARK    2  A    between atoms: C_4  and  C_5 
REMARK    3  A    between atoms: C_5  and  O_6 
REMARK    4  A    between atoms: C_9  and  C_10 
REMARK    5  A    between atoms: C_22  and  O_23 
ROOT
HETATM    1  C   UNL     1     -41.548  52.839 -54.343  1.00  0.00     0.047 C 
HETATM    2  C   UNL     1     -41.296  53.890 -53.251  1.00  0.00     0.073 C 
HETATM    3  C   UNL     1     -41.654  55.352 -53.697  1.00  0.00     0.133 C 
HETATM    4  C   UNL     1     -41.629  56.438 -52.565  1.00  0.00     0.074 C 
HETATM    5  C   UNL     1     -41.602  55.850 -51.193  1.00  0.00     0.030 A 
HETATM    6  C   UNL     1     -41.795  54.512 -50.924  1.00  0.00     0.042 A 
HETATM    7  N   UNL     1     -41.679  54.353 -49.573  1.00  0.00    -0.279 N 
HETATM    8  H   UNL     1     -41.767  53.505 -49.021  1.00  0.00     0.189 HD
HETATM    9  N   UNL     1     -41.350  55.502 -48.943  1.00  0.00    -0.149 NA
HETATM   10  C   UNL     1     -41.312  56.382 -49.936  1.00  0.00     0.190 A 
HETATM   11  C   UNL     1     -42.002  53.448 -51.935  1.00  0.00     0.097 C 
ENDROOT
BRANCH   4  12
HETATM   12  C   UNL     1     -42.778  57.442 -52.550  1.00  0.00    -0.047 A 
HETATM   13  C   UNL     1     -42.719  58.671 -53.240  1.00  0.00     0.027 A 
HETATM   14  C   UNL     1     -43.779  59.575 -53.179  1.00  0.00     0.011 A 
HETATM   15 BR   UNL     1     -43.661  61.217 -54.109  1.00  0.00    -0.051 Br
HETATM   16  C   UNL     1     -44.917  59.280 -52.437  1.00  0.00     0.019 A 
HETATM   17  C   UNL     1     -44.993  58.071 -51.746  1.00  0.00     0.002 A 
HETATM   18  C   UNL     1     -43.933  57.161 -51.801  1.00  0.00     0.008 A 
ENDBRANCH   4  12
BRANCH   3  19
HETATM   19  C   UNL     1     -42.940  55.390 -54.497  1.00  0.00     0.266 C 
HETATM   20  O   UNL     1     -43.990  54.860 -54.163  1.00  0.00    -0.265 OA
BRANCH  19  21
HETATM   21  O   UNL     1     -42.751  56.108 -55.641  1.00  0.00    -0.326 OA
HETATM   22  C   UNL     1     -42.857  55.345 -56.844  1.00  0.00     0.213 C 
ENDBRANCH  19  21
ENDBRANCH   3  19
BRANCH   2  23
HETATM   23  O   UNL     1     -39.861  53.838 -53.048  1.00  0.00    -0.389 OA
HETATM   24  H   UNL     1     -39.688  53.592 -52.120  1.00  0.00     0.210 HD
ENDBRANCH   2  23
BRANCH  10  25
HETATM   25  O   UNL     1     -40.966  57.616 -49.593  1.00  0.00    -0.343 OA
HETATM   26  H   UNL     1     -39.995  57.598 -49.552  1.00  0.00     0.219 HD
ENDBRANCH  10  25
TORSDOF 5
ENDMDL
