MODEL 1
REMARK VINA RESULT:      -7.4      0.000      0.000
REMARK  6 active torsions:
REMARK  status: ('A' for Active; 'I' for Inactive)
REMARK    1  A    between atoms: N_2  and  C_3 
REMARK    2  A    between atoms: N_2  and  C_19 
REMARK    3  A    between atoms: C_4  and  N_5 
REMARK       I    between atoms: N_5  and  C_6 
REMARK    4  A    between atoms: C_6  and  C_7 
REMARK    5  A    between atoms: C_7  and  C_8 
REMARK    6  A    between atoms: C_19  and  C_20 
ROOT
HETATM    1  C   UNL     1     -40.402  52.491 -53.589  1.00  0.00     0.037 A 
HETATM    2  C   UNL     1     -40.120  52.475 -52.197  1.00  0.00     0.056 A 
HETATM    3  C   UNL     1     -39.693  51.299 -51.577  1.00  0.00     0.031 A 
HETATM    4  C   UNL     1     -39.533  50.131 -52.324  1.00  0.00     0.002 A 
HETATM    5  C   UNL     1     -39.803  50.131 -53.688  1.00  0.00     0.002 A 
HETATM    6  C   UNL     1     -40.239  51.300 -54.316  1.00  0.00     0.026 A 
ENDROOT
BRANCH   2   7
HETATM    7  N   UNL     1     -40.246  53.705 -51.519  1.00  0.00    -0.325 N 
HETATM    8  C   UNL     1     -41.379  54.274 -50.978  1.00  0.00     0.227 C 
HETATM    9  O   UNL     1     -42.523  53.829 -51.076  1.00  0.00    -0.273 OA
HETATM   10  H   UNL     1     -39.380  54.239 -51.519  1.00  0.00     0.169 HD
BRANCH   8  11
HETATM   11  C   UNL     1     -41.097  55.593 -50.257  1.00  0.00     0.159 C 
BRANCH  11  12
HETATM   12  C   UNL     1     -41.471  56.778 -51.096  1.00  0.00     0.017 A 
HETATM   13  N   UNL     1     -42.402  57.704 -50.676  1.00  0.00    -0.369 N 
HETATM   14  H   UNL     1     -42.854  57.687 -49.767  1.00  0.00     0.165 HD
HETATM   15  C   UNL     1     -42.562  58.665 -51.638  1.00  0.00     0.088 A 
HETATM   16  C   UNL     1     -41.727  58.360 -52.688  1.00  0.00     0.019 A 
HETATM   17  C   UNL     1     -41.038  57.170 -52.348  1.00  0.00     0.027 A 
ENDBRANCH  11  12
ENDBRANCH   8  11
ENDBRANCH   2   7
BRANCH   1  18
HETATM   18  N   UNL     1     -40.880  53.694 -54.186  1.00  0.00    -0.281 NA
HETATM   19  C   UNL     1     -39.902  54.362 -55.050  1.00  0.00     0.117 C 
BRANCH  18  20
HETATM   20  C   UNL     1     -42.209  53.495 -54.812  1.00  0.00     0.133 C 
BRANCH  20  21
HETATM   21  C   UNL     1     -42.901  54.827 -55.027  1.00  0.00    -0.045 A 
HETATM   22  C   UNL     1     -42.727  55.547 -56.219  1.00  0.00     0.008 A 
HETATM   23  C   UNL     1     -43.363  56.775 -56.409  1.00  0.00     0.001 A 
HETATM   24  C   UNL     1     -44.187  57.295 -55.414  1.00  0.00     0.000 A 
HETATM   25  C   UNL     1     -44.373  56.589 -54.227  1.00  0.00     0.001 A 
HETATM   26  C   UNL     1     -43.732  55.363 -54.032  1.00  0.00     0.008 A 
ENDBRANCH  20  21
ENDBRANCH  18  20
ENDBRANCH   1  18
TORSDOF 6
ENDMDL
MODEL 2
REMARK VINA RESULT:      -7.2      1.757      4.113
REMARK  6 active torsions:
REMARK  status: ('A' for Active; 'I' for Inactive)
REMARK    1  A    between atoms: N_2  and  C_3 
REMARK    2  A    between atoms: N_2  and  C_19 
REMARK    3  A    between atoms: C_4  and  N_5 
REMARK       I    between atoms: N_5  and  C_6 
REMARK    4  A    between atoms: C_6  and  C_7 
REMARK    5  A    between atoms: C_7  and  C_8 
REMARK    6  A    between atoms: C_19  and  C_20 
ROOT
HETATM    1  C   UNL     1     -41.212  53.866 -52.715  1.00  0.00     0.037 A 
HETATM    2  C   UNL     1     -40.858  53.773 -54.087  1.00  0.00     0.056 A 
HETATM    3  C   UNL     1     -40.030  52.741 -54.534  1.00  0.00     0.031 A 
HETATM    4  C   UNL     1     -39.551  51.788 -53.635  1.00  0.00     0.002 A 
HETATM    5  C   UNL     1     -39.890  51.864 -52.288  1.00  0.00     0.002 A 
HETATM    6  C   UNL     1     -40.710  52.898 -51.830  1.00  0.00     0.026 A 
ENDROOT
BRANCH   2   7
HETATM    7  N   UNL     1     -41.427  54.734 -54.947  1.00  0.00    -0.325 N 
HETATM    8  C   UNL     1     -42.641  54.691 -55.600  1.00  0.00     0.227 C 
HETATM    9  O   UNL     1     -43.418  53.735 -55.608  1.00  0.00    -0.273 OA
HETATM   10  H   UNL     1     -40.793  55.506 -55.141  1.00  0.00     0.169 HD
BRANCH   8  11
HETATM   11  C   UNL     1     -42.937  55.963 -56.393  1.00  0.00     0.159 C 
BRANCH  11  12
HETATM   12  C   UNL     1     -43.718  56.956 -55.585  1.00  0.00     0.017 A 
HETATM   13  N   UNL     1     -44.199  56.656 -54.329  1.00  0.00    -0.369 N 
HETATM   14  H   UNL     1     -44.019  55.784 -53.842  1.00  0.00     0.165 HD
HETATM   15  C   UNL     1     -44.887  57.730 -53.830  1.00  0.00     0.088 A 
HETATM   16  C   UNL     1     -44.848  58.734 -54.770  1.00  0.00     0.019 A 
HETATM   17  C   UNL     1     -44.113  58.247 -55.878  1.00  0.00     0.027 A 
ENDBRANCH  11  12
ENDBRANCH   8  11
ENDBRANCH   2   7
BRANCH   1  18
HETATM   18  N   UNL     1     -42.020  54.957 -52.279  1.00  0.00    -0.281 NA
HETATM   19  C   UNL     1     -43.279  54.551 -51.646  1.00  0.00     0.117 C 
BRANCH  18  20
HETATM   20  C   UNL     1     -41.231  55.935 -51.494  1.00  0.00     0.133 C 
BRANCH  20  21
HETATM   21  C   UNL     1     -41.448  57.339 -52.019  1.00  0.00    -0.045 A 
HETATM   22  C   UNL     1     -42.192  58.278 -51.287  1.00  0.00     0.008 A 
HETATM   23  C   UNL     1     -42.393  59.569 -51.779  1.00  0.00     0.001 A 
HETATM   24  C   UNL     1     -41.847  59.940 -53.005  1.00  0.00     0.000 A 
HETATM   25  C   UNL     1     -41.102  59.021 -53.741  1.00  0.00     0.001 A 
HETATM   26  C   UNL     1     -40.905  57.727 -53.253  1.00  0.00     0.008 A 
ENDBRANCH  20  21
ENDBRANCH  18  20
ENDBRANCH   1  18
TORSDOF 6
ENDMDL
MODEL 3
REMARK VINA RESULT:      -7.2      3.068      7.037
REMARK  6 active torsions:
REMARK  status: ('A' for Active; 'I' for Inactive)
REMARK    1  A    between atoms: N_2  and  C_3 
REMARK    2  A    between atoms: N_2  and  C_19 
REMARK    3  A    between atoms: C_4  and  N_5 
REMARK       I    between atoms: N_5  and  C_6 
REMARK    4  A    between atoms: C_6  and  C_7 
REMARK    5  A    between atoms: C_7  and  C_8 
REMARK    6  A    between atoms: C_19  and  C_20 
ROOT
HETATM    1  C   UNL     1     -42.957  56.505 -53.493  1.00  0.00     0.037 A 
HETATM    2  C   UNL     1     -43.872  56.806 -54.537  1.00  0.00     0.056 A 
HETATM    3  C   UNL     1     -44.850  57.786 -54.357  1.00  0.00     0.031 A 
HETATM    4  C   UNL     1     -44.931  58.483 -53.151  1.00  0.00     0.002 A 
HETATM    5  C   UNL     1     -44.041  58.200 -52.120  1.00  0.00     0.002 A 
HETATM    6  C   UNL     1     -43.065  57.216 -52.287  1.00  0.00     0.026 A 
ENDROOT
BRANCH   2   7
HETATM    7  N   UNL     1     -43.693  56.105 -55.748  1.00  0.00    -0.325 N 
HETATM    8  C   UNL     1     -43.168  56.566 -56.936  1.00  0.00     0.227 C 
HETATM    9  O   UNL     1     -42.836  57.728 -57.172  1.00  0.00    -0.273 OA
HETATM   10  H   UNL     1     -44.085  55.167 -55.715  1.00  0.00     0.169 HD
BRANCH   8  11
HETATM   11  C   UNL     1     -43.075  55.479 -58.007  1.00  0.00     0.159 C 
BRANCH  11  12
HETATM   12  C   UNL     1     -44.138  55.634 -59.053  1.00  0.00     0.017 A 
HETATM   13  N   UNL     1     -45.136  56.576 -58.945  1.00  0.00    -0.369 N 
HETATM   14  H   UNL     1     -45.198  57.260 -58.196  1.00  0.00     0.165 HD
HETATM   15  C   UNL     1     -45.976  56.486 -60.023  1.00  0.00     0.088 A 
HETATM   16  C   UNL     1     -45.515  55.477 -60.837  1.00  0.00     0.019 A 
HETATM   17  C   UNL     1     -44.356  54.938 -60.227  1.00  0.00     0.027 A 
ENDBRANCH  11  12
ENDBRANCH   8  11
ENDBRANCH   2   7
BRANCH   1  18
HETATM   18  N   UNL     1     -41.999  55.467 -53.688  1.00  0.00    -0.281 NA
HETATM   19  C   UNL     1     -40.680  55.946 -54.115  1.00  0.00     0.117 C 
BRANCH  18  20
HETATM   20  C   UNL     1     -41.965  54.538 -52.533  1.00  0.00     0.133 C 
BRANCH  20  21
HETATM   21  C   UNL     1     -41.120  53.322 -52.853  1.00  0.00    -0.045 A 
HETATM   22  C   UNL     1     -41.229  52.671 -54.091  1.00  0.00     0.008 A 
HETATM   23  C   UNL     1     -40.450  51.548 -54.378  1.00  0.00     0.001 A 
HETATM   24  C   UNL     1     -39.548  51.067 -53.434  1.00  0.00     0.000 A 
HETATM   25  C   UNL     1     -39.425  51.705 -52.201  1.00  0.00     0.001 A 
HETATM   26  C   UNL     1     -40.207  52.825 -51.910  1.00  0.00     0.008 A 
ENDBRANCH  20  21
ENDBRANCH  18  20
ENDBRANCH   1  18
TORSDOF 6
ENDMDL
MODEL 4
REMARK VINA RESULT:      -7.1      2.200      4.671
REMARK  6 active torsions:
REMARK  status: ('A' for Active; 'I' for Inactive)
REMARK    1  A    between atoms: N_2  and  C_3 
REMARK    2  A    between atoms: N_2  and  C_19 
REMARK    3  A    between atoms: C_4  and  N_5 
REMARK       I    between atoms: N_5  and  C_6 
REMARK    4  A    between atoms: C_6  and  C_7 
REMARK    5  A    between atoms: C_7  and  C_8 
REMARK    6  A    between atoms: C_19  and  C_20 
ROOT
HETATM    1  C   UNL     1     -41.599  53.779 -52.227  1.00  0.00     0.037 A 
HETATM    2  C   UNL     1     -41.488  53.492 -53.613  1.00  0.00     0.056 A 
HETATM    3  C   UNL     1     -40.572  52.540 -54.065  1.00  0.00     0.031 A 
HETATM    4  C   UNL     1     -39.764  51.856 -53.156  1.00  0.00     0.002 A 
HETATM    5  C   UNL     1     -39.863  52.125 -51.795  1.00  0.00     0.002 A 
HETATM    6  C   UNL     1     -40.769  53.082 -51.333  1.00  0.00     0.026 A 
ENDROOT
BRANCH   2   7
HETATM    7  N   UNL     1     -42.377  54.177 -54.467  1.00  0.00    -0.325 N 
HETATM    8  C   UNL     1     -42.107  55.214 -55.333  1.00  0.00     0.227 C 
HETATM    9  O   UNL     1     -41.025  55.791 -55.448  1.00  0.00    -0.273 OA
HETATM   10  H   UNL     1     -43.343  53.884 -54.337  1.00  0.00     0.169 HD
BRANCH   8  11
HETATM   11  C   UNL     1     -43.329  55.646 -56.145  1.00  0.00     0.159 C 
BRANCH  11  12
HETATM   12  C   UNL     1     -42.944  56.185 -57.490  1.00  0.00     0.017 A 
HETATM   13  N   UNL     1     -42.261  57.373 -57.631  1.00  0.00    -0.369 N 
HETATM   14  H   UNL     1     -41.925  57.936 -56.855  1.00  0.00     0.165 HD
HETATM   15  C   UNL     1     -42.057  57.633 -58.960  1.00  0.00     0.088 A 
HETATM   16  C   UNL     1     -42.609  56.602 -59.684  1.00  0.00     0.019 A 
HETATM   17  C   UNL     1     -43.170  55.688 -58.759  1.00  0.00     0.027 A 
ENDBRANCH  11  12
ENDBRANCH   8  11
ENDBRANCH   2   7
BRANCH   1  18
HETATM   18  N   UNL     1     -42.509  54.789 -51.797  1.00  0.00    -0.281 NA
HETATM   19  C   UNL     1     -43.573  54.299 -50.915  1.00  0.00     0.117 C 
BRANCH  18  20
HETATM   20  C   UNL     1     -41.792  55.980 -51.283  1.00  0.00     0.133 C 
BRANCH  20  21
HETATM   21  C   UNL     1     -41.900  57.131 -52.262  1.00  0.00    -0.045 A 
HETATM   22  C   UNL     1     -40.763  57.852 -52.659  1.00  0.00     0.008 A 
HETATM   23  C   UNL     1     -40.870  58.914 -53.558  1.00  0.00     0.001 A 
HETATM   24  C   UNL     1     -42.114  59.265 -54.077  1.00  0.00     0.000 A 
HETATM   25  C   UNL     1     -43.251  58.557 -53.696  1.00  0.00     0.001 A 
HETATM   26  C   UNL     1     -43.147  57.497 -52.792  1.00  0.00     0.008 A 
ENDBRANCH  20  21
ENDBRANCH  18  20
ENDBRANCH   1  18
TORSDOF 6
ENDMDL
MODEL 5
REMARK VINA RESULT:      -7.1      2.130      5.040
REMARK  6 active torsions:
REMARK  status: ('A' for Active; 'I' for Inactive)
REMARK    1  A    between atoms: N_2  and  C_3 
REMARK    2  A    between atoms: N_2  and  C_19 
REMARK    3  A    between atoms: C_4  and  N_5 
REMARK       I    between atoms: N_5  and  C_6 
REMARK    4  A    between atoms: C_6  and  C_7 
REMARK    5  A    between atoms: C_7  and  C_8 
REMARK    6  A    between atoms: C_19  and  C_20 
ROOT
HETATM    1  C   UNL     1     -41.234  53.851 -52.518  1.00  0.00     0.037 A 
HETATM    2  C   UNL     1     -40.980  53.892 -53.914  1.00  0.00     0.056 A 
HETATM    3  C   UNL     1     -40.159  52.933 -54.510  1.00  0.00     0.031 A 
HETATM    4  C   UNL     1     -39.587  51.921 -53.738  1.00  0.00     0.002 A 
HETATM    5  C   UNL     1     -39.828  51.867 -52.369  1.00  0.00     0.002 A 
HETATM    6  C   UNL     1     -40.641  52.827 -51.761  1.00  0.00     0.026 A 
ENDROOT
BRANCH   2   7
HETATM    7  N   UNL     1     -41.638  54.905 -54.641  1.00  0.00    -0.325 N 
HETATM    8  C   UNL     1     -42.788  54.811 -55.396  1.00  0.00     0.227 C 
HETATM    9  O   UNL     1     -43.405  53.774 -55.638  1.00  0.00    -0.273 OA
HETATM   10  H   UNL     1     -41.121  55.782 -54.640  1.00  0.00     0.169 HD
BRANCH   8  11
HETATM   11  C   UNL     1     -43.230  56.154 -55.979  1.00  0.00     0.159 C 
BRANCH  11  12
HETATM   12  C   UNL     1     -43.175  56.157 -57.477  1.00  0.00     0.017 A 
HETATM   13  N   UNL     1     -43.837  55.214 -58.233  1.00  0.00    -0.369 N 
HETATM   14  H   UNL     1     -44.443  54.496 -57.848  1.00  0.00     0.165 HD
HETATM   15  C   UNL     1     -43.601  55.441 -59.563  1.00  0.00     0.088 A 
HETATM   16  C   UNL     1     -42.782  56.541 -59.668  1.00  0.00     0.019 A 
HETATM   17  C   UNL     1     -42.512  56.994 -58.354  1.00  0.00     0.027 A 
ENDBRANCH  11  12
ENDBRANCH   8  11
ENDBRANCH   2   7
BRANCH   1  18
HETATM   18  N   UNL     1     -42.039  54.870 -51.928  1.00  0.00    -0.281 NA
HETATM   19  C   UNL     1     -43.316  54.388 -51.394  1.00  0.00     0.117 C 
BRANCH  18  20
HETATM   20  C   UNL     1     -41.256  55.697 -50.980  1.00  0.00     0.133 C 
BRANCH  20  21
HETATM   21  C   UNL     1     -41.453  57.171 -51.270  1.00  0.00    -0.045 A 
HETATM   22  C   UNL     1     -42.220  57.596 -52.365  1.00  0.00     0.008 A 
HETATM   23  C   UNL     1     -42.394  58.955 -52.630  1.00  0.00     0.001 A 
HETATM   24  C   UNL     1     -41.810  59.907 -51.799  1.00  0.00     0.000 A 
HETATM   25  C   UNL     1     -41.048  59.502 -50.705  1.00  0.00     0.001 A 
HETATM   26  C   UNL     1     -40.868  58.141 -50.442  1.00  0.00     0.008 A 
ENDBRANCH  20  21
ENDBRANCH  18  20
ENDBRANCH   1  18
TORSDOF 6
ENDMDL
MODEL 6
REMARK VINA RESULT:      -6.9      2.109      6.648
REMARK  6 active torsions:
REMARK  status: ('A' for Active; 'I' for Inactive)
REMARK    1  A    between atoms: N_2  and  C_3 
REMARK    2  A    between atoms: N_2  and  C_19 
REMARK    3  A    between atoms: C_4  and  N_5 
REMARK       I    between atoms: N_5  and  C_6 
REMARK    4  A    between atoms: C_6  and  C_7 
REMARK    5  A    between atoms: C_7  and  C_8 
REMARK    6  A    between atoms: C_19  and  C_20 
ROOT
HETATM    1  C   UNL     1     -42.932  58.219 -51.564  1.00  0.00     0.037 A 
HETATM    2  C   UNL     1     -44.136  57.646 -52.052  1.00  0.00     0.056 A 
HETATM    3  C   UNL     1     -45.347  58.329 -51.921  1.00  0.00     0.031 A 
HETATM    4  C   UNL     1     -45.382  59.584 -51.314  1.00  0.00     0.002 A 
HETATM    5  C   UNL     1     -44.211  60.160 -50.832  1.00  0.00     0.002 A 
HETATM    6  C   UNL     1     -42.996  59.482 -50.951  1.00  0.00     0.026 A 
ENDROOT
BRANCH   2   7
HETATM    7  N   UNL     1     -44.016  56.403 -52.707  1.00  0.00    -0.325 N 
HETATM    8  C   UNL     1     -43.901  56.152 -54.058  1.00  0.00     0.227 C 
HETATM    9  O   UNL     1     -43.970  56.994 -54.953  1.00  0.00    -0.273 OA
HETATM   10  H   UNL     1     -44.109  55.617 -52.068  1.00  0.00     0.169 HD
BRANCH   8  11
HETATM   11  C   UNL     1     -43.722  54.667 -54.375  1.00  0.00     0.159 C 
BRANCH  11  12
HETATM   12  C   UNL     1     -42.279  54.305 -54.558  1.00  0.00     0.017 A 
HETATM   13  N   UNL     1     -41.328  55.244 -54.893  1.00  0.00    -0.369 N 
HETATM   14  H   UNL     1     -41.515  56.238 -54.985  1.00  0.00     0.165 HD
HETATM   15  C   UNL     1     -40.105  54.640 -55.013  1.00  0.00     0.088 A 
HETATM   16  C   UNL     1     -40.266  53.299 -54.751  1.00  0.00     0.019 A 
HETATM   17  C   UNL     1     -41.636  53.086 -54.464  1.00  0.00     0.027 A 
ENDBRANCH  11  12
ENDBRANCH   8  11
ENDBRANCH   2   7
BRANCH   1  18
HETATM   18  N   UNL     1     -41.718  57.480 -51.670  1.00  0.00    -0.281 NA
HETATM   19  C   UNL     1     -40.757  58.044 -52.623  1.00  0.00     0.117 C 
BRANCH  18  20
HETATM   20  C   UNL     1     -41.148  57.182 -50.335  1.00  0.00     0.133 C 
BRANCH  20  21
HETATM   21  C   UNL     1     -40.939  55.691 -50.165  1.00  0.00    -0.045 A 
HETATM   22  C   UNL     1     -40.763  54.854 -51.278  1.00  0.00     0.008 A 
HETATM   23  C   UNL     1     -40.576  53.481 -51.115  1.00  0.00     0.001 A 
HETATM   24  C   UNL     1     -40.556  52.927 -49.838  1.00  0.00     0.000 A 
HETATM   25  C   UNL     1     -40.725  53.744 -48.723  1.00  0.00     0.001 A 
HETATM   26  C   UNL     1     -40.917  55.119 -48.884  1.00  0.00     0.008 A 
ENDBRANCH  20  21
ENDBRANCH  18  20
ENDBRANCH   1  18
TORSDOF 6
ENDMDL
MODEL 7
REMARK VINA RESULT:      -6.7      2.772      6.967
REMARK  6 active torsions:
REMARK  status: ('A' for Active; 'I' for Inactive)
REMARK    1  A    between atoms: N_2  and  C_3 
REMARK    2  A    between atoms: N_2  and  C_19 
REMARK    3  A    between atoms: C_4  and  N_5 
REMARK       I    between atoms: N_5  and  C_6 
REMARK    4  A    between atoms: C_6  and  C_7 
REMARK    5  A    between atoms: C_7  and  C_8 
REMARK    6  A    between atoms: C_19  and  C_20 
ROOT
HETATM    1  C   UNL     1     -42.738  58.377 -52.922  1.00  0.00     0.037 A 
HETATM    2  C   UNL     1     -43.560  58.578 -54.062  1.00  0.00     0.056 A 
HETATM    3  C   UNL     1     -44.833  59.134 -53.926  1.00  0.00     0.031 A 
HETATM    4  C   UNL     1     -45.305  59.505 -52.666  1.00  0.00     0.002 A 
HETATM    5  C   UNL     1     -44.511  59.317 -51.540  1.00  0.00     0.002 A 
HETATM    6  C   UNL     1     -43.239  58.753 -51.665  1.00  0.00     0.026 A 
ENDROOT
BRANCH   2   7
HETATM    7  N   UNL     1     -42.995  58.236 -55.309  1.00  0.00    -0.325 N 
HETATM    8  C   UNL     1     -43.139  57.066 -56.024  1.00  0.00     0.227 C 
HETATM    9  O   UNL     1     -43.736  56.059 -55.641  1.00  0.00    -0.273 OA
HETATM   10  H   UNL     1     -42.347  58.942 -55.648  1.00  0.00     0.169 HD
BRANCH   8  11
HETATM   11  C   UNL     1     -42.422  57.100 -57.373  1.00  0.00     0.159 C 
BRANCH  11  12
HETATM   12  C   UNL     1     -43.282  56.561 -58.477  1.00  0.00     0.017 A 
HETATM   13  N   UNL     1     -44.654  56.687 -58.459  1.00  0.00    -0.369 N 
HETATM   14  H   UNL     1     -45.173  57.190 -57.746  1.00  0.00     0.165 HD
HETATM   15  C   UNL     1     -45.186  56.094 -59.573  1.00  0.00     0.088 A 
HETATM   16  C   UNL     1     -44.149  55.582 -60.318  1.00  0.00     0.019 A 
HETATM   17  C   UNL     1     -42.947  55.875 -59.628  1.00  0.00     0.027 A 
ENDBRANCH  11  12
ENDBRANCH   8  11
ENDBRANCH   2   7
BRANCH   1  18
HETATM   18  N   UNL     1     -41.461  57.765 -53.086  1.00  0.00    -0.281 NA
HETATM   19  C   UNL     1     -40.336  58.701 -53.012  1.00  0.00     0.117 C 
BRANCH  18  20
HETATM   20  C   UNL     1     -41.318  56.572 -52.216  1.00  0.00     0.133 C 
BRANCH  20  21
HETATM   21  C   UNL     1     -40.977  55.349 -53.043  1.00  0.00    -0.045 A 
HETATM   22  C   UNL     1     -41.138  54.056 -52.521  1.00  0.00     0.008 A 
HETATM   23  C   UNL     1     -40.817  52.933 -53.286  1.00  0.00     0.001 A 
HETATM   24  C   UNL     1     -40.340  53.088 -54.584  1.00  0.00     0.000 A 
HETATM   25  C   UNL     1     -40.180  54.364 -55.119  1.00  0.00     0.001 A 
HETATM   26  C   UNL     1     -40.494  55.490 -54.353  1.00  0.00     0.008 A 
ENDBRANCH  20  21
ENDBRANCH  18  20
ENDBRANCH   1  18
TORSDOF 6
ENDMDL
MODEL 8
REMARK VINA RESULT:      -6.7     14.552     16.717
REMARK  6 active torsions:
REMARK  status: ('A' for Active; 'I' for Inactive)
REMARK    1  A    between atoms: N_2  and  C_3 
REMARK    2  A    between atoms: N_2  and  C_19 
REMARK    3  A    between atoms: C_4  and  N_5 
REMARK       I    between atoms: N_5  and  C_6 
REMARK    4  A    between atoms: C_6  and  C_7 
REMARK    5  A    between atoms: C_7  and  C_8 
REMARK    6  A    between atoms: C_19  and  C_20 
ROOT
HETATM    1  C   UNL     1     -34.406  40.320 -52.245  1.00  0.00     0.037 A 
HETATM    2  C   UNL     1     -33.165  40.017 -52.865  1.00  0.00     0.056 A 
HETATM    3  C   UNL     1     -31.996  39.942 -52.105  1.00  0.00     0.031 A 
HETATM    4  C   UNL     1     -32.041  40.158 -50.727  1.00  0.00     0.002 A 
HETATM    5  C   UNL     1     -33.249  40.455 -50.105  1.00  0.00     0.002 A 
HETATM    6  C   UNL     1     -34.422  40.541 -50.858  1.00  0.00     0.026 A 
ENDROOT
BRANCH   2   7
HETATM    7  N   UNL     1     -33.205  39.751 -54.249  1.00  0.00    -0.325 N 
HETATM    8  C   UNL     1     -33.448  38.553 -54.887  1.00  0.00     0.227 C 
HETATM    9  O   UNL     1     -33.593  37.462 -54.334  1.00  0.00    -0.273 OA
HETATM   10  H   UNL     1     -32.940  40.559 -54.807  1.00  0.00     0.169 HD
BRANCH   8  11
HETATM   11  C   UNL     1     -33.476  38.683 -56.410  1.00  0.00     0.159 C 
BRANCH  11  12
HETATM   12  C   UNL     1     -34.868  38.574 -56.954  1.00  0.00     0.017 A 
HETATM   13  N   UNL     1     -35.960  38.396 -56.133  1.00  0.00    -0.369 N 
HETATM   14  H   UNL     1     -35.916  38.381 -55.119  1.00  0.00     0.165 HD
HETATM   15  C   UNL     1     -37.098  38.312 -56.891  1.00  0.00     0.088 A 
HETATM   16  C   UNL     1     -36.739  38.439 -58.213  1.00  0.00     0.019 A 
HETATM   17  C   UNL     1     -35.334  38.604 -58.255  1.00  0.00     0.027 A 
ENDBRANCH  11  12
ENDBRANCH   8  11
ENDBRANCH   2   7
BRANCH   1  18
HETATM   18  N   UNL     1     -35.575  40.435 -53.053  1.00  0.00    -0.281 NA
HETATM   19  C   UNL     1     -36.750  39.750 -52.504  1.00  0.00     0.117 C 
BRANCH  18  20
HETATM   20  C   UNL     1     -35.822  41.842 -53.450  1.00  0.00     0.133 C 
BRANCH  20  21
HETATM   21  C   UNL     1     -36.016  41.945 -54.949  1.00  0.00    -0.045 A 
HETATM   22  C   UNL     1     -37.293  41.833 -55.522  1.00  0.00     0.008 A 
HETATM   23  C   UNL     1     -37.465  41.925 -56.904  1.00  0.00     0.001 A 
HETATM   24  C   UNL     1     -36.365  42.137 -57.731  1.00  0.00     0.000 A 
HETATM   25  C   UNL     1     -35.092  42.255 -57.177  1.00  0.00     0.001 A 
HETATM   26  C   UNL     1     -34.917  42.158 -55.795  1.00  0.00     0.008 A 
ENDBRANCH  20  21
ENDBRANCH  18  20
ENDBRANCH   1  18
TORSDOF 6
ENDMDL
MODEL 9
REMARK VINA RESULT:      -6.6     14.137     16.874
REMARK  6 active torsions:
REMARK  status: ('A' for Active; 'I' for Inactive)
REMARK    1  A    between atoms: N_2  and  C_3 
REMARK    2  A    between atoms: N_2  and  C_19 
REMARK    3  A    between atoms: C_4  and  N_5 
REMARK       I    between atoms: N_5  and  C_6 
REMARK    4  A    between atoms: C_6  and  C_7 
REMARK    5  A    between atoms: C_7  and  C_8 
REMARK    6  A    between atoms: C_19  and  C_20 
ROOT
HETATM    1  C   UNL     1     -36.357  40.033 -58.100  1.00  0.00     0.037 A 
HETATM    2  C   UNL     1     -36.456  41.422 -57.824  1.00  0.00     0.056 A 
HETATM    3  C   UNL     1     -36.969  42.298 -58.782  1.00  0.00     0.031 A 
HETATM    4  C   UNL     1     -37.396  41.812 -60.018  1.00  0.00     0.002 A 
HETATM    5  C   UNL     1     -37.307  40.453 -60.304  1.00  0.00     0.002 A 
HETATM    6  C   UNL     1     -36.787  39.570 -59.355  1.00  0.00     0.026 A 
ENDROOT
BRANCH   2   7
HETATM    7  N   UNL     1     -36.063  41.833 -56.533  1.00  0.00    -0.325 N 
HETATM    8  C   UNL     1     -36.783  41.780 -55.359  1.00  0.00     0.227 C 
HETATM    9  O   UNL     1     -37.959  41.432 -55.253  1.00  0.00    -0.273 OA
HETATM   10  H   UNL     1     -35.153  42.290 -56.532  1.00  0.00     0.169 HD
BRANCH   8  11
HETATM   11  C   UNL     1     -35.983  42.260 -54.147  1.00  0.00     0.159 C 
BRANCH  11  12
HETATM   12  C   UNL     1     -35.441  41.114 -53.347  1.00  0.00     0.017 A 
HETATM   13  N   UNL     1     -35.731  39.804 -53.661  1.00  0.00    -0.369 N 
HETATM   14  H   UNL     1     -36.273  39.516 -54.470  1.00  0.00     0.165 HD
HETATM   15  C   UNL     1     -35.124  38.969 -52.761  1.00  0.00     0.088 A 
HETATM   16  C   UNL     1     -34.435  39.745 -51.858  1.00  0.00     0.019 A 
HETATM   17  C   UNL     1     -34.634  41.098 -52.225  1.00  0.00     0.027 A 
ENDBRANCH  11  12
ENDBRANCH   8  11
ENDBRANCH   2   7
BRANCH   1  18
HETATM   18  N   UNL     1     -35.786  39.169 -57.120  1.00  0.00    -0.281 NA
HETATM   19  C   UNL     1     -36.672  38.081 -56.694  1.00  0.00     0.117 C 
BRANCH  18  20
HETATM   20  C   UNL     1     -34.427  38.728 -57.514  1.00  0.00     0.133 C 
BRANCH  20  21
HETATM   21  C   UNL     1     -33.451  38.927 -56.371  1.00  0.00    -0.045 A 
HETATM   22  C   UNL     1     -33.015  40.210 -56.008  1.00  0.00     0.008 A 
HETATM   23  C   UNL     1     -32.112  40.386 -54.958  1.00  0.00     0.001 A 
HETATM   24  C   UNL     1     -31.640  39.282 -54.253  1.00  0.00     0.000 A 
HETATM   25  C   UNL     1     -32.067  38.002 -54.598  1.00  0.00     0.001 A 
HETATM   26  C   UNL     1     -32.966  37.824 -55.652  1.00  0.00     0.008 A 
ENDBRANCH  20  21
ENDBRANCH  18  20
ENDBRANCH   1  18
TORSDOF 6
ENDMDL
MODEL 10
REMARK VINA RESULT:      -6.6     14.711     17.262
REMARK  6 active torsions:
REMARK  status: ('A' for Active; 'I' for Inactive)
REMARK    1  A    between atoms: N_2  and  C_3 
REMARK    2  A    between atoms: N_2  and  C_19 
REMARK    3  A    between atoms: C_4  and  N_5 
REMARK       I    between atoms: N_5  and  C_6 
REMARK    4  A    between atoms: C_6  and  C_7 
REMARK    5  A    between atoms: C_7  and  C_8 
REMARK    6  A    between atoms: C_19  and  C_20 
ROOT
HETATM    1  C   UNL     1     -34.096  40.058 -52.265  1.00  0.00     0.037 A 
HETATM    2  C   UNL     1     -32.718  40.267 -52.534  1.00  0.00     0.056 A 
HETATM    3  C   UNL     1     -31.794  40.313 -51.489  1.00  0.00     0.031 A 
HETATM    4  C   UNL     1     -32.217  40.145 -50.170  1.00  0.00     0.002 A 
HETATM    5  C   UNL     1     -33.564  39.937 -49.890  1.00  0.00     0.002 A 
HETATM    6  C   UNL     1     -34.498  39.899 -50.928  1.00  0.00     0.026 A 
ENDROOT
BRANCH   2   7
HETATM    7  N   UNL     1     -32.354  40.368 -53.893  1.00  0.00    -0.325 N 
HETATM    8  C   UNL     1     -31.687  39.448 -54.674  1.00  0.00     0.227 C 
HETATM    9  O   UNL     1     -31.207  38.385 -54.279  1.00  0.00    -0.273 OA
HETATM   10  H   UNL     1     -32.564  41.284 -54.284  1.00  0.00     0.169 HD
BRANCH   8  11
HETATM   11  C   UNL     1     -31.538  39.897 -56.127  1.00  0.00     0.159 C 
BRANCH  11  12
HETATM   12  C   UNL     1     -32.223  38.958 -57.075  1.00  0.00     0.017 A 
HETATM   13  N   UNL     1     -31.533  38.281 -58.056  1.00  0.00    -0.369 N 
HETATM   14  H   UNL     1     -30.525  38.319 -58.177  1.00  0.00     0.165 HD
HETATM   15  C   UNL     1     -32.402  37.511 -58.783  1.00  0.00     0.088 A 
HETATM   16  C   UNL     1     -33.664  37.691 -58.267  1.00  0.00     0.019 A 
HETATM   17  C   UNL     1     -33.553  38.604 -57.189  1.00  0.00     0.027 A 
ENDBRANCH  11  12
ENDBRANCH   8  11
ENDBRANCH   2   7
BRANCH   1  18
HETATM   18  N   UNL     1     -35.024  40.062 -53.348  1.00  0.00    -0.281 NA
HETATM   19  C   UNL     1     -35.993  38.963 -53.308  1.00  0.00     0.117 C 
BRANCH  18  20
HETATM   20  C   UNL     1     -35.630  41.402 -53.535  1.00  0.00     0.133 C 
BRANCH  20  21
HETATM   21  C   UNL     1     -35.882  41.672 -55.004  1.00  0.00    -0.045 A 
HETATM   22  C   UNL     1     -34.817  41.871 -55.896  1.00  0.00     0.008 A 
HETATM   23  C   UNL     1     -35.056  42.124 -57.248  1.00  0.00     0.001 A 
HETATM   24  C   UNL     1     -36.362  42.173 -57.727  1.00  0.00     0.000 A 
HETATM   25  C   UNL     1     -37.430  41.973 -56.856  1.00  0.00     0.001 A 
HETATM   26  C   UNL     1     -37.193  41.725 -55.501  1.00  0.00     0.008 A 
ENDBRANCH  20  21
ENDBRANCH  18  20
ENDBRANCH   1  18
TORSDOF 6
ENDMDL
