MODEL 1
REMARK VINA RESULT:      -7.7      0.000      0.000
REMARK  10 active torsions:
REMARK  status: ('A' for Active; 'I' for Inactive)
REMARK    1  A    between atoms: C_2  and  O_3 
REMARK    2  A    between atoms: O_3  and  C_4 
REMARK    3  A    between atoms: C_7  and  N_8 
REMARK    4  A    between atoms: C_9  and  S_10 
REMARK    5  A    between atoms: S_10  and  C_11 
REMARK    6  A    between atoms: C_11  and  C_12 
REMARK       I    between atoms: C_12  and  N_13 
REMARK    7  A    between atoms: N_13  and  C_14 
REMARK    8  A    between atoms: C_15  and  O_16 
REMARK    9  A    between atoms: C_19  and  O_20 
REMARK   10  A    between atoms: C_29  and  N_30 
ROOT
HETATM    1  N   UNL     1     -42.934  56.448 -56.505  1.00  0.00    -0.276 N 
HETATM    2  C   UNL     1     -42.872  57.800 -56.321  1.00  0.00     0.177 A 
HETATM    3  N   UNL     1     -43.297  58.701 -57.214  1.00  0.00    -0.204 NA
HETATM    4  C   UNL     1     -43.749  58.162 -58.336  1.00  0.00     0.162 A 
HETATM    5  C   UNL     1     -43.850  56.819 -58.617  1.00  0.00     0.081 A 
HETATM    6  C   UNL     1     -43.459  55.889 -57.640  1.00  0.00     0.124 A 
HETATM    7  N   UNL     1     -44.195  58.844 -59.429  1.00  0.00    -0.260 N 
HETATM    8  H   UNL     1     -44.244  59.851 -59.555  1.00  0.00     0.191 HD
HETATM    9  N   UNL     1     -44.593  58.030 -60.420  1.00  0.00    -0.177 NA
HETATM   10  C   UNL     1     -44.380  56.797 -59.942  1.00  0.00     0.068 A 
HETATM   11  C   UNL     1     -44.693  55.626 -60.802  1.00  0.00     0.073 C 
ENDROOT
BRANCH   2  12
HETATM   12  S   UNL     1     -42.198  58.543 -54.822  1.00  0.00    -0.082 SA
BRANCH  12  13
HETATM   13  C   UNL     1     -43.702  59.272 -54.050  1.00  0.00     0.185 C 
BRANCH  13  14
HETATM   14  C   UNL     1     -43.395  60.113 -52.818  1.00  0.00     0.232 C 
HETATM   15  N   UNL     1     -43.165  59.552 -51.599  1.00  0.00    -0.324 N 
HETATM   16  H   UNL     1     -43.297  60.209 -50.832  1.00  0.00     0.169 HD
HETATM   17  O   UNL     1     -43.439  61.348 -52.888  1.00  0.00    -0.272 OA
BRANCH  15  18
HETATM   18  C   UNL     1     -42.707  58.288 -51.182  1.00  0.00     0.070 A 
HETATM   19  C   UNL     1     -41.310  58.123 -51.062  1.00  0.00     0.097 A 
HETATM   20  C   UNL     1     -40.774  56.871 -50.729  1.00  0.00     0.077 A 
HETATM   21  C   UNL     1     -41.614  55.770 -50.537  1.00  0.00     0.092 A 
HETATM   22  C   UNL     1     -43.000  55.942 -50.680  1.00  0.00     0.069 A 
HETATM   23 CL   UNL     1     -44.096  54.616 -50.498  1.00  0.00    -0.081 Cl
HETATM   24  C   UNL     1     -43.543  57.190 -51.003  1.00  0.00     0.059 A 
BRANCH  19  25
HETATM   25  O   UNL     1     -40.568  59.263 -51.275  1.00  0.00    -0.354 OA
HETATM   26  C   UNL     1     -39.231  59.279 -50.786  1.00  0.00     0.210 C 
ENDBRANCH  19  25
BRANCH  21  27
HETATM   27  O   UNL     1     -41.184  54.508 -50.221  1.00  0.00    -0.354 OA
HETATM   28  C   UNL     1     -39.888  54.361 -49.657  1.00  0.00     0.210 C 
ENDBRANCH  21  27
ENDBRANCH  15  18
ENDBRANCH  13  14
ENDBRANCH  12  13
ENDBRANCH   2  12
BRANCH   1  29
HETATM   29  C   UNL     1     -42.392  55.562 -55.511  1.00  0.00     0.043 A 
HETATM   30  C   UNL     1     -43.246  54.961 -54.584  1.00  0.00     0.033 A 
HETATM   31  C   UNL     1     -42.727  53.997 -53.711  1.00  0.00     0.039 A 
HETATM   32  C   UNL     1     -41.379  53.630 -53.787  1.00  0.00     0.068 A 
HETATM   33  C   UNL     1     -40.544  54.249 -54.726  1.00  0.00     0.039 A 
HETATM   34  C   UNL     1     -41.042  55.218 -55.595  1.00  0.00     0.033 A 
BRANCH  32  35
HETATM   35  O   UNL     1     -40.758  52.678 -53.033  1.00  0.00    -0.352 OA
BRANCH  35  36
HETATM   36  C   UNL     1     -39.718  51.914 -53.641  1.00  0.00     0.171 C 
HETATM   37  C   UNL     1     -40.355  50.702 -54.298  1.00  0.00     0.034 C 
ENDBRANCH  35  36
ENDBRANCH  32  35
ENDBRANCH   1  29
BRANCH   6  38
HETATM   38  N   UNL     1     -43.589  54.515 -57.823  1.00  0.00    -0.384 N 
HETATM   39  H   UNL     1     -43.855  53.948 -57.024  1.00  0.00     0.157 HD
HETATM   40  H   UNL     1     -43.042  54.021 -58.518  1.00  0.00     0.157 HD
ENDBRANCH   6  38
TORSDOF 10
ENDMDL
MODEL 2
REMARK VINA RESULT:      -7.5      2.815      4.725
REMARK  10 active torsions:
REMARK  status: ('A' for Active; 'I' for Inactive)
REMARK    1  A    between atoms: C_2  and  O_3 
REMARK    2  A    between atoms: O_3  and  C_4 
REMARK    3  A    between atoms: C_7  and  N_8 
REMARK    4  A    between atoms: C_9  and  S_10 
REMARK    5  A    between atoms: S_10  and  C_11 
REMARK    6  A    between atoms: C_11  and  C_12 
REMARK       I    between atoms: C_12  and  N_13 
REMARK    7  A    between atoms: N_13  and  C_14 
REMARK    8  A    between atoms: C_15  and  O_16 
REMARK    9  A    between atoms: C_19  and  O_20 
REMARK   10  A    between atoms: C_29  and  N_30 
ROOT
HETATM    1  N   UNL     1     -41.755  57.103 -54.971  1.00  0.00    -0.276 N 
HETATM    2  C   UNL     1     -41.595  58.037 -53.986  1.00  0.00     0.177 A 
HETATM    3  N   UNL     1     -41.694  59.357 -54.178  1.00  0.00    -0.204 NA
HETATM    4  C   UNL     1     -41.916  59.693 -55.440  1.00  0.00     0.162 A 
HETATM    5  C   UNL     1     -42.089  58.832 -56.499  1.00  0.00     0.081 A 
HETATM    6  C   UNL     1     -42.046  57.448 -56.263  1.00  0.00     0.124 A 
HETATM    7  N   UNL     1     -42.009  60.963 -55.926  1.00  0.00    -0.260 N 
HETATM    8  H   UNL     1     -41.919  61.834 -55.409  1.00  0.00     0.191 HD
HETATM    9  N   UNL     1     -42.240  60.996 -57.248  1.00  0.00    -0.177 NA
HETATM   10  C   UNL     1     -42.282  59.708 -57.610  1.00  0.00     0.068 A 
HETATM   11  C   UNL     1     -42.500  59.366 -59.040  1.00  0.00     0.073 C 
ENDROOT
BRANCH   2  12
HETATM   12  S   UNL     1     -41.229  57.590 -52.277  1.00  0.00    -0.082 SA
BRANCH  12  13
HETATM   13  C   UNL     1     -42.695  58.257 -51.387  1.00  0.00     0.185 C 
BRANCH  13  14
HETATM   14  C   UNL     1     -43.919  57.357 -51.490  1.00  0.00     0.232 C 
HETATM   15  N   UNL     1     -44.976  57.662 -52.292  1.00  0.00    -0.324 N 
HETATM   16  H   UNL     1     -45.828  57.172 -52.025  1.00  0.00     0.169 HD
HETATM   17  O   UNL     1     -44.014  56.359 -50.763  1.00  0.00    -0.272 OA
BRANCH  15  18
HETATM   18  C   UNL     1     -45.119  58.444 -53.454  1.00  0.00     0.070 A 
HETATM   19  C   UNL     1     -45.308  59.831 -53.270  1.00  0.00     0.097 A 
HETATM   20  C   UNL     1     -45.536  60.665 -54.374  1.00  0.00     0.077 A 
HETATM   21  C   UNL     1     -45.604  60.128 -55.663  1.00  0.00     0.092 A 
HETATM   22  C   UNL     1     -45.437  58.745 -55.831  1.00  0.00     0.069 A 
HETATM   23 CL   UNL     1     -45.551  58.005 -57.391  1.00  0.00    -0.081 Cl
HETATM   24  C   UNL     1     -45.199  57.908 -54.735  1.00  0.00     0.059 A 
BRANCH  19  25
HETATM   25  O   UNL     1     -45.227  60.262 -51.965  1.00  0.00    -0.354 OA
HETATM   26  C   UNL     1     -44.476  61.444 -51.707  1.00  0.00     0.210 C 
ENDBRANCH  19  25
BRANCH  21  27
HETATM   27  O   UNL     1     -45.835  60.858 -56.799  1.00  0.00    -0.354 OA
HETATM   28  C   UNL     1     -47.151  61.339 -57.034  1.00  0.00     0.210 C 
ENDBRANCH  21  27
ENDBRANCH  15  18
ENDBRANCH  13  14
ENDBRANCH  12  13
ENDBRANCH   2  12
BRANCH   1  29
HETATM   29  C   UNL     1     -41.567  55.709 -54.674  1.00  0.00     0.043 A 
HETATM   30  C   UNL     1     -42.659  54.935 -54.277  1.00  0.00     0.033 A 
HETATM   31  C   UNL     1     -42.490  53.554 -54.126  1.00  0.00     0.039 A 
HETATM   32  C   UNL     1     -41.252  52.962 -54.393  1.00  0.00     0.068 A 
HETATM   33  C   UNL     1     -40.172  53.760 -54.789  1.00  0.00     0.039 A 
HETATM   34  C   UNL     1     -40.320  55.139 -54.934  1.00  0.00     0.033 A 
BRANCH  32  35
HETATM   35  O   UNL     1     -40.964  51.629 -54.330  1.00  0.00    -0.352 OA
BRANCH  35  36
HETATM   36  C   UNL     1     -39.716  51.239 -53.759  1.00  0.00     0.171 C 
HETATM   37  C   UNL     1     -39.385  49.848 -54.271  1.00  0.00     0.034 C 
ENDBRANCH  35  36
ENDBRANCH  32  35
ENDBRANCH   1  29
BRANCH   6  38
HETATM   38  N   UNL     1     -42.274  56.513 -57.268  1.00  0.00    -0.384 N 
HETATM   39  H   UNL     1     -43.133  55.971 -57.234  1.00  0.00     0.157 HD
HETATM   40  H   UNL     1     -41.507  56.044 -57.738  1.00  0.00     0.157 HD
ENDBRANCH   6  38
TORSDOF 10
ENDMDL
MODEL 3
REMARK VINA RESULT:      -7.5      2.397      5.200
REMARK  10 active torsions:
REMARK  status: ('A' for Active; 'I' for Inactive)
REMARK    1  A    between atoms: C_2  and  O_3 
REMARK    2  A    between atoms: O_3  and  C_4 
REMARK    3  A    between atoms: C_7  and  N_8 
REMARK    4  A    between atoms: C_9  and  S_10 
REMARK    5  A    between atoms: S_10  and  C_11 
REMARK    6  A    between atoms: C_11  and  C_12 
REMARK       I    between atoms: C_12  and  N_13 
REMARK    7  A    between atoms: N_13  and  C_14 
REMARK    8  A    between atoms: C_15  and  O_16 
REMARK    9  A    between atoms: C_19  and  O_20 
REMARK   10  A    between atoms: C_29  and  N_30 
ROOT
HETATM    1  N   UNL     1     -43.965  58.515 -55.052  1.00  0.00    -0.276 N 
HETATM    2  C   UNL     1     -42.619  58.723 -55.154  1.00  0.00     0.177 A 
HETATM    3  N   UNL     1     -41.899  58.470 -56.253  1.00  0.00    -0.204 NA
HETATM    4  C   UNL     1     -42.608  57.943 -57.240  1.00  0.00     0.162 A 
HETATM    5  C   UNL     1     -43.962  57.695 -57.234  1.00  0.00     0.081 A 
HETATM    6  C   UNL     1     -44.709  58.029 -56.094  1.00  0.00     0.124 A 
HETATM    7  N   UNL     1     -42.123  57.542 -58.449  1.00  0.00    -0.260 N 
HETATM    8  H   UNL     1     -41.160  57.578 -58.774  1.00  0.00     0.191 HD
HETATM    9  N   UNL     1     -43.078  57.046 -59.251  1.00  0.00    -0.177 NA
HETATM   10  C   UNL     1     -44.198  57.125 -58.522  1.00  0.00     0.068 A 
HETATM   11  C   UNL     1     -45.474  56.629 -59.102  1.00  0.00     0.073 C 
ENDROOT
BRANCH   2  12
HETATM   12  S   UNL     1     -41.635  59.381 -53.792  1.00  0.00    -0.082 SA
BRANCH  12  13
HETATM   13  C   UNL     1     -40.927  57.848 -53.060  1.00  0.00     0.185 C 
BRANCH  13  14
HETATM   14  C   UNL     1     -41.297  57.657 -51.596  1.00  0.00     0.232 C 
HETATM   15  N   UNL     1     -41.537  56.426 -51.065  1.00  0.00    -0.324 N 
HETATM   16  H   UNL     1     -42.074  56.467 -50.202  1.00  0.00     0.169 HD
HETATM   17  O   UNL     1     -41.478  58.644 -50.871  1.00  0.00    -0.272 OA
BRANCH  15  18
HETATM   18  C   UNL     1     -41.131  55.123 -51.412  1.00  0.00     0.070 A 
HETATM   19  C   UNL     1     -40.749  54.270 -50.354  1.00  0.00     0.097 A 
HETATM   20  C   UNL     1     -40.258  52.985 -50.625  1.00  0.00     0.077 A 
HETATM   21  C   UNL     1     -40.120  52.545 -51.945  1.00  0.00     0.092 A 
HETATM   22  C   UNL     1     -40.483  53.410 -52.989  1.00  0.00     0.069 A 
HETATM   23 CL   UNL     1     -40.299  52.949 -54.647  1.00  0.00    -0.081 Cl
HETATM   24  C   UNL     1     -40.982  54.690 -52.726  1.00  0.00     0.059 A 
BRANCH  19  25
HETATM   25  O   UNL     1     -40.918  54.795 -49.093  1.00  0.00    -0.354 OA
HETATM   26  C   UNL     1     -40.379  54.063 -47.997  1.00  0.00     0.210 C 
ENDBRANCH  19  25
BRANCH  21  27
HETATM   27  O   UNL     1     -39.640  51.314 -52.309  1.00  0.00    -0.354 OA
HETATM   28  C   UNL     1     -39.475  50.331 -51.297  1.00  0.00     0.210 C 
ENDBRANCH  21  27
ENDBRANCH  15  18
ENDBRANCH  13  14
ENDBRANCH  12  13
ENDBRANCH   2  12
BRANCH   1  29
HETATM   29  C   UNL     1     -44.637  58.761 -53.805  1.00  0.00     0.043 A 
HETATM   30  C   UNL     1     -44.629  57.778 -52.813  1.00  0.00     0.033 A 
HETATM   31  C   UNL     1     -45.165  58.081 -51.556  1.00  0.00     0.039 A 
HETATM   32  C   UNL     1     -45.679  59.356 -51.297  1.00  0.00     0.068 A 
HETATM   33  C   UNL     1     -45.676  60.323 -52.310  1.00  0.00     0.039 A 
HETATM   34  C   UNL     1     -45.155  60.035 -53.570  1.00  0.00     0.033 A 
BRANCH  32  35
HETATM   35  O   UNL     1     -46.187  59.795 -50.110  1.00  0.00    -0.352 OA
BRANCH  35  36
HETATM   36  C   UNL     1     -45.369  60.640 -49.301  1.00  0.00     0.171 C 
HETATM   37  C   UNL     1     -46.155  61.904 -49.004  1.00  0.00     0.034 C 
ENDBRANCH  35  36
ENDBRANCH  32  35
ENDBRANCH   1  29
BRANCH   6  38
HETATM   38  N   UNL     1     -46.090  57.867 -56.034  1.00  0.00    -0.384 N 
HETATM   39  H   UNL     1     -46.593  57.709 -56.902  1.00  0.00     0.157 HD
HETATM   40  H   UNL     1     -46.643  58.313 -55.310  1.00  0.00     0.157 HD
ENDBRANCH   6  38
TORSDOF 10
ENDMDL
MODEL 4
REMARK VINA RESULT:      -7.2      3.686      8.579
REMARK  10 active torsions:
REMARK  status: ('A' for Active; 'I' for Inactive)
REMARK    1  A    between atoms: C_2  and  O_3 
REMARK    2  A    between atoms: O_3  and  C_4 
REMARK    3  A    between atoms: C_7  and  N_8 
REMARK    4  A    between atoms: C_9  and  S_10 
REMARK    5  A    between atoms: S_10  and  C_11 
REMARK    6  A    between atoms: C_11  and  C_12 
REMARK       I    between atoms: C_12  and  N_13 
REMARK    7  A    between atoms: N_13  and  C_14 
REMARK    8  A    between atoms: C_15  and  O_16 
REMARK    9  A    between atoms: C_19  and  O_20 
REMARK   10  A    between atoms: C_29  and  N_30 
ROOT
HETATM    1  N   UNL     1     -42.693  56.349 -52.005  1.00  0.00    -0.276 N 
HETATM    2  C   UNL     1     -42.882  55.658 -53.167  1.00  0.00     0.177 A 
HETATM    3  N   UNL     1     -42.272  54.505 -53.466  1.00  0.00    -0.204 NA
HETATM    4  C   UNL     1     -41.411  54.107 -52.539  1.00  0.00     0.162 A 
HETATM    5  C   UNL     1     -41.150  54.732 -51.342  1.00  0.00     0.081 A 
HETATM    6  C   UNL     1     -41.851  55.906 -51.021  1.00  0.00     0.124 A 
HETATM    7  N   UNL     1     -40.618  53.001 -52.606  1.00  0.00    -0.260 N 
HETATM    8  H   UNL     1     -40.558  52.325 -53.363  1.00  0.00     0.191 HD
HETATM    9  N   UNL     1     -39.847  52.850 -51.517  1.00  0.00    -0.177 NA
HETATM   10  C   UNL     1     -40.155  53.901 -50.746  1.00  0.00     0.068 A 
HETATM   11  C   UNL     1     -39.456  54.070 -49.444  1.00  0.00     0.073 C 
ENDROOT
BRANCH   2  12
HETATM   12  S   UNL     1     -44.003  56.226 -54.461  1.00  0.00    -0.082 SA
BRANCH  12  13
HETATM   13  C   UNL     1     -42.856  56.468 -55.879  1.00  0.00     0.185 C 
BRANCH  13  14
HETATM   14  C   UNL     1     -42.818  57.906 -56.380  1.00  0.00     0.232 C 
HETATM   15  N   UNL     1     -43.359  58.270 -57.575  1.00  0.00    -0.324 N 
HETATM   16  H   UNL     1     -42.987  59.152 -57.923  1.00  0.00     0.169 HD
HETATM   17  O   UNL     1     -42.203  58.767 -55.737  1.00  0.00    -0.272 OA
BRANCH  15  18
HETATM   18  C   UNL     1     -44.375  57.730 -58.386  1.00  0.00     0.070 A 
HETATM   19  C   UNL     1     -45.690  58.184 -58.148  1.00  0.00     0.097 A 
HETATM   20  C   UNL     1     -46.766  57.636 -58.861  1.00  0.00     0.077 A 
HETATM   21  C   UNL     1     -46.550  56.618 -59.794  1.00  0.00     0.092 A 
HETATM   22  C   UNL     1     -45.240  56.160 -60.006  1.00  0.00     0.069 A 
HETATM   23 CL   UNL     1     -44.903  54.874 -61.115  1.00  0.00    -0.081 Cl
HETATM   24  C   UNL     1     -44.161  56.709 -59.306  1.00  0.00     0.059 A 
BRANCH  19  25
HETATM   25  O   UNL     1     -45.800  59.185 -57.209  1.00  0.00    -0.354 OA
HETATM   26  C   UNL     1     -46.635  60.294 -57.522  1.00  0.00     0.210 C 
ENDBRANCH  19  25
BRANCH  21  27
HETATM   27  O   UNL     1     -47.536  56.013 -60.528  1.00  0.00    -0.354 OA
HETATM   28  C   UNL     1     -48.035  56.692 -61.673  1.00  0.00     0.210 C 
ENDBRANCH  21  27
ENDBRANCH  15  18
ENDBRANCH  13  14
ENDBRANCH  12  13
ENDBRANCH   2  12
BRANCH   1  29
HETATM   29  C   UNL     1     -43.350  57.613 -51.807  1.00  0.00     0.043 A 
HETATM   30  C   UNL     1     -42.753  58.782 -52.281  1.00  0.00     0.033 A 
HETATM   31  C   UNL     1     -43.465  59.985 -52.205  1.00  0.00     0.039 A 
HETATM   32  C   UNL     1     -44.762  60.004 -51.683  1.00  0.00     0.068 A 
HETATM   33  C   UNL     1     -45.339  58.817 -51.213  1.00  0.00     0.039 A 
HETATM   34  C   UNL     1     -44.639  57.613 -51.272  1.00  0.00     0.033 A 
BRANCH  32  35
HETATM   35  O   UNL     1     -45.580  61.092 -51.594  1.00  0.00    -0.352 OA
BRANCH  35  36
HETATM   36  C   UNL     1     -46.779  61.096 -52.368  1.00  0.00     0.171 C 
HETATM   37  C   UNL     1     -46.452  61.690 -53.727  1.00  0.00     0.034 C 
ENDBRANCH  35  36
ENDBRANCH  32  35
ENDBRANCH   1  29
BRANCH   6  38
HETATM   38  N   UNL     1     -41.690  56.561 -49.803  1.00  0.00    -0.384 N 
HETATM   39  H   UNL     1     -42.434  57.175 -49.486  1.00  0.00     0.157 HD
HETATM   40  H   UNL     1     -40.771  56.812 -49.456  1.00  0.00     0.157 HD
ENDBRANCH   6  38
TORSDOF 10
ENDMDL
MODEL 5
REMARK VINA RESULT:      -7.2      2.836      6.522
REMARK  10 active torsions:
REMARK  status: ('A' for Active; 'I' for Inactive)
REMARK    1  A    between atoms: C_2  and  O_3 
REMARK    2  A    between atoms: O_3  and  C_4 
REMARK    3  A    between atoms: C_7  and  N_8 
REMARK    4  A    between atoms: C_9  and  S_10 
REMARK    5  A    between atoms: S_10  and  C_11 
REMARK    6  A    between atoms: C_11  and  C_12 
REMARK       I    between atoms: C_12  and  N_13 
REMARK    7  A    between atoms: N_13  and  C_14 
REMARK    8  A    between atoms: C_15  and  O_16 
REMARK    9  A    between atoms: C_19  and  O_20 
REMARK   10  A    between atoms: C_29  and  N_30 
ROOT
HETATM    1  N   UNL     1     -43.602  59.187 -53.061  1.00  0.00    -0.276 N 
HETATM    2  C   UNL     1     -42.366  58.607 -53.003  1.00  0.00     0.177 A 
HETATM    3  N   UNL     1     -41.779  57.982 -54.030  1.00  0.00    -0.204 NA
HETATM    4  C   UNL     1     -42.533  57.929 -55.118  1.00  0.00     0.162 A 
HETATM    5  C   UNL     1     -43.785  58.479 -55.275  1.00  0.00     0.081 A 
HETATM    6  C   UNL     1     -44.355  59.186 -54.204  1.00  0.00     0.124 A 
HETATM    7  N   UNL     1     -42.207  57.312 -56.289  1.00  0.00    -0.260 N 
HETATM    8  H   UNL     1     -41.355  56.801 -56.505  1.00  0.00     0.191 HD
HETATM    9  N   UNL     1     -43.169  57.424 -57.219  1.00  0.00    -0.177 NA
HETATM   10  C   UNL     1     -44.137  58.123 -56.612  1.00  0.00     0.068 A 
HETATM   11  C   UNL     1     -45.390  58.417 -57.356  1.00  0.00     0.073 C 
ENDROOT
BRANCH   2  12
HETATM   12  S   UNL     1     -41.360  58.619 -51.506  1.00  0.00    -0.082 SA
BRANCH  12  13
HETATM   13  C   UNL     1     -41.105  56.822 -51.205  1.00  0.00     0.185 C 
BRANCH  13  14
HETATM   14  C   UNL     1     -42.401  56.022 -51.223  1.00  0.00     0.232 C 
HETATM   15  N   UNL     1     -42.539  54.886 -51.962  1.00  0.00    -0.324 N 
HETATM   16  H   UNL     1     -43.512  54.647 -52.139  1.00  0.00     0.169 HD
HETATM   17  O   UNL     1     -43.398  56.448 -50.627  1.00  0.00    -0.272 OA
BRANCH  15  18
HETATM   18  C   UNL     1     -41.628  53.935 -52.460  1.00  0.00     0.070 A 
HETATM   19  C   UNL     1     -41.568  53.783 -53.862  1.00  0.00     0.097 A 
HETATM   20  C   UNL     1     -40.743  52.802 -54.431  1.00  0.00     0.077 A 
HETATM   21  C   UNL     1     -39.993  51.949 -53.615  1.00  0.00     0.092 A 
HETATM   22  C   UNL     1     -40.078  52.097 -52.222  1.00  0.00     0.069 A 
HETATM   23 CL   UNL     1     -39.211  51.050 -51.150  1.00  0.00    -0.081 Cl
HETATM   24  C   UNL     1     -40.891  53.080 -51.648  1.00  0.00     0.059 A 
BRANCH  19  25
HETATM   25  O   UNL     1     -42.345  54.665 -54.579  1.00  0.00    -0.354 OA
HETATM   26  C   UNL     1     -43.245  54.121 -55.538  1.00  0.00     0.210 C 
ENDBRANCH  19  25
BRANCH  21  27
HETATM   27  O   UNL     1     -39.170  50.955 -54.076  1.00  0.00    -0.354 OA
HETATM   28  C   UNL     1     -39.766  49.755 -54.549  1.00  0.00     0.210 C 
ENDBRANCH  21  27
ENDBRANCH  15  18
ENDBRANCH  13  14
ENDBRANCH  12  13
ENDBRANCH   2  12
BRANCH   1  29
HETATM   29  C   UNL     1     -44.172  59.780 -51.882  1.00  0.00     0.043 A 
HETATM   30  C   UNL     1     -43.925  61.125 -51.598  1.00  0.00     0.033 A 
HETATM   31  C   UNL     1     -44.596  61.725 -50.526  1.00  0.00     0.039 A 
HETATM   32  C   UNL     1     -45.515  60.990 -49.770  1.00  0.00     0.068 A 
HETATM   33  C   UNL     1     -45.744  59.642 -50.075  1.00  0.00     0.039 A 
HETATM   34  C   UNL     1     -45.077  59.027 -51.133  1.00  0.00     0.033 A 
BRANCH  32  35
HETATM   35  O   UNL     1     -46.267  61.461 -48.734  1.00  0.00    -0.352 OA
BRANCH  35  36
HETATM   36  C   UNL     1     -45.601  62.171 -47.690  1.00  0.00     0.171 C 
HETATM   37  C   UNL     1     -44.850  61.159 -46.845  1.00  0.00     0.034 C 
ENDBRANCH  35  36
ENDBRANCH  32  35
ENDBRANCH   1  29
BRANCH   6  38
HETATM   38  N   UNL     1     -45.588  59.824 -54.305  1.00  0.00    -0.384 N 
HETATM   39  H   UNL     1     -46.266  59.457 -54.966  1.00  0.00     0.157 HD
HETATM   40  H   UNL     1     -45.687  60.816 -54.118  1.00  0.00     0.157 HD
ENDBRANCH   6  38
TORSDOF 10
ENDMDL
MODEL 6
REMARK VINA RESULT:      -7.1      3.721      8.821
REMARK  10 active torsions:
REMARK  status: ('A' for Active; 'I' for Inactive)
REMARK    1  A    between atoms: C_2  and  O_3 
REMARK    2  A    between atoms: O_3  and  C_4 
REMARK    3  A    between atoms: C_7  and  N_8 
REMARK    4  A    between atoms: C_9  and  S_10 
REMARK    5  A    between atoms: S_10  and  C_11 
REMARK    6  A    between atoms: C_11  and  C_12 
REMARK       I    between atoms: C_12  and  N_13 
REMARK    7  A    between atoms: N_13  and  C_14 
REMARK    8  A    between atoms: C_15  and  O_16 
REMARK    9  A    between atoms: C_19  and  O_20 
REMARK   10  A    between atoms: C_29  and  N_30 
ROOT
HETATM    1  N   UNL     1     -41.394  56.162 -51.709  1.00  0.00    -0.276 N 
HETATM    2  C   UNL     1     -41.137  55.583 -52.919  1.00  0.00     0.177 A 
HETATM    3  N   UNL     1     -40.750  54.312 -53.079  1.00  0.00    -0.204 NA
HETATM    4  C   UNL     1     -40.585  53.662 -51.936  1.00  0.00     0.162 A 
HETATM    5  C   UNL     1     -40.816  54.155 -50.672  1.00  0.00     0.081 A 
HETATM    6  C   UNL     1     -41.285  55.472 -50.531  1.00  0.00     0.124 A 
HETATM    7  N   UNL     1     -40.150  52.378 -51.801  1.00  0.00    -0.260 N 
HETATM    8  H   UNL     1     -39.882  51.732 -52.540  1.00  0.00     0.191 HD
HETATM    9  N   UNL     1     -40.082  51.985 -50.519  1.00  0.00    -0.177 NA
HETATM   10  C   UNL     1     -40.476  53.060 -49.823  1.00  0.00     0.068 A 
HETATM   11  C   UNL     1     -40.500  52.988 -48.338  1.00  0.00     0.073 C 
ENDROOT
BRANCH   2  12
HETATM   12  S   UNL     1     -41.296  56.481 -54.476  1.00  0.00    -0.082 SA
BRANCH  12  13
HETATM   13  C   UNL     1     -41.419  55.108 -55.695  1.00  0.00     0.185 C 
BRANCH  13  14
HETATM   14  C   UNL     1     -42.848  54.829 -56.141  1.00  0.00     0.232 C 
HETATM   15  N   UNL     1     -43.533  55.682 -56.952  1.00  0.00    -0.324 N 
HETATM   16  H   UNL     1     -44.541  55.549 -56.903  1.00  0.00     0.169 HD
HETATM   17  O   UNL     1     -43.455  53.849 -55.690  1.00  0.00    -0.272 OA
BRANCH  15  18
HETATM   18  C   UNL     1     -43.139  56.646 -57.899  1.00  0.00     0.070 A 
HETATM   19  C   UNL     1     -43.203  56.269 -59.258  1.00  0.00     0.097 A 
HETATM   20  C   UNL     1     -42.754  57.146 -60.256  1.00  0.00     0.077 A 
HETATM   21  C   UNL     1     -42.217  58.391 -59.914  1.00  0.00     0.092 A 
HETATM   22  C   UNL     1     -42.139  58.746 -58.558  1.00  0.00     0.069 A 
HETATM   23 CL   UNL     1     -41.448  60.251 -58.058  1.00  0.00    -0.081 Cl
HETATM   24  C   UNL     1     -42.594  57.880 -57.557  1.00  0.00     0.059 A 
BRANCH  19  25
HETATM   25  O   UNL     1     -43.742  55.025 -59.493  1.00  0.00    -0.354 OA
HETATM   26  C   UNL     1     -44.695  54.908 -60.544  1.00  0.00     0.210 C 
ENDBRANCH  19  25
BRANCH  21  27
HETATM   27  O   UNL     1     -41.743  59.309 -60.814  1.00  0.00    -0.354 OA
HETATM   28  C   UNL     1     -42.667  60.216 -61.399  1.00  0.00     0.210 C 
ENDBRANCH  21  27
ENDBRANCH  15  18
ENDBRANCH  13  14
ENDBRANCH  12  13
ENDBRANCH   2  12
BRANCH   1  29
HETATM   29  C   UNL     1     -41.745  57.555 -51.640  1.00  0.00     0.043 A 
HETATM   30  C   UNL     1     -43.089  57.930 -51.686  1.00  0.00     0.033 A 
HETATM   31  C   UNL     1     -43.424  59.273 -51.479  1.00  0.00     0.039 A 
HETATM   32  C   UNL     1     -42.426  60.215 -51.208  1.00  0.00     0.068 A 
HETATM   33  C   UNL     1     -41.085  59.812 -51.168  1.00  0.00     0.039 A 
HETATM   34  C   UNL     1     -40.733  58.481 -51.382  1.00  0.00     0.033 A 
BRANCH  32  35
HETATM   35  O   UNL     1     -42.617  61.540 -50.944  1.00  0.00    -0.352 OA
BRANCH  35  36
HETATM   36  C   UNL     1     -43.592  61.895 -49.964  1.00  0.00     0.171 C 
HETATM   37  C   UNL     1     -44.468  62.985 -50.555  1.00  0.00     0.034 C 
ENDBRANCH  35  36
ENDBRANCH  32  35
ENDBRANCH   1  29
BRANCH   6  38
HETATM   38  N   UNL     1     -41.601  56.022 -49.293  1.00  0.00    -0.384 N 
HETATM   39  H   UNL     1     -42.231  56.818 -49.269  1.00  0.00     0.157 HD
HETATM   40  H   UNL     1     -40.950  55.985 -48.517  1.00  0.00     0.157 HD
ENDBRANCH   6  38
TORSDOF 10
ENDMDL
MODEL 7
REMARK VINA RESULT:      -7.0      3.043      6.585
REMARK  10 active torsions:
REMARK  status: ('A' for Active; 'I' for Inactive)
REMARK    1  A    between atoms: C_2  and  O_3 
REMARK    2  A    between atoms: O_3  and  C_4 
REMARK    3  A    between atoms: C_7  and  N_8 
REMARK    4  A    between atoms: C_9  and  S_10 
REMARK    5  A    between atoms: S_10  and  C_11 
REMARK    6  A    between atoms: C_11  and  C_12 
REMARK       I    between atoms: C_12  and  N_13 
REMARK    7  A    between atoms: N_13  and  C_14 
REMARK    8  A    between atoms: C_15  and  O_16 
REMARK    9  A    between atoms: C_19  and  O_20 
REMARK   10  A    between atoms: C_29  and  N_30 
ROOT
HETATM    1  N   UNL     1     -44.560  58.421 -53.316  1.00  0.00    -0.276 N 
HETATM    2  C   UNL     1     -44.396  57.455 -52.364  1.00  0.00     0.177 A 
HETATM    3  N   UNL     1     -44.722  57.605 -51.075  1.00  0.00    -0.204 NA
HETATM    4  C   UNL     1     -45.181  58.813 -50.783  1.00  0.00     0.162 A 
HETATM    5  C   UNL     1     -45.380  59.849 -51.666  1.00  0.00     0.081 A 
HETATM    6  C   UNL     1     -45.093  59.648 -53.026  1.00  0.00     0.124 A 
HETATM    7  N   UNL     1     -45.538  59.256 -49.545  1.00  0.00    -0.260 N 
HETATM    8  H   UNL     1     -45.504  58.742 -48.668  1.00  0.00     0.191 HD
HETATM    9  N   UNL     1     -45.970  60.527 -49.554  1.00  0.00    -0.177 NA
HETATM   10  C   UNL     1     -45.870  60.902 -50.835  1.00  0.00     0.068 A 
HETATM   11  C   UNL     1     -46.248  62.289 -51.213  1.00  0.00     0.073 C 
ENDROOT
BRANCH   2  12
HETATM   12  S   UNL     1     -43.712  55.829 -52.742  1.00  0.00    -0.082 SA
BRANCH  12  13
HETATM   13  C   UNL     1     -43.037  55.312 -51.110  1.00  0.00     0.185 C 
BRANCH  13  14
HETATM   14  C   UNL     1     -41.626  55.826 -50.855  1.00  0.00     0.232 C 
HETATM   15  N   UNL     1     -40.546  54.997 -50.840  1.00  0.00    -0.324 N 
HETATM   16  H   UNL     1     -39.748  55.398 -50.351  1.00  0.00     0.169 HD
HETATM   17  O   UNL     1     -41.446  57.015 -50.562  1.00  0.00    -0.272 OA
BRANCH  15  18
HETATM   18  C   UNL     1     -40.275  53.746 -51.425  1.00  0.00     0.070 A 
HETATM   19  C   UNL     1     -40.290  53.683 -52.835  1.00  0.00     0.097 A 
HETATM   20  C   UNL     1     -40.107  52.456 -53.489  1.00  0.00     0.077 A 
HETATM   21  C   UNL     1     -39.933  51.281 -52.752  1.00  0.00     0.092 A 
HETATM   22  C   UNL     1     -39.941  51.353 -51.350  1.00  0.00     0.069 A 
HETATM   23 CL   UNL     1     -39.773  49.934 -50.374  1.00  0.00    -0.081 Cl
HETATM   24  C   UNL     1     -40.113  52.575 -50.690  1.00  0.00     0.059 A 
BRANCH  19  25
HETATM   25  O   UNL     1     -40.473  54.891 -53.470  1.00  0.00    -0.354 OA
HETATM   26  C   UNL     1     -40.679  54.870 -54.878  1.00  0.00     0.210 C 
ENDBRANCH  19  25
BRANCH  21  27
HETATM   27  O   UNL     1     -39.759  50.037 -53.299  1.00  0.00    -0.354 OA
HETATM   28  C   UNL     1     -39.880  49.900 -54.709  1.00  0.00     0.210 C 
ENDBRANCH  21  27
ENDBRANCH  15  18
ENDBRANCH  13  14
ENDBRANCH  12  13
ENDBRANCH   2  12
BRANCH   1  29
HETATM   29  C   UNL     1     -44.120  58.182 -54.664  1.00  0.00     0.043 A 
HETATM   30  C   UNL     1     -45.051  57.820 -55.639  1.00  0.00     0.033 A 
HETATM   31  C   UNL     1     -44.633  57.726 -56.972  1.00  0.00     0.039 A 
HETATM   32  C   UNL     1     -43.309  58.014 -57.317  1.00  0.00     0.068 A 
HETATM   33  C   UNL     1     -42.394  58.374 -56.319  1.00  0.00     0.039 A 
HETATM   34  C   UNL     1     -42.791  58.462 -54.986  1.00  0.00     0.033 A 
BRANCH  32  35
HETATM   35  O   UNL     1     -42.783  58.006 -58.576  1.00  0.00    -0.352 OA
BRANCH  35  36
HETATM   36  C   UNL     1     -42.710  56.758 -59.265  1.00  0.00     0.171 C 
HETATM   37  C   UNL     1     -43.763  56.767 -60.358  1.00  0.00     0.034 C 
ENDBRANCH  35  36
ENDBRANCH  32  35
ENDBRANCH   1  29
BRANCH   6  38
HETATM   38  N   UNL     1     -45.326  60.625 -53.990  1.00  0.00    -0.384 N 
HETATM   39  H   UNL     1     -46.255  60.687 -54.395  1.00  0.00     0.157 HD
HETATM   40  H   UNL     1     -44.585  60.953 -54.600  1.00  0.00     0.157 HD
ENDBRANCH   6  38
TORSDOF 10
ENDMDL
MODEL 8
REMARK VINA RESULT:      -7.0      2.708      4.400
REMARK  10 active torsions:
REMARK  status: ('A' for Active; 'I' for Inactive)
REMARK    1  A    between atoms: C_2  and  O_3 
REMARK    2  A    between atoms: O_3  and  C_4 
REMARK    3  A    between atoms: C_7  and  N_8 
REMARK    4  A    between atoms: C_9  and  S_10 
REMARK    5  A    between atoms: S_10  and  C_11 
REMARK    6  A    between atoms: C_11  and  C_12 
REMARK       I    between atoms: C_12  and  N_13 
REMARK    7  A    between atoms: N_13  and  C_14 
REMARK    8  A    between atoms: C_15  and  O_16 
REMARK    9  A    between atoms: C_19  and  O_20 
REMARK   10  A    between atoms: C_29  and  N_30 
ROOT
HETATM    1  N   UNL     1     -42.173  56.514 -55.114  1.00  0.00    -0.276 N 
HETATM    2  C   UNL     1     -41.816  57.753 -54.664  1.00  0.00     0.177 A 
HETATM    3  N   UNL     1     -42.234  58.902 -55.208  1.00  0.00    -0.204 NA
HETATM    4  C   UNL     1     -43.002  58.732 -56.275  1.00  0.00     0.162 A 
HETATM    5  C   UNL     1     -43.415  57.532 -56.805  1.00  0.00     0.081 A 
HETATM    6  C   UNL     1     -43.017  56.340 -56.179  1.00  0.00     0.124 A 
HETATM    7  N   UNL     1     -43.524  59.724 -57.050  1.00  0.00    -0.260 N 
HETATM    8  H   UNL     1     -43.403  60.728 -56.940  1.00  0.00     0.191 HD
HETATM    9  N   UNL     1     -44.266  59.252 -58.065  1.00  0.00    -0.177 NA
HETATM   10  C   UNL     1     -44.200  57.921 -57.932  1.00  0.00     0.068 A 
HETATM   11  C   UNL     1     -44.902  57.061 -58.921  1.00  0.00     0.073 C 
ENDROOT
BRANCH   2  12
HETATM   12  S   UNL     1     -40.718  57.991 -53.252  1.00  0.00    -0.082 SA
BRANCH  12  13
HETATM   13  C   UNL     1     -41.509  59.412 -52.391  1.00  0.00     0.185 C 
BRANCH  13  14
HETATM   14  C   UNL     1     -41.705  59.174 -50.899  1.00  0.00     0.232 C 
HETATM   15  N   UNL     1     -42.602  59.888 -50.165  1.00  0.00    -0.324 N 
HETATM   16  H   UNL     1     -42.403  59.863 -49.166  1.00  0.00     0.169 HD
HETATM   17  O   UNL     1     -40.973  58.376 -50.300  1.00  0.00    -0.272 OA
BRANCH  15  18
HETATM   18  C   UNL     1     -43.785  60.582 -50.484  1.00  0.00     0.070 A 
HETATM   19  C   UNL     1     -44.895  59.804 -50.878  1.00  0.00     0.097 A 
HETATM   20  C   UNL     1     -46.083  60.425 -51.287  1.00  0.00     0.077 A 
HETATM   21  C   UNL     1     -46.173  61.820 -51.332  1.00  0.00     0.092 A 
HETATM   22  C   UNL     1     -45.055  62.582 -50.958  1.00  0.00     0.069 A 
HETATM   23 CL   UNL     1     -45.080  64.311 -51.029  1.00  0.00    -0.081 Cl
HETATM   24  C   UNL     1     -43.869  61.970 -50.540  1.00  0.00     0.059 A 
BRANCH  19  25
HETATM   25  O   UNL     1     -44.707  58.442 -50.804  1.00  0.00    -0.354 OA
HETATM   26  C   UNL     1     -44.814  57.695 -52.011  1.00  0.00     0.210 C 
ENDBRANCH  19  25
BRANCH  21  27
HETATM   27  O   UNL     1     -47.284  62.516 -51.728  1.00  0.00    -0.354 OA
HETATM   28  C   UNL     1     -48.063  61.989 -52.794  1.00  0.00     0.210 C 
ENDBRANCH  21  27
ENDBRANCH  15  18
ENDBRANCH  13  14
ENDBRANCH  12  13
ENDBRANCH   2  12
BRANCH   1  29
HETATM   29  C   UNL     1     -41.618  55.339 -54.499  1.00  0.00     0.043 A 
HETATM   30  C   UNL     1     -42.268  54.761 -53.406  1.00  0.00     0.033 A 
HETATM   31  C   UNL     1     -41.795  53.543 -52.905  1.00  0.00     0.039 A 
HETATM   32  C   UNL     1     -40.704  52.909 -53.507  1.00  0.00     0.068 A 
HETATM   33  C   UNL     1     -40.070  53.510 -54.602  1.00  0.00     0.039 A 
HETATM   34  C   UNL     1     -40.521  54.728 -55.107  1.00  0.00     0.033 A 
BRANCH  32  35
HETATM   35  O   UNL     1     -40.173  51.704 -53.150  1.00  0.00    -0.352 OA
BRANCH  35  36
HETATM   36  C   UNL     1     -39.315  51.660 -52.011  1.00  0.00     0.171 C 
HETATM   37  C   UNL     1     -39.645  50.402 -51.227  1.00  0.00     0.034 C 
ENDBRANCH  35  36
ENDBRANCH  32  35
ENDBRANCH   1  29
BRANCH   6  38
HETATM   38  N   UNL     1     -43.444  55.089 -56.616  1.00  0.00    -0.384 N 
HETATM   39  H   UNL     1     -43.375  54.878 -57.607  1.00  0.00     0.157 HD
HETATM   40  H   UNL     1     -44.180  54.585 -56.135  1.00  0.00     0.157 HD
ENDBRANCH   6  38
TORSDOF 10
ENDMDL
MODEL 9
REMARK VINA RESULT:      -6.9      3.746      7.269
REMARK  10 active torsions:
REMARK  status: ('A' for Active; 'I' for Inactive)
REMARK    1  A    between atoms: C_2  and  O_3 
REMARK    2  A    between atoms: O_3  and  C_4 
REMARK    3  A    between atoms: C_7  and  N_8 
REMARK    4  A    between atoms: C_9  and  S_10 
REMARK    5  A    between atoms: S_10  and  C_11 
REMARK    6  A    between atoms: C_11  and  C_12 
REMARK       I    between atoms: C_12  and  N_13 
REMARK    7  A    between atoms: N_13  and  C_14 
REMARK    8  A    between atoms: C_15  and  O_16 
REMARK    9  A    between atoms: C_19  and  O_20 
REMARK   10  A    between atoms: C_29  and  N_30 
ROOT
HETATM    1  N   UNL     1     -42.989  56.494 -54.656  1.00  0.00    -0.276 N 
HETATM    2  C   UNL     1     -43.544  56.942 -55.821  1.00  0.00     0.177 A 
HETATM    3  N   UNL     1     -44.395  57.971 -55.903  1.00  0.00    -0.204 NA
HETATM    4  C   UNL     1     -44.700  58.500 -54.727  1.00  0.00     0.162 A 
HETATM    5  C   UNL     1     -44.198  58.121 -53.504  1.00  0.00     0.081 A 
HETATM    6  C   UNL     1     -43.256  57.081 -53.448  1.00  0.00     0.124 A 
HETATM    7  N   UNL     1     -45.577  59.521 -54.512  1.00  0.00    -0.260 N 
HETATM    8  H   UNL     1     -46.128  60.023 -55.204  1.00  0.00     0.191 HD
HETATM    9  N   UNL     1     -45.683  59.848 -53.214  1.00  0.00    -0.177 NA
HETATM   10  C   UNL     1     -44.857  58.998 -52.590  1.00  0.00     0.068 A 
HETATM   11  C   UNL     1     -44.741  59.060 -51.109  1.00  0.00     0.073 C 
ENDROOT
BRANCH   2  12
HETATM   12  S   UNL     1     -43.184  56.186 -57.419  1.00  0.00    -0.082 SA
BRANCH  12  13
HETATM   13  C   UNL     1     -42.324  57.552 -58.302  1.00  0.00     0.185 C 
BRANCH  13  14
HETATM   14  C   UNL     1     -42.800  57.732 -59.737  1.00  0.00     0.232 C 
HETATM   15  N   UNL     1     -44.073  58.115 -60.033  1.00  0.00    -0.324 N 
HETATM   16  H   UNL     1     -44.342  57.883 -60.988  1.00  0.00     0.169 HD
HETATM   17  O   UNL     1     -42.051  57.439 -60.677  1.00  0.00    -0.272 OA
BRANCH  15  18
HETATM   18  C   UNL     1     -45.060  58.831 -59.330  1.00  0.00     0.070 A 
HETATM   19  C   UNL     1     -46.245  58.134 -59.006  1.00  0.00     0.097 A 
HETATM   20  C   UNL     1     -47.305  58.801 -58.376  1.00  0.00     0.077 A 
HETATM   21  C   UNL     1     -47.211  60.165 -58.086  1.00  0.00     0.092 A 
HETATM   22  C   UNL     1     -46.036  60.851 -58.432  1.00  0.00     0.069 A 
HETATM   23 CL   UNL     1     -45.865  62.549 -58.142  1.00  0.00    -0.081 Cl
HETATM   24  C   UNL     1     -44.970  60.191 -59.052  1.00  0.00     0.059 A 
BRANCH  19  25
HETATM   25  O   UNL     1     -46.244  56.798 -59.335  1.00  0.00    -0.354 OA
HETATM   26  C   UNL     1     -47.148  56.368 -60.347  1.00  0.00     0.210 C 
ENDBRANCH  19  25
BRANCH  21  27
HETATM   27  O   UNL     1     -48.196  60.904 -57.485  1.00  0.00    -0.354 OA
HETATM   28  C   UNL     1     -49.549  60.564 -57.754  1.00  0.00     0.210 C 
ENDBRANCH  21  27
ENDBRANCH  15  18
ENDBRANCH  13  14
ENDBRANCH  12  13
ENDBRANCH   2  12
BRANCH   1  29
HETATM   29  C   UNL     1     -42.133  55.339 -54.667  1.00  0.00     0.043 A 
HETATM   30  C   UNL     1     -40.772  55.492 -54.939  1.00  0.00     0.033 A 
HETATM   31  C   UNL     1     -39.928  54.384 -54.811  1.00  0.00     0.039 A 
HETATM   32  C   UNL     1     -40.441  53.152 -54.393  1.00  0.00     0.068 A 
HETATM   33  C   UNL     1     -41.810  53.024 -54.126  1.00  0.00     0.039 A 
HETATM   34  C   UNL     1     -42.666  54.115 -54.260  1.00  0.00     0.033 A 
BRANCH  32  35
HETATM   35  O   UNL     1     -39.725  52.009 -54.184  1.00  0.00    -0.352 OA
BRANCH  35  36
HETATM   36  C   UNL     1     -40.390  50.759 -54.363  1.00  0.00     0.171 C 
HETATM   37  C   UNL     1     -39.542  49.683 -53.709  1.00  0.00     0.034 C 
ENDBRANCH  35  36
ENDBRANCH  32  35
ENDBRANCH   1  29
BRANCH   6  38
HETATM   38  N   UNL     1     -42.655  56.682 -52.258  1.00  0.00    -0.384 N 
HETATM   39  H   UNL     1     -42.595  57.356 -51.501  1.00  0.00     0.157 HD
HETATM   40  H   UNL     1     -41.925  55.978 -52.245  1.00  0.00     0.157 HD
ENDBRANCH   6  38
TORSDOF 10
ENDMDL
MODEL 10
REMARK VINA RESULT:      -6.9      2.357      5.419
REMARK  10 active torsions:
REMARK  status: ('A' for Active; 'I' for Inactive)
REMARK    1  A    between atoms: C_2  and  O_3 
REMARK    2  A    between atoms: O_3  and  C_4 
REMARK    3  A    between atoms: C_7  and  N_8 
REMARK    4  A    between atoms: C_9  and  S_10 
REMARK    5  A    between atoms: S_10  and  C_11 
REMARK    6  A    between atoms: C_11  and  C_12 
REMARK       I    between atoms: C_12  and  N_13 
REMARK    7  A    between atoms: N_13  and  C_14 
REMARK    8  A    between atoms: C_15  and  O_16 
REMARK    9  A    between atoms: C_19  and  O_20 
REMARK   10  A    between atoms: C_29  and  N_30 
ROOT
HETATM    1  N   UNL     1     -42.934  58.464 -56.234  1.00  0.00    -0.276 N 
HETATM    2  C   UNL     1     -43.030  57.123 -55.997  1.00  0.00     0.177 A 
HETATM    3  N   UNL     1     -42.798  56.178 -56.916  1.00  0.00    -0.204 NA
HETATM    4  C   UNL     1     -42.508  56.665 -58.114  1.00  0.00     0.162 A 
HETATM    5  C   UNL     1     -42.389  57.993 -58.451  1.00  0.00     0.081 A 
HETATM    6  C   UNL     1     -42.574  58.966 -57.456  1.00  0.00     0.124 A 
HETATM    7  N   UNL     1     -42.277  55.933 -59.240  1.00  0.00    -0.260 N 
HETATM    8  H   UNL     1     -42.297  54.922 -59.339  1.00  0.00     0.191 HD
HETATM    9  N   UNL     1     -42.006  56.700 -60.309  1.00  0.00    -0.177 NA
HETATM   10  C   UNL     1     -42.080  57.954 -59.844  1.00  0.00     0.068 A 
HETATM   11  C   UNL     1     -41.855  59.085 -60.782  1.00  0.00     0.073 C 
ENDROOT
BRANCH   2  12
HETATM   12  S   UNL     1     -43.488  56.453 -54.386  1.00  0.00    -0.082 SA
BRANCH  12  13
HETATM   13  C   UNL     1     -41.983  56.806 -53.387  1.00  0.00     0.185 C 
BRANCH  13  14
HETATM   14  C   UNL     1     -42.235  56.750 -51.886  1.00  0.00     0.232 C 
HETATM   15  N   UNL     1     -42.179  55.583 -51.186  1.00  0.00    -0.324 N 
HETATM   16  H   UNL     1     -42.672  55.634 -50.296  1.00  0.00     0.169 HD
HETATM   17  O   UNL     1     -42.590  57.770 -51.281  1.00  0.00    -0.272 OA
BRANCH  15  18
HETATM   18  C   UNL     1     -41.520  54.358 -51.394  1.00  0.00     0.070 A 
HETATM   19  C   UNL     1     -41.082  53.665 -50.244  1.00  0.00     0.097 A 
HETATM   20  C   UNL     1     -40.348  52.477 -50.372  1.00  0.00     0.077 A 
HETATM   21  C   UNL     1     -40.023  51.980 -51.637  1.00  0.00     0.092 A 
HETATM   22  C   UNL     1     -40.445  52.689 -52.773  1.00  0.00     0.069 A 
HETATM   23 CL   UNL     1     -40.043  52.155 -54.369  1.00  0.00    -0.081 Cl
HETATM   24  C   UNL     1     -41.186  53.869 -52.653  1.00  0.00     0.059 A 
BRANCH  19  25
HETATM   25  O   UNL     1     -41.447  54.236 -49.046  1.00  0.00    -0.354 OA
HETATM   26  C   UNL     1     -40.552  54.095 -47.948  1.00  0.00     0.210 C 
ENDBRANCH  19  25
BRANCH  21  27
HETATM   27  O   UNL     1     -39.302  50.837 -51.863  1.00  0.00    -0.354 OA
HETATM   28  C   UNL     1     -39.428  49.768 -50.934  1.00  0.00     0.210 C 
ENDBRANCH  21  27
ENDBRANCH  15  18
ENDBRANCH  13  14
ENDBRANCH  12  13
ENDBRANCH   2  12
BRANCH   1  29
HETATM   29  C   UNL     1     -43.267  59.401 -55.195  1.00  0.00     0.043 A 
HETATM   30  C   UNL     1     -44.605  59.600 -54.848  1.00  0.00     0.033 A 
HETATM   31  C   UNL     1     -44.905  60.408 -53.746  1.00  0.00     0.039 A 
HETATM   32  C   UNL     1     -43.877  60.986 -52.994  1.00  0.00     0.068 A 
HETATM   33  C   UNL     1     -42.543  60.772 -53.364  1.00  0.00     0.039 A 
HETATM   34  C   UNL     1     -42.227  59.979 -54.465  1.00  0.00     0.033 A 
BRANCH  32  35
HETATM   35  O   UNL     1     -44.028  61.753 -51.876  1.00  0.00    -0.352 OA
BRANCH  35  36
HETATM   36  C   UNL     1     -45.342  62.194 -51.537  1.00  0.00     0.171 C 
HETATM   37  C   UNL     1     -45.709  61.577 -50.199  1.00  0.00     0.034 C 
ENDBRANCH  35  36
ENDBRANCH  32  35
ENDBRANCH   1  29
BRANCH   6  38
HETATM   38  N   UNL     1     -42.410  60.326 -57.703  1.00  0.00    -0.384 N 
HETATM   39  H   UNL     1     -41.727  60.835 -57.149  1.00  0.00     0.157 HD
HETATM   40  H   UNL     1     -43.175  60.897 -58.044  1.00  0.00     0.157 HD
ENDBRANCH   6  38
TORSDOF 10
ENDMDL
