MODEL 1
REMARK VINA RESULT:      -9.3      0.000      0.000
REMARK  6 active torsions:
REMARK  status: ('A' for Active; 'I' for Inactive)
REMARK    1  A    between atoms: C_4  and  C_5 
REMARK    2  A    between atoms: C_9  and  C_10 
REMARK       I    between atoms: C_10  and  N_11 
REMARK    3  A    between atoms: N_11  and  N_12 
REMARK       I    between atoms: N_12  and  C_13 
REMARK    4  A    between atoms: C_13  and  C_14 
REMARK    5  A    between atoms: C_14  and  O_15 
REMARK    6  A    between atoms: O_15  and  C_16 
ROOT
HETATM    1  C   UNL     1     -43.851  57.817 -52.400  1.00  0.00     0.288 C 
HETATM    2  N   UNL     1     -44.013  57.988 -51.034  1.00  0.00    -0.262 N 
HETATM    3  O   UNL     1     -44.046  58.739 -53.191  1.00  0.00    -0.264 OA
HETATM    4  H   UNL     1     -43.448  57.426 -50.398  1.00  0.00     0.190 HD
ENDROOT
BRANCH   2   5
HETATM    5  N   UNL     1     -44.225  59.308 -50.576  1.00  0.00    -0.265 N 
HETATM    6  C   UNL     1     -45.488  59.607 -50.102  1.00  0.00     0.260 C 
HETATM    7  O   UNL     1     -46.446  58.852 -50.271  1.00  0.00    -0.269 OA
HETATM    8  H   UNL     1     -43.416  59.783 -50.172  1.00  0.00     0.190 HD
BRANCH   6   9
HETATM    9  C   UNL     1     -45.588  60.911 -49.318  1.00  0.00     0.280 C 
BRANCH   9  10
HETATM   10  O   UNL     1     -46.147  60.683 -48.021  1.00  0.00    -0.341 OA
BRANCH  10  11
HETATM   11  C   UNL     1     -46.214  61.866 -47.322  1.00  0.00     0.080 A 
HETATM   12  C   UNL     1     -45.505  62.033 -46.114  1.00  0.00     0.007 A 
HETATM   13  C   UNL     1     -45.633  63.264 -45.429  1.00  0.00    -0.023 A 
HETATM   14  C   UNL     1     -44.678  61.033 -45.557  1.00  0.00     0.015 A 
HETATM   15  C   UNL     1     -44.958  63.454 -44.212  1.00  0.00     0.012 A 
HETATM   16  C   UNL     1     -46.430  64.285 -45.977  1.00  0.00     0.012 A 
HETATM   17  C   UNL     1     -44.154  62.448 -43.675  1.00  0.00     0.001 A 
HETATM   18  C   UNL     1     -44.010  61.241 -44.348  1.00  0.00     0.001 A 
HETATM   19  C   UNL     1     -47.089  64.106 -47.194  1.00  0.00     0.004 A 
HETATM   20  C   UNL     1     -46.977  62.899 -47.872  1.00  0.00     0.037 A 
ENDBRANCH  10  11
ENDBRANCH   9  10
ENDBRANCH   6   9
ENDBRANCH   2   5
BRANCH   1  21
HETATM   21  C   UNL     1     -43.423  56.503 -52.804  1.00  0.00     0.121 A 
HETATM   22  N   UNL     1     -44.039  55.698 -53.719  1.00  0.00    -0.272 N 
HETATM   23  N   UNL     1     -43.415  54.534 -53.938  1.00  0.00    -0.174 NA
HETATM   24  H   UNL     1     -44.876  55.891 -54.257  1.00  0.00     0.189 HD
HETATM   25  C   UNL     1     -42.332  54.573 -53.144  1.00  0.00     0.089 A 
HETATM   26  C   UNL     1     -42.298  55.797 -52.425  1.00  0.00     0.071 A 
BRANCH  25  27
HETATM   27  C   UNL     1     -41.366  53.473 -53.101  1.00  0.00    -0.006 A 
HETATM   28  C   UNL     1     -40.637  53.215 -51.931  1.00  0.00     0.014 A 
HETATM   29  C   UNL     1     -39.726  52.158 -51.877  1.00  0.00     0.001 A 
HETATM   30  C   UNL     1     -39.527  51.351 -52.995  1.00  0.00     0.000 A 
HETATM   31  C   UNL     1     -40.238  51.601 -54.167  1.00  0.00     0.001 A 
HETATM   32  C   UNL     1     -41.154  52.656 -54.221  1.00  0.00     0.014 A 
ENDBRANCH  25  27
ENDBRANCH   1  21
TORSDOF 6
ENDMDL
MODEL 2
REMARK VINA RESULT:      -9.2      7.704     11.424
REMARK  6 active torsions:
REMARK  status: ('A' for Active; 'I' for Inactive)
REMARK    1  A    between atoms: C_4  and  C_5 
REMARK    2  A    between atoms: C_9  and  C_10 
REMARK       I    between atoms: C_10  and  N_11 
REMARK    3  A    between atoms: N_11  and  N_12 
REMARK       I    between atoms: N_12  and  C_13 
REMARK    4  A    between atoms: C_13  and  C_14 
REMARK    5  A    between atoms: C_14  and  O_15 
REMARK    6  A    between atoms: O_15  and  C_16 
ROOT
HETATM    1  C   UNL     1     -43.383  56.573 -58.383  1.00  0.00     0.288 C 
HETATM    2  N   UNL     1     -43.384  55.692 -57.313  1.00  0.00    -0.262 N 
HETATM    3  O   UNL     1     -42.426  57.314 -58.605  1.00  0.00    -0.264 OA
HETATM    4  H   UNL     1     -43.913  54.823 -57.393  1.00  0.00     0.190 HD
ENDROOT
BRANCH   2   5
HETATM    5  N   UNL     1     -42.170  55.546 -56.605  1.00  0.00    -0.265 N 
HETATM    6  C   UNL     1     -42.179  55.911 -55.272  1.00  0.00     0.260 C 
HETATM    7  O   UNL     1     -43.112  56.541 -54.773  1.00  0.00    -0.269 OA
HETATM    8  H   UNL     1     -41.556  54.789 -56.910  1.00  0.00     0.190 HD
BRANCH   6   9
HETATM    9  C   UNL     1     -40.975  55.434 -54.467  1.00  0.00     0.280 C 
BRANCH   9  10
HETATM   10  O   UNL     1     -40.849  54.010 -54.536  1.00  0.00    -0.341 OA
BRANCH  10  11
HETATM   11  C   UNL     1     -40.574  53.501 -53.289  1.00  0.00     0.080 A 
HETATM   12  C   UNL     1     -40.199  52.150 -53.126  1.00  0.00     0.007 A 
HETATM   13  C   UNL     1     -39.951  51.680 -51.815  1.00  0.00    -0.023 A 
HETATM   14  C   UNL     1     -40.062  51.250 -54.205  1.00  0.00     0.015 A 
HETATM   15  C   UNL     1     -39.597  50.334 -51.618  1.00  0.00     0.012 A 
HETATM   16  C   UNL     1     -40.056  52.564 -50.728  1.00  0.00     0.012 A 
HETATM   17  C   UNL     1     -39.477  49.459 -52.698  1.00  0.00     0.001 A 
HETATM   18  C   UNL     1     -39.704  49.917 -53.990  1.00  0.00     0.001 A 
HETATM   19  C   UNL     1     -40.390  53.905 -50.921  1.00  0.00     0.004 A 
HETATM   20  C   UNL     1     -40.643  54.377 -52.203  1.00  0.00     0.037 A 
ENDBRANCH  10  11
ENDBRANCH   9  10
ENDBRANCH   6   9
ENDBRANCH   2   5
BRANCH   1  21
HETATM   21  C   UNL     1     -44.563  56.533 -59.208  1.00  0.00     0.121 A 
HETATM   22  N   UNL     1     -45.212  55.410 -59.636  1.00  0.00    -0.272 N 
HETATM   23  N   UNL     1     -46.309  55.652 -60.365  1.00  0.00    -0.174 NA
HETATM   24  H   UNL     1     -44.979  54.443 -59.444  1.00  0.00     0.189 HD
HETATM   25  C   UNL     1     -46.398  56.991 -60.413  1.00  0.00     0.089 A 
HETATM   26  C   UNL     1     -45.327  57.578 -59.689  1.00  0.00     0.071 A 
BRANCH  25  27
HETATM   27  C   UNL     1     -47.489  57.667 -61.118  1.00  0.00    -0.006 A 
HETATM   28  C   UNL     1     -47.684  59.048 -60.965  1.00  0.00     0.014 A 
HETATM   29  C   UNL     1     -48.711  59.704 -61.647  1.00  0.00     0.001 A 
HETATM   30  C   UNL     1     -49.562  58.985 -62.483  1.00  0.00     0.000 A 
HETATM   31  C   UNL     1     -49.387  57.611 -62.637  1.00  0.00     0.001 A 
HETATM   32  C   UNL     1     -48.355  56.954 -61.960  1.00  0.00     0.014 A 
ENDBRANCH  25  27
ENDBRANCH   1  21
TORSDOF 6
ENDMDL
MODEL 3
REMARK VINA RESULT:      -9.0      1.647      2.565
REMARK  6 active torsions:
REMARK  status: ('A' for Active; 'I' for Inactive)
REMARK    1  A    between atoms: C_4  and  C_5 
REMARK    2  A    between atoms: C_9  and  C_10 
REMARK       I    between atoms: C_10  and  N_11 
REMARK    3  A    between atoms: N_11  and  N_12 
REMARK       I    between atoms: N_12  and  C_13 
REMARK    4  A    between atoms: C_13  and  C_14 
REMARK    5  A    between atoms: C_14  and  O_15 
REMARK    6  A    between atoms: O_15  and  C_16 
ROOT
HETATM    1  C   UNL     1     -43.086  56.372 -54.060  1.00  0.00     0.288 C 
HETATM    2  N   UNL     1     -43.930  56.304 -52.962  1.00  0.00    -0.262 N 
HETATM    3  O   UNL     1     -43.180  57.279 -54.887  1.00  0.00    -0.264 OA
HETATM    4  H   UNL     1     -43.585  55.873 -52.104  1.00  0.00     0.190 HD
ENDROOT
BRANCH   2   5
HETATM    5  N   UNL     1     -44.771  57.416 -52.732  1.00  0.00    -0.265 N 
HETATM    6  C   UNL     1     -45.120  57.672 -51.420  1.00  0.00     0.260 C 
HETATM    7  O   UNL     1     -44.908  56.861 -50.517  1.00  0.00    -0.269 OA
HETATM    8  H   UNL     1     -44.679  58.196 -53.385  1.00  0.00     0.190 HD
BRANCH   6   9
HETATM    9  C   UNL     1     -45.736  59.045 -51.175  1.00  0.00     0.280 C 
BRANCH   9  10
HETATM   10  O   UNL     1     -45.810  59.327 -49.774  1.00  0.00    -0.341 OA
BRANCH  10  11
HETATM   11  C   UNL     1     -45.412  60.621 -49.532  1.00  0.00     0.080 A 
HETATM   12  C   UNL     1     -45.403  61.141 -48.221  1.00  0.00     0.007 A 
HETATM   13  C   UNL     1     -45.006  62.487 -48.040  1.00  0.00    -0.023 A 
HETATM   14  C   UNL     1     -45.771  60.387 -47.086  1.00  0.00     0.015 A 
HETATM   15  C   UNL     1     -45.007  63.042 -46.749  1.00  0.00     0.012 A 
HETATM   16  C   UNL     1     -44.610  63.251 -49.151  1.00  0.00     0.012 A 
HETATM   17  C   UNL     1     -45.385  62.281 -45.642  1.00  0.00     0.001 A 
HETATM   18  C   UNL     1     -45.762  60.953 -45.810  1.00  0.00     0.001 A 
HETATM   19  C   UNL     1     -44.591  62.699 -50.433  1.00  0.00     0.004 A 
HETATM   20  C   UNL     1     -44.985  61.381 -50.624  1.00  0.00     0.037 A 
ENDBRANCH  10  11
ENDBRANCH   9  10
ENDBRANCH   6   9
ENDBRANCH   2   5
BRANCH   1  21
HETATM   21  C   UNL     1     -42.099  55.328 -54.136  1.00  0.00     0.121 A 
HETATM   22  N   UNL     1     -40.923  55.374 -54.830  1.00  0.00    -0.272 N 
HETATM   23  N   UNL     1     -40.166  54.277 -54.707  1.00  0.00    -0.174 NA
HETATM   24  H   UNL     1     -40.558  56.138 -55.388  1.00  0.00     0.189 HD
HETATM   25  C   UNL     1     -40.862  53.473 -53.887  1.00  0.00     0.089 A 
HETATM   26  C   UNL     1     -42.074  54.102 -53.499  1.00  0.00     0.071 A 
BRANCH  25  27
HETATM   27  C   UNL     1     -40.359  52.158 -53.486  1.00  0.00    -0.006 A 
HETATM   28  C   UNL     1     -39.956  51.926 -52.163  1.00  0.00     0.014 A 
HETATM   29  C   UNL     1     -39.490  50.669 -51.768  1.00  0.00     0.001 A 
HETATM   30  C   UNL     1     -39.415  49.632 -52.694  1.00  0.00     0.000 A 
HETATM   31  C   UNL     1     -39.803  49.850 -54.015  1.00  0.00     0.001 A 
HETATM   32  C   UNL     1     -40.275  51.106 -54.410  1.00  0.00     0.014 A 
ENDBRANCH  25  27
ENDBRANCH   1  21
TORSDOF 6
ENDMDL
MODEL 4
REMARK VINA RESULT:      -8.8      2.162     11.079
REMARK  6 active torsions:
REMARK  status: ('A' for Active; 'I' for Inactive)
REMARK    1  A    between atoms: C_4  and  C_5 
REMARK    2  A    between atoms: C_9  and  C_10 
REMARK       I    between atoms: C_10  and  N_11 
REMARK    3  A    between atoms: N_11  and  N_12 
REMARK       I    between atoms: N_12  and  C_13 
REMARK    4  A    between atoms: C_13  and  C_14 
REMARK    5  A    between atoms: C_14  and  O_15 
REMARK    6  A    between atoms: O_15  and  C_16 
ROOT
HETATM    1  C   UNL     1     -45.455  60.422 -48.250  1.00  0.00     0.288 C 
HETATM    2  N   UNL     1     -44.759  60.581 -49.439  1.00  0.00    -0.262 N 
HETATM    3  O   UNL     1     -46.152  59.429 -48.042  1.00  0.00    -0.264 OA
HETATM    4  H   UNL     1     -43.889  61.112 -49.430  1.00  0.00     0.190 HD
ENDROOT
BRANCH   2   5
HETATM    5  N   UNL     1     -44.732  59.474 -50.316  1.00  0.00    -0.265 N 
HETATM    6  C   UNL     1     -43.525  59.196 -50.930  1.00  0.00     0.260 C 
HETATM    7  O   UNL     1     -42.581  59.986 -50.904  1.00  0.00    -0.269 OA
HETATM    8  H   UNL     1     -45.368  58.706 -50.097  1.00  0.00     0.190 HD
BRANCH   6   9
HETATM    9  C   UNL     1     -43.442  57.825 -51.592  1.00  0.00     0.280 C 
BRANCH   9  10
HETATM   10  O   UNL     1     -42.092  57.512 -51.947  1.00  0.00    -0.341 OA
BRANCH  10  11
HETATM   11  C   UNL     1     -41.816  56.201 -51.640  1.00  0.00     0.080 A 
HETATM   12  C   UNL     1     -41.274  55.330 -52.608  1.00  0.00     0.007 A 
HETATM   13  C   UNL     1     -41.033  53.986 -52.237  1.00  0.00    -0.023 A 
HETATM   14  C   UNL     1     -40.963  55.733 -53.925  1.00  0.00     0.015 A 
HETATM   15  C   UNL     1     -40.515  53.088 -53.185  1.00  0.00     0.012 A 
HETATM   16  C   UNL     1     -41.310  53.567 -50.924  1.00  0.00     0.012 A 
HETATM   17  C   UNL     1     -40.225  53.506 -54.485  1.00  0.00     0.001 A 
HETATM   18  C   UNL     1     -40.444  54.828 -54.853  1.00  0.00     0.001 A 
HETATM   19  C   UNL     1     -41.809  54.460 -49.975  1.00  0.00     0.004 A 
HETATM   20  C   UNL     1     -42.056  55.780 -50.329  1.00  0.00     0.037 A 
ENDBRANCH  10  11
ENDBRANCH   9  10
ENDBRANCH   6   9
ENDBRANCH   2   5
BRANCH   1  21
HETATM   21  C   UNL     1     -45.280  61.483 -47.294  1.00  0.00     0.121 A 
HETATM   22  N   UNL     1     -45.494  62.814 -47.514  1.00  0.00    -0.272 N 
HETATM   23  N   UNL     1     -45.290  63.590 -46.442  1.00  0.00    -0.174 NA
HETATM   24  H   UNL     1     -45.810  63.262 -48.366  1.00  0.00     0.189 HD
HETATM   25  C   UNL     1     -44.937  62.738 -45.466  1.00  0.00     0.089 A 
HETATM   26  C   UNL     1     -44.930  61.406 -45.959  1.00  0.00     0.071 A 
BRANCH  25  27
HETATM   27  C   UNL     1     -44.637  63.200 -44.110  1.00  0.00    -0.006 A 
HETATM   28  C   UNL     1     -45.356  64.265 -43.548  1.00  0.00     0.014 A 
HETATM   29  C   UNL     1     -45.087  64.701 -42.248  1.00  0.00     0.001 A 
HETATM   30  C   UNL     1     -44.090  64.081 -41.498  1.00  0.00     0.000 A 
HETATM   31  C   UNL     1     -43.361  63.028 -42.046  1.00  0.00     0.001 A 
HETATM   32  C   UNL     1     -43.633  62.587 -43.345  1.00  0.00     0.014 A 
ENDBRANCH  25  27
ENDBRANCH   1  21
TORSDOF 6
ENDMDL
MODEL 5
REMARK VINA RESULT:      -8.7      8.121     10.590
REMARK  6 active torsions:
REMARK  status: ('A' for Active; 'I' for Inactive)
REMARK    1  A    between atoms: C_4  and  C_5 
REMARK    2  A    between atoms: C_9  and  C_10 
REMARK       I    between atoms: C_10  and  N_11 
REMARK    3  A    between atoms: N_11  and  N_12 
REMARK       I    between atoms: N_12  and  C_13 
REMARK    4  A    between atoms: C_13  and  C_14 
REMARK    5  A    between atoms: C_14  and  O_15 
REMARK    6  A    between atoms: O_15  and  C_16 
ROOT
HETATM    1  C   UNL     1     -42.546  57.037 -56.602  1.00  0.00     0.288 C 
HETATM    2  N   UNL     1     -42.205  56.957 -57.944  1.00  0.00    -0.262 N 
HETATM    3  O   UNL     1     -42.964  58.083 -56.107  1.00  0.00    -0.264 OA
HETATM    4  H   UNL     1     -42.304  56.062 -58.423  1.00  0.00     0.190 HD
ENDROOT
BRANCH   2   5
HETATM    5  N   UNL     1     -42.536  58.065 -58.755  1.00  0.00    -0.265 N 
HETATM    6  C   UNL     1     -42.959  57.792 -60.041  1.00  0.00     0.260 C 
HETATM    7  O   UNL     1     -42.845  56.672 -60.543  1.00  0.00    -0.269 OA
HETATM    8  H   UNL     1     -42.907  58.886 -58.272  1.00  0.00     0.190 HD
BRANCH   6   9
HETATM    9  C   UNL     1     -43.618  58.962 -60.763  1.00  0.00     0.280 C 
BRANCH   9  10
HETATM   10  O   UNL     1     -43.293  60.201 -60.126  1.00  0.00    -0.341 OA
BRANCH  10  11
HETATM   11  C   UNL     1     -42.535  60.980 -60.968  1.00  0.00     0.080 A 
HETATM   12  C   UNL     1     -41.440  61.722 -60.478  1.00  0.00     0.007 A 
HETATM   13  C   UNL     1     -40.713  62.522 -61.390  1.00  0.00    -0.023 A 
HETATM   14  C   UNL     1     -41.037  61.705 -59.125  1.00  0.00     0.015 A 
HETATM   15  C   UNL     1     -39.631  63.291 -60.928  1.00  0.00     0.012 A 
HETATM   16  C   UNL     1     -41.078  62.536 -62.747  1.00  0.00     0.012 A 
HETATM   17  C   UNL     1     -39.257  63.266 -59.584  1.00  0.00     0.001 A 
HETATM   18  C   UNL     1     -39.956  62.471 -58.684  1.00  0.00     0.001 A 
HETATM   19  C   UNL     1     -42.142  61.762 -63.213  1.00  0.00     0.004 A 
HETATM   20  C   UNL     1     -42.867  60.977 -62.325  1.00  0.00     0.037 A 
ENDBRANCH  10  11
ENDBRANCH   9  10
ENDBRANCH   6   9
ENDBRANCH   2   5
BRANCH   1  21
HETATM   21  C   UNL     1     -42.393  55.814 -55.860  1.00  0.00     0.121 A 
HETATM   22  N   UNL     1     -43.285  54.781 -55.808  1.00  0.00    -0.272 N 
HETATM   23  N   UNL     1     -42.884  53.740 -55.068  1.00  0.00    -0.174 NA
HETATM   24  H   UNL     1     -44.180  54.706 -56.279  1.00  0.00     0.189 HD
HETATM   25  C   UNL     1     -41.668  54.091 -54.619  1.00  0.00     0.089 A 
HETATM   26  C   UNL     1     -41.321  55.380 -55.104  1.00  0.00     0.071 A 
BRANCH  25  27
HETATM   27  C   UNL     1     -40.872  53.202 -53.770  1.00  0.00    -0.006 A 
HETATM   28  C   UNL     1     -40.636  53.529 -52.426  1.00  0.00     0.014 A 
HETATM   29  C   UNL     1     -39.892  52.678 -51.605  1.00  0.00     0.001 A 
HETATM   30  C   UNL     1     -39.369  51.494 -52.121  1.00  0.00     0.000 A 
HETATM   31  C   UNL     1     -39.588  51.161 -53.456  1.00  0.00     0.001 A 
HETATM   32  C   UNL     1     -40.337  52.010 -54.277  1.00  0.00     0.014 A 
ENDBRANCH  25  27
ENDBRANCH   1  21
TORSDOF 6
ENDMDL
MODEL 6
REMARK VINA RESULT:      -8.6      2.054      2.871
REMARK  6 active torsions:
REMARK  status: ('A' for Active; 'I' for Inactive)
REMARK    1  A    between atoms: C_4  and  C_5 
REMARK    2  A    between atoms: C_9  and  C_10 
REMARK       I    between atoms: C_10  and  N_11 
REMARK    3  A    between atoms: N_11  and  N_12 
REMARK       I    between atoms: N_12  and  C_13 
REMARK    4  A    between atoms: C_13  and  C_14 
REMARK    5  A    between atoms: C_14  and  O_15 
REMARK    6  A    between atoms: O_15  and  C_16 
ROOT
HETATM    1  C   UNL     1     -41.680  56.795 -50.743  1.00  0.00     0.288 C 
HETATM    2  N   UNL     1     -43.042  56.806 -50.998  1.00  0.00    -0.262 N 
HETATM    3  O   UNL     1     -41.080  57.818 -50.413  1.00  0.00    -0.264 OA
HETATM    4  H   UNL     1     -43.581  55.958 -50.823  1.00  0.00     0.190 HD
ENDROOT
BRANCH   2   5
HETATM    5  N   UNL     1     -43.743  57.990 -50.679  1.00  0.00    -0.265 N 
HETATM    6  C   UNL     1     -44.726  58.390 -51.564  1.00  0.00     0.260 C 
HETATM    7  O   UNL     1     -44.844  57.886 -52.682  1.00  0.00    -0.269 OA
HETATM    8  H   UNL     1     -43.854  58.198 -49.685  1.00  0.00     0.190 HD
BRANCH   6   9
HETATM    9  C   UNL     1     -45.674  59.460 -51.032  1.00  0.00     0.280 C 
BRANCH   9  10
HETATM   10  O   UNL     1     -44.962  60.662 -50.725  1.00  0.00    -0.341 OA
BRANCH  10  11
HETATM   11  C   UNL     1     -45.803  61.566 -50.120  1.00  0.00     0.080 A 
HETATM   12  C   UNL     1     -45.786  61.746 -48.721  1.00  0.00     0.007 A 
HETATM   13  C   UNL     1     -46.692  62.675 -48.156  1.00  0.00    -0.023 A 
HETATM   14  C   UNL     1     -44.912  61.046 -47.861  1.00  0.00     0.015 A 
HETATM   15  C   UNL     1     -46.715  62.861 -46.764  1.00  0.00     0.012 A 
HETATM   16  C   UNL     1     -47.554  63.403 -48.994  1.00  0.00     0.012 A 
HETATM   17  C   UNL     1     -45.849  62.150 -45.932  1.00  0.00     0.001 A 
HETATM   18  C   UNL     1     -44.945  61.247 -46.480  1.00  0.00     0.001 A 
HETATM   19  C   UNL     1     -47.523  63.234 -50.379  1.00  0.00     0.004 A 
HETATM   20  C   UNL     1     -46.643  62.320 -50.945  1.00  0.00     0.037 A 
ENDBRANCH  10  11
ENDBRANCH   9  10
ENDBRANCH   6   9
ENDBRANCH   2   5
BRANCH   1  21
HETATM   21  C   UNL     1     -41.044  55.511 -50.875  1.00  0.00     0.121 A 
HETATM   22  N   UNL     1     -40.239  54.907 -49.952  1.00  0.00    -0.272 N 
HETATM   23  N   UNL     1     -39.802  53.694 -50.309  1.00  0.00    -0.174 NA
HETATM   24  H   UNL     1     -39.968  55.255 -49.039  1.00  0.00     0.189 HD
HETATM   25  C   UNL     1     -40.350  53.476 -51.516  1.00  0.00     0.089 A 
HETATM   26  C   UNL     1     -41.145  54.589 -51.899  1.00  0.00     0.071 A 
BRANCH  25  27
HETATM   27  C   UNL     1     -40.123  52.232 -52.254  1.00  0.00    -0.006 A 
HETATM   28  C   UNL     1     -39.702  51.075 -51.581  1.00  0.00     0.014 A 
HETATM   29  C   UNL     1     -39.499  49.880 -52.275  1.00  0.00     0.001 A 
HETATM   30  C   UNL     1     -39.707  49.830 -53.651  1.00  0.00     0.000 A 
HETATM   31  C   UNL     1     -40.117  50.973 -54.334  1.00  0.00     0.001 A 
HETATM   32  C   UNL     1     -40.326  52.168 -53.640  1.00  0.00     0.014 A 
ENDBRANCH  25  27
ENDBRANCH   1  21
TORSDOF 6
ENDMDL
MODEL 7
REMARK VINA RESULT:      -8.5      6.634     10.790
REMARK  6 active torsions:
REMARK  status: ('A' for Active; 'I' for Inactive)
REMARK    1  A    between atoms: C_4  and  C_5 
REMARK    2  A    between atoms: C_9  and  C_10 
REMARK       I    between atoms: C_10  and  N_11 
REMARK    3  A    between atoms: N_11  and  N_12 
REMARK       I    between atoms: N_12  and  C_13 
REMARK    4  A    between atoms: C_13  and  C_14 
REMARK    5  A    between atoms: C_14  and  O_15 
REMARK    6  A    between atoms: O_15  and  C_16 
ROOT
HETATM    1  C   UNL     1     -43.841  56.545 -58.911  1.00  0.00     0.288 C 
HETATM    2  N   UNL     1     -43.848  55.800 -57.741  1.00  0.00    -0.262 N 
HETATM    3  O   UNL     1     -42.816  57.087 -59.321  1.00  0.00    -0.264 OA
HETATM    4  H   UNL     1     -44.509  55.029 -57.654  1.00  0.00     0.190 HD
ENDROOT
BRANCH   2   5
HETATM    5  N   UNL     1     -42.595  55.534 -57.146  1.00  0.00    -0.265 N 
HETATM    6  C   UNL     1     -42.460  55.852 -55.808  1.00  0.00     0.260 C 
HETATM    7  O   UNL     1     -43.293  56.537 -55.212  1.00  0.00    -0.269 OA
HETATM    8  H   UNL     1     -42.073  54.741 -57.524  1.00  0.00     0.190 HD
BRANCH   6   9
HETATM    9  C   UNL     1     -41.236  55.253 -55.125  1.00  0.00     0.280 C 
BRANCH   9  10
HETATM   10  O   UNL     1     -41.272  55.493 -53.715  1.00  0.00    -0.341 OA
BRANCH  10  11
HETATM   11  C   UNL     1     -40.841  54.377 -53.036  1.00  0.00     0.080 A 
HETATM   12  C   UNL     1     -40.832  54.348 -51.626  1.00  0.00     0.007 A 
HETATM   13  C   UNL     1     -40.355  53.180 -50.985  1.00  0.00    -0.023 A 
HETATM   14  C   UNL     1     -41.272  55.425 -50.826  1.00  0.00     0.015 A 
HETATM   15  C   UNL     1     -40.313  53.128 -49.582  1.00  0.00     0.012 A 
HETATM   16  C   UNL     1     -39.936  52.084 -51.760  1.00  0.00     0.012 A 
HETATM   17  C   UNL     1     -40.743  54.208 -48.811  1.00  0.00     0.001 A 
HETATM   18  C   UNL     1     -41.227  55.354 -49.432  1.00  0.00     0.001 A 
HETATM   19  C   UNL     1     -39.992  52.126 -53.153  1.00  0.00     0.004 A 
HETATM   20  C   UNL     1     -40.452  53.270 -53.794  1.00  0.00     0.037 A 
ENDBRANCH  10  11
ENDBRANCH   9  10
ENDBRANCH   6   9
ENDBRANCH   2   5
BRANCH   1  21
HETATM   21  C   UNL     1     -45.104  56.610 -59.600  1.00  0.00     0.121 A 
HETATM   22  N   UNL     1     -46.004  55.593 -59.738  1.00  0.00    -0.272 N 
HETATM   23  N   UNL     1     -47.120  55.928 -60.397  1.00  0.00    -0.174 NA
HETATM   24  H   UNL     1     -45.935  54.646 -59.381  1.00  0.00     0.189 HD
HETATM   25  C   UNL     1     -46.959  57.227 -60.699  1.00  0.00     0.089 A 
HETATM   26  C   UNL     1     -45.712  57.693 -60.205  1.00  0.00     0.071 A 
BRANCH  25  27
HETATM   27  C   UNL     1     -47.984  57.984 -61.421  1.00  0.00    -0.006 A 
HETATM   28  C   UNL     1     -48.170  59.350 -61.162  1.00  0.00     0.014 A 
HETATM   29  C   UNL     1     -49.134  60.083 -61.858  1.00  0.00     0.001 A 
HETATM   30  C   UNL     1     -49.928  59.457 -62.815  1.00  0.00     0.000 A 
HETATM   31  C   UNL     1     -49.761  58.099 -63.076  1.00  0.00     0.001 A 
HETATM   32  C   UNL     1     -48.793  57.365 -62.384  1.00  0.00     0.014 A 
ENDBRANCH  25  27
ENDBRANCH   1  21
TORSDOF 6
ENDMDL
MODEL 8
REMARK VINA RESULT:      -8.5     19.410     21.705
REMARK  6 active torsions:
REMARK  status: ('A' for Active; 'I' for Inactive)
REMARK    1  A    between atoms: C_4  and  C_5 
REMARK    2  A    between atoms: C_9  and  C_10 
REMARK       I    between atoms: C_10  and  N_11 
REMARK    3  A    between atoms: N_11  and  N_12 
REMARK       I    between atoms: N_12  and  C_13 
REMARK    4  A    between atoms: C_13  and  C_14 
REMARK    5  A    between atoms: C_14  and  O_15 
REMARK    6  A    between atoms: O_15  and  C_16 
ROOT
HETATM    1  C   UNL     1     -36.230  42.170 -56.414  1.00  0.00     0.288 C 
HETATM    2  N   UNL     1     -37.159  42.152 -55.385  1.00  0.00    -0.262 N 
HETATM    3  O   UNL     1     -35.069  42.528 -56.225  1.00  0.00    -0.264 OA
HETATM    4  H   UNL     1     -37.918  41.471 -55.421  1.00  0.00     0.190 HD
ENDROOT
BRANCH   2   5
HETATM    5  N   UNL     1     -36.671  42.379 -54.079  1.00  0.00    -0.265 N 
HETATM    6  C   UNL     1     -36.787  41.336 -53.180  1.00  0.00     0.260 C 
HETATM    7  O   UNL     1     -37.476  40.343 -53.417  1.00  0.00    -0.269 OA
HETATM    8  H   UNL     1     -35.882  43.023 -53.996  1.00  0.00     0.190 HD
BRANCH   6   9
HETATM    9  C   UNL     1     -35.963  41.490 -51.907  1.00  0.00     0.280 C 
BRANCH   9  10
HETATM   10  O   UNL     1     -34.627  41.901 -52.212  1.00  0.00    -0.341 OA
BRANCH  10  11
HETATM   11  C   UNL     1     -33.736  40.922 -51.840  1.00  0.00     0.080 A 
HETATM   12  C   UNL     1     -33.013  40.196 -52.810  1.00  0.00     0.007 A 
HETATM   13  C   UNL     1     -32.129  39.186 -52.365  1.00  0.00    -0.023 A 
HETATM   14  C   UNL     1     -33.131  40.428 -54.198  1.00  0.00     0.015 A 
HETATM   15  C   UNL     1     -31.411  38.429 -53.307  1.00  0.00     0.012 A 
HETATM   16  C   UNL     1     -31.975  38.954 -50.987  1.00  0.00     0.012 A 
HETATM   17  C   UNL     1     -31.550  38.669 -54.674  1.00  0.00     0.001 A 
HETATM   18  C   UNL     1     -32.406  39.670 -55.119  1.00  0.00     0.001 A 
HETATM   19  C   UNL     1     -32.673  39.714 -50.048  1.00  0.00     0.004 A 
HETATM   20  C   UNL     1     -33.550  40.704 -50.473  1.00  0.00     0.037 A 
ENDBRANCH  10  11
ENDBRANCH   9  10
ENDBRANCH   6   9
ENDBRANCH   2   5
BRANCH   1  21
HETATM   21  C   UNL     1     -36.724  41.722 -57.690  1.00  0.00     0.121 A 
HETATM   22  N   UNL     1     -36.760  42.451 -58.845  1.00  0.00    -0.272 N 
HETATM   23  N   UNL     1     -37.238  41.786 -59.903  1.00  0.00    -0.174 NA
HETATM   24  H   UNL     1     -36.446  43.404 -58.991  1.00  0.00     0.189 HD
HETATM   25  C   UNL     1     -37.521  40.559 -59.435  1.00  0.00     0.089 A 
HETATM   26  C   UNL     1     -37.201  40.478 -58.053  1.00  0.00     0.071 A 
BRANCH  25  27
HETATM   27  C   UNL     1     -38.061  39.508 -60.299  1.00  0.00    -0.006 A 
HETATM   28  C   UNL     1     -37.555  39.326 -61.595  1.00  0.00     0.014 A 
HETATM   29  C   UNL     1     -38.054  38.315 -62.420  1.00  0.00     0.001 A 
HETATM   30  C   UNL     1     -39.070  37.480 -61.962  1.00  0.00     0.000 A 
HETATM   31  C   UNL     1     -39.589  37.655 -60.681  1.00  0.00     0.001 A 
HETATM   32  C   UNL     1     -39.087  38.663 -59.852  1.00  0.00     0.014 A 
ENDBRANCH  25  27
ENDBRANCH   1  21
TORSDOF 6
ENDMDL
MODEL 9
REMARK VINA RESULT:      -8.2      1.640      3.050
REMARK  6 active torsions:
REMARK  status: ('A' for Active; 'I' for Inactive)
REMARK    1  A    between atoms: C_4  and  C_5 
REMARK    2  A    between atoms: C_9  and  C_10 
REMARK       I    between atoms: C_10  and  N_11 
REMARK    3  A    between atoms: N_11  and  N_12 
REMARK       I    between atoms: N_12  and  C_13 
REMARK    4  A    between atoms: C_13  and  C_14 
REMARK    5  A    between atoms: C_14  and  O_15 
REMARK    6  A    between atoms: O_15  and  C_16 
ROOT
HETATM    1  C   UNL     1     -41.838  57.012 -51.610  1.00  0.00     0.288 C 
HETATM    2  N   UNL     1     -43.210  57.206 -51.641  1.00  0.00    -0.262 N 
HETATM    3  O   UNL     1     -41.097  57.764 -50.977  1.00  0.00    -0.264 OA
HETATM    4  H   UNL     1     -43.818  56.395 -51.755  1.00  0.00     0.190 HD
ENDROOT
BRANCH   2   5
HETATM    5  N   UNL     1     -43.737  58.182 -50.765  1.00  0.00    -0.265 N 
HETATM    6  C   UNL     1     -44.796  58.935 -51.237  1.00  0.00     0.260 C 
HETATM    7  O   UNL     1     -45.126  58.928 -52.423  1.00  0.00    -0.269 OA
HETATM    8  H   UNL     1     -43.680  57.974 -49.767  1.00  0.00     0.190 HD
BRANCH   6   9
HETATM    9  C   UNL     1     -45.546  59.727 -50.171  1.00  0.00     0.280 C 
BRANCH   9  10
HETATM   10  O   UNL     1     -44.906  60.983 -49.927  1.00  0.00    -0.341 OA
BRANCH  10  11
HETATM   11  C   UNL     1     -45.369  61.527 -48.752  1.00  0.00     0.080 A 
HETATM   12  C   UNL     1     -46.415  62.475 -48.757  1.00  0.00     0.007 A 
HETATM   13  C   UNL     1     -46.831  63.016 -47.518  1.00  0.00    -0.023 A 
HETATM   14  C   UNL     1     -47.062  62.908 -49.935  1.00  0.00     0.015 A 
HETATM   15  C   UNL     1     -47.855  63.978 -47.491  1.00  0.00     0.012 A 
HETATM   16  C   UNL     1     -46.220  62.581 -46.329  1.00  0.00     0.012 A 
HETATM   17  C   UNL     1     -48.473  64.399 -48.669  1.00  0.00     0.001 A 
HETATM   18  C   UNL     1     -48.081  63.861 -49.889  1.00  0.00     0.001 A 
HETATM   19  C   UNL     1     -45.214  61.614 -46.350  1.00  0.00     0.004 A 
HETATM   20  C   UNL     1     -44.792  61.080 -47.561  1.00  0.00     0.037 A 
ENDBRANCH  10  11
ENDBRANCH   9  10
ENDBRANCH   6   9
ENDBRANCH   2   5
BRANCH   1  21
HETATM   21  C   UNL     1     -41.366  55.871 -52.349  1.00  0.00     0.121 A 
HETATM   22  N   UNL     1     -40.951  55.864 -53.650  1.00  0.00    -0.272 N 
HETATM   23  N   UNL     1     -40.527  54.672 -54.089  1.00  0.00    -0.174 NA
HETATM   24  H   UNL     1     -40.903  56.646 -54.293  1.00  0.00     0.189 HD
HETATM   25  C   UNL     1     -40.654  53.855 -53.030  1.00  0.00     0.089 A 
HETATM   26  C   UNL     1     -41.166  54.574 -51.917  1.00  0.00     0.071 A 
BRANCH  25  27
HETATM   27  C   UNL     1     -40.276  52.442 -53.096  1.00  0.00    -0.006 A 
HETATM   28  C   UNL     1     -39.854  51.767 -51.941  1.00  0.00     0.014 A 
HETATM   29  C   UNL     1     -39.508  50.415 -51.992  1.00  0.00     0.001 A 
HETATM   30  C   UNL     1     -39.571  49.724 -53.200  1.00  0.00     0.000 A 
HETATM   31  C   UNL     1     -39.979  50.384 -54.357  1.00  0.00     0.001 A 
HETATM   32  C   UNL     1     -40.331  51.737 -54.306  1.00  0.00     0.014 A 
ENDBRANCH  25  27
ENDBRANCH   1  21
TORSDOF 6
ENDMDL
MODEL 10
REMARK VINA RESULT:      -8.0      7.824     11.593
REMARK  6 active torsions:
REMARK  status: ('A' for Active; 'I' for Inactive)
REMARK    1  A    between atoms: C_4  and  C_5 
REMARK    2  A    between atoms: C_9  and  C_10 
REMARK       I    between atoms: C_10  and  N_11 
REMARK    3  A    between atoms: N_11  and  N_12 
REMARK       I    between atoms: N_12  and  C_13 
REMARK    4  A    between atoms: C_13  and  C_14 
REMARK    5  A    between atoms: C_14  and  O_15 
REMARK    6  A    between atoms: O_15  and  C_16 
ROOT
HETATM    1  C   UNL     1     -43.806  56.441 -58.729  1.00  0.00     0.288 C 
HETATM    2  N   UNL     1     -43.922  56.205 -57.368  1.00  0.00    -0.262 N 
HETATM    3  O   UNL     1     -43.076  55.752 -59.440  1.00  0.00    -0.264 OA
HETATM    4  H   UNL     1     -44.799  56.439 -56.902  1.00  0.00     0.190 HD
ENDROOT
BRANCH   2   5
HETATM    5  N   UNL     1     -43.319  55.029 -56.869  1.00  0.00    -0.265 N 
HETATM    6  C   UNL     1     -42.488  55.171 -55.774  1.00  0.00     0.260 C 
HETATM    7  O   UNL     1     -42.104  56.275 -55.384  1.00  0.00    -0.269 OA
HETATM    8  H   UNL     1     -43.850  54.164 -56.982  1.00  0.00     0.190 HD
BRANCH   6   9
HETATM    9  C   UNL     1     -42.129  53.869 -55.067  1.00  0.00     0.280 C 
BRANCH   9  10
HETATM   10  O   UNL     1     -40.723  53.801 -54.809  1.00  0.00    -0.341 OA
BRANCH  10  11
HETATM   11  C   UNL     1     -40.500  53.367 -53.524  1.00  0.00     0.080 A 
HETATM   12  C   UNL     1     -40.137  52.029 -53.265  1.00  0.00     0.007 A 
HETATM   13  C   UNL     1     -39.944  51.638 -51.919  1.00  0.00    -0.023 A 
HETATM   14  C   UNL     1     -39.959  51.064 -54.280  1.00  0.00     0.015 A 
HETATM   15  C   UNL     1     -39.604  50.306 -51.626  1.00  0.00     0.012 A 
HETATM   16  C   UNL     1     -40.090  52.586 -50.891  1.00  0.00     0.012 A 
HETATM   17  C   UNL     1     -39.443  49.367 -52.645  1.00  0.00     0.001 A 
HETATM   18  C   UNL     1     -39.616  49.746 -53.971  1.00  0.00     0.001 A 
HETATM   19  C   UNL     1     -40.411  53.913 -51.179  1.00  0.00     0.004 A 
HETATM   20  C   UNL     1     -40.610  54.307 -52.496  1.00  0.00     0.037 A 
ENDBRANCH  10  11
ENDBRANCH   9  10
ENDBRANCH   6   9
ENDBRANCH   2   5
BRANCH   1  21
HETATM   21  C   UNL     1     -44.611  57.524 -59.231  1.00  0.00     0.121 A 
HETATM   22  N   UNL     1     -44.843  57.818 -60.544  1.00  0.00    -0.272 N 
HETATM   23  N   UNL     1     -45.659  58.861 -60.741  1.00  0.00    -0.174 NA
HETATM   24  H   UNL     1     -44.499  57.329 -61.363  1.00  0.00     0.189 HD
HETATM   25  C   UNL     1     -45.993  59.270 -59.506  1.00  0.00     0.089 A 
HETATM   26  C   UNL     1     -45.364  58.448 -58.533  1.00  0.00     0.071 A 
BRANCH  25  27
HETATM   27  C   UNL     1     -46.898  60.399 -59.285  1.00  0.00    -0.006 A 
HETATM   28  C   UNL     1     -48.288  60.211 -59.317  1.00  0.00     0.014 A 
HETATM   29  C   UNL     1     -49.158  61.279 -59.091  1.00  0.00     0.001 A 
HETATM   30  C   UNL     1     -48.649  62.551 -58.837  1.00  0.00     0.000 A 
HETATM   31  C   UNL     1     -47.271  62.755 -58.811  1.00  0.00     0.001 A 
HETATM   32  C   UNL     1     -46.399  61.685 -59.032  1.00  0.00     0.014 A 
ENDBRANCH  25  27
ENDBRANCH   1  21
TORSDOF 6
ENDMDL
