MODEL 1
REMARK VINA RESULT:      -8.4      0.000      0.000
REMARK  7 active torsions:
REMARK  status: ('A' for Active; 'I' for Inactive)
REMARK    1  A    between atoms: C_2  and  C_3 
REMARK    2  A    between atoms: C_3  and  C_4 
REMARK    3  A    between atoms: C_3  and  C_12 
REMARK    4  A    between atoms: C_7  and  O_8 
REMARK    5  A    between atoms: C_12  and  C_13 
REMARK       I    between atoms: C_13  and  N_14 
REMARK    6  A    between atoms: N_14  and  C_15 
REMARK    7  A    between atoms: C_22  and  C_23 
REMARK       I    between atoms: C_23  and  N_24 
ROOT
HETATM    1  C   UNL     1     -41.591  54.612 -55.397  1.00  0.00     0.222 C 
HETATM    2  N   UNL     1     -41.573  55.787 -56.121  1.00  0.00    -0.327 N 
HETATM    3  O   UNL     1     -42.518  53.808 -55.349  1.00  0.00    -0.273 OA
HETATM    4  H   UNL     1     -40.745  56.359 -56.050  1.00  0.00     0.169 HD
ENDROOT
BRANCH   2   5
HETATM    5  C   UNL     1     -42.619  56.344 -56.891  1.00  0.00     0.035 A 
HETATM    6  C   UNL     1     -43.215  55.702 -57.985  1.00  0.00     0.046 A 
HETATM    7  C   UNL     1     -44.256  56.347 -58.691  1.00  0.00     0.030 A 
HETATM    8  C   UNL     1     -44.668  57.606 -58.274  1.00  0.00     0.063 A 
HETATM    9  C   UNL     1     -45.078  56.045 -59.818  1.00  0.00     0.156 A 
HETATM   10  N   UNL     1     -45.673  57.961 -59.129  1.00  0.00    -0.277 N 
HETATM   11  C   UNL     1     -44.099  58.275 -57.190  1.00  0.00     0.034 A 
HETATM   12  H   UNL     1     -46.211  58.820 -59.121  1.00  0.00     0.189 HD
HETATM   13  N   UNL     1     -45.948  57.049 -60.075  1.00  0.00    -0.168 NA
HETATM   14  C   UNL     1     -43.064  57.619 -56.512  1.00  0.00     0.032 A 
BRANCH   9  15
HETATM   15  C   UNL     1     -45.050  54.834 -60.651  1.00  0.00     0.270 C 
HETATM   16  N   UNL     1     -45.180  53.669 -59.944  1.00  0.00    -0.365 N 
HETATM   17  H   UNL     1     -45.285  53.721 -58.938  1.00  0.00     0.159 HD
HETATM   18  H   UNL     1     -45.179  52.787 -60.432  1.00  0.00     0.159 HD
HETATM   19  O   UNL     1     -44.931  54.823 -61.870  1.00  0.00    -0.266 OA
ENDBRANCH   9  15
ENDBRANCH   2   5
BRANCH   1  20
HETATM   20  C   UNL     1     -40.287  54.288 -54.671  1.00  0.00     0.112 C 
BRANCH  20  21
HETATM   21  C   UNL     1     -40.395  53.969 -53.167  1.00  0.00     0.027 C 
BRANCH  21  22
HETATM   22  C   UNL     1     -40.416  52.448 -52.885  1.00  0.00     0.005 C 
HETATM   23  C   UNL     1     -40.065  51.538 -54.055  1.00  0.00     0.006 C 
ENDBRANCH  21  22
BRANCH  21  24
HETATM   24  C   UNL     1     -41.516  54.697 -52.443  1.00  0.00    -0.053 A 
HETATM   25  C   UNL     1     -42.592  54.025 -51.853  1.00  0.00     0.010 A 
HETATM   26  C   UNL     1     -43.622  54.738 -51.234  1.00  0.00     0.037 A 
HETATM   27  C   UNL     1     -43.607  56.133 -51.204  1.00  0.00     0.068 A 
HETATM   28  C   UNL     1     -42.526  56.812 -51.761  1.00  0.00     0.037 A 
HETATM   29  C   UNL     1     -41.489  56.100 -52.372  1.00  0.00     0.010 A 
BRANCH  27  30
HETATM   30  O   UNL     1     -44.682  56.712 -50.589  1.00  0.00    -0.356 OA
HETATM   31  C   UNL     1     -45.123  57.951 -51.132  1.00  0.00     0.210 C 
ENDBRANCH  27  30
ENDBRANCH  21  24
ENDBRANCH  20  21
ENDBRANCH   1  20
TORSDOF 7
ENDMDL
MODEL 2
REMARK VINA RESULT:      -8.1      2.452      4.383
REMARK  7 active torsions:
REMARK  status: ('A' for Active; 'I' for Inactive)
REMARK    1  A    between atoms: C_2  and  C_3 
REMARK    2  A    between atoms: C_3  and  C_4 
REMARK    3  A    between atoms: C_3  and  C_12 
REMARK    4  A    between atoms: C_7  and  O_8 
REMARK    5  A    between atoms: C_12  and  C_13 
REMARK       I    between atoms: C_13  and  N_14 
REMARK    6  A    between atoms: N_14  and  C_15 
REMARK    7  A    between atoms: C_22  and  C_23 
REMARK       I    between atoms: C_23  and  N_24 
ROOT
HETATM    1  C   UNL     1     -42.440  55.251 -56.158  1.00  0.00     0.222 C 
HETATM    2  N   UNL     1     -42.490  56.199 -57.161  1.00  0.00    -0.327 N 
HETATM    3  O   UNL     1     -43.225  54.320 -56.005  1.00  0.00    -0.273 OA
HETATM    4  H   UNL     1     -41.784  56.919 -57.149  1.00  0.00     0.169 HD
ENDROOT
BRANCH   2   5
HETATM    5  C   UNL     1     -43.474  56.342 -58.165  1.00  0.00     0.035 A 
HETATM    6  C   UNL     1     -44.498  57.297 -58.130  1.00  0.00     0.046 A 
HETATM    7  C   UNL     1     -45.435  57.357 -59.187  1.00  0.00     0.030 A 
HETATM    8  C   UNL     1     -45.309  56.465 -60.244  1.00  0.00     0.063 A 
HETATM    9  C   UNL     1     -46.582  58.145 -59.503  1.00  0.00     0.156 A 
HETATM   10  N   UNL     1     -46.334  56.766 -61.097  1.00  0.00    -0.277 N 
HETATM   11  C   UNL     1     -44.302  55.501 -60.314  1.00  0.00     0.034 A 
HETATM   12  H   UNL     1     -46.550  56.317 -61.979  1.00  0.00     0.189 HD
HETATM   13  N   UNL     1     -47.124  57.770 -60.685  1.00  0.00    -0.168 NA
HETATM   14  C   UNL     1     -43.392  55.457 -59.251  1.00  0.00     0.032 A 
BRANCH   9  15
HETATM   15  C   UNL     1     -47.170  59.234 -58.711  1.00  0.00     0.270 C 
HETATM   16  N   UNL     1     -47.708  58.828 -57.519  1.00  0.00    -0.365 N 
HETATM   17  H   UNL     1     -47.662  57.846 -57.276  1.00  0.00     0.159 HD
HETATM   18  H   UNL     1     -48.127  59.507 -56.905  1.00  0.00     0.159 HD
HETATM   19  O   UNL     1     -47.192  60.412 -59.045  1.00  0.00    -0.266 OA
ENDBRANCH   9  15
ENDBRANCH   2   5
BRANCH   1  20
HETATM   20  C   UNL     1     -41.234  55.368 -55.228  1.00  0.00     0.112 C 
BRANCH  20  21
HETATM   21  C   UNL     1     -41.488  55.104 -53.731  1.00  0.00     0.027 C 
BRANCH  21  22
HETATM   22  C   UNL     1     -41.134  56.322 -52.846  1.00  0.00     0.005 C 
HETATM   23  C   UNL     1     -40.955  57.652 -53.567  1.00  0.00     0.006 C 
ENDBRANCH  21  22
BRANCH  21  24
HETATM   24  C   UNL     1     -40.874  53.818 -53.201  1.00  0.00    -0.053 A 
HETATM   25  C   UNL     1     -40.729  53.562 -51.832  1.00  0.00     0.010 A 
HETATM   26  C   UNL     1     -40.120  52.384 -51.391  1.00  0.00     0.037 A 
HETATM   27  C   UNL     1     -39.633  51.447 -52.302  1.00  0.00     0.068 A 
HETATM   28  C   UNL     1     -39.798  51.677 -53.666  1.00  0.00     0.037 A 
HETATM   29  C   UNL     1     -40.417  52.850 -54.110  1.00  0.00     0.010 A 
BRANCH  27  30
HETATM   30  O   UNL     1     -39.039  50.349 -51.744  1.00  0.00    -0.356 OA
HETATM   31  C   UNL     1     -39.701  49.782 -50.619  1.00  0.00     0.210 C 
ENDBRANCH  27  30
ENDBRANCH  21  24
ENDBRANCH  20  21
ENDBRANCH   1  20
TORSDOF 7
ENDMDL
MODEL 3
REMARK VINA RESULT:      -7.9      2.002      2.526
REMARK  7 active torsions:
REMARK  status: ('A' for Active; 'I' for Inactive)
REMARK    1  A    between atoms: C_2  and  C_3 
REMARK    2  A    between atoms: C_3  and  C_4 
REMARK    3  A    between atoms: C_3  and  C_12 
REMARK    4  A    between atoms: C_7  and  O_8 
REMARK    5  A    between atoms: C_12  and  C_13 
REMARK       I    between atoms: C_13  and  N_14 
REMARK    6  A    between atoms: N_14  and  C_15 
REMARK    7  A    between atoms: C_22  and  C_23 
REMARK       I    between atoms: C_23  and  N_24 
ROOT
HETATM    1  C   UNL     1     -42.962  54.302 -55.007  1.00  0.00     0.222 C 
HETATM    2  N   UNL     1     -42.366  54.747 -56.170  1.00  0.00    -0.327 N 
HETATM    3  O   UNL     1     -44.021  54.711 -54.537  1.00  0.00    -0.273 OA
HETATM    4  H   UNL     1     -41.483  54.328 -56.422  1.00  0.00     0.169 HD
ENDROOT
BRANCH   2   5
HETATM    5  C   UNL     1     -42.796  55.792 -57.017  1.00  0.00     0.035 A 
HETATM    6  C   UNL     1     -43.557  55.600 -58.177  1.00  0.00     0.046 A 
HETATM    7  C   UNL     1     -43.936  56.715 -58.958  1.00  0.00     0.030 A 
HETATM    8  C   UNL     1     -43.547  57.983 -58.546  1.00  0.00     0.063 A 
HETATM    9  C   UNL     1     -44.671  56.928 -60.163  1.00  0.00     0.156 A 
HETATM   10  N   UNL     1     -44.058  58.841 -59.479  1.00  0.00    -0.277 N 
HETATM   11  C   UNL     1     -42.790  58.214 -57.397  1.00  0.00     0.034 A 
HETATM   12  H   UNL     1     -43.973  59.851 -59.498  1.00  0.00     0.189 HD
HETATM   13  N   UNL     1     -44.739  58.244 -60.471  1.00  0.00    -0.168 NA
HETATM   14  C   UNL     1     -42.421  57.092 -56.645  1.00  0.00     0.032 A 
BRANCH   9  15
HETATM   15  C   UNL     1     -45.300  55.915 -61.022  1.00  0.00     0.270 C 
HETATM   16  N   UNL     1     -46.611  56.172 -61.318  1.00  0.00    -0.365 N 
HETATM   17  H   UNL     1     -47.038  57.010 -60.943  1.00  0.00     0.159 HD
HETATM   18  H   UNL     1     -47.123  55.535 -61.908  1.00  0.00     0.159 HD
HETATM   19  O   UNL     1     -44.736  54.920 -61.461  1.00  0.00    -0.266 OA
ENDBRANCH   9  15
ENDBRANCH   2   5
BRANCH   1  20
HETATM   20  C   UNL     1     -42.243  53.142 -54.322  1.00  0.00     0.112 C 
BRANCH  20  21
HETATM   21  C   UNL     1     -40.873  53.455 -53.689  1.00  0.00     0.027 C 
BRANCH  21  22
HETATM   22  C   UNL     1     -39.803  52.395 -54.042  1.00  0.00     0.005 C 
HETATM   23  C   UNL     1     -40.307  50.978 -54.281  1.00  0.00     0.006 C 
ENDBRANCH  21  22
BRANCH  21  24
HETATM   24  C   UNL     1     -40.915  53.747 -52.198  1.00  0.00    -0.053 A 
HETATM   25  C   UNL     1     -41.950  54.477 -51.603  1.00  0.00     0.010 A 
HETATM   26  C   UNL     1     -41.925  54.758 -50.234  1.00  0.00     0.037 A 
HETATM   27  C   UNL     1     -40.864  54.329 -49.436  1.00  0.00     0.068 A 
HETATM   28  C   UNL     1     -39.844  53.576 -50.011  1.00  0.00     0.037 A 
HETATM   29  C   UNL     1     -39.871  53.284 -51.379  1.00  0.00     0.010 A 
BRANCH  27  30
HETATM   30  O   UNL     1     -40.947  54.686 -48.119  1.00  0.00    -0.356 OA
HETATM   31  C   UNL     1     -40.193  53.897 -47.206  1.00  0.00     0.210 C 
ENDBRANCH  27  30
ENDBRANCH  21  24
ENDBRANCH  20  21
ENDBRANCH   1  20
TORSDOF 7
ENDMDL
MODEL 4
REMARK VINA RESULT:      -7.9      2.358      4.234
REMARK  7 active torsions:
REMARK  status: ('A' for Active; 'I' for Inactive)
REMARK    1  A    between atoms: C_2  and  C_3 
REMARK    2  A    between atoms: C_3  and  C_4 
REMARK    3  A    between atoms: C_3  and  C_12 
REMARK    4  A    between atoms: C_7  and  O_8 
REMARK    5  A    between atoms: C_12  and  C_13 
REMARK       I    between atoms: C_13  and  N_14 
REMARK    6  A    between atoms: N_14  and  C_15 
REMARK    7  A    between atoms: C_22  and  C_23 
REMARK       I    between atoms: C_23  and  N_24 
ROOT
HETATM    1  C   UNL     1     -41.893  57.381 -53.737  1.00  0.00     0.222 C 
HETATM    2  N   UNL     1     -42.959  56.792 -54.387  1.00  0.00    -0.327 N 
HETATM    3  O   UNL     1     -41.362  58.446 -54.040  1.00  0.00    -0.273 OA
HETATM    4  H   UNL     1     -43.279  55.903 -54.033  1.00  0.00     0.169 HD
ENDROOT
BRANCH   2   5
HETATM    5  C   UNL     1     -43.612  57.240 -55.557  1.00  0.00     0.035 A 
HETATM    6  C   UNL     1     -43.066  57.147 -56.844  1.00  0.00     0.046 A 
HETATM    7  C   UNL     1     -43.802  57.627 -57.951  1.00  0.00     0.030 A 
HETATM    8  C   UNL     1     -45.059  58.176 -57.733  1.00  0.00     0.063 A 
HETATM    9  C   UNL     1     -43.599  57.720 -59.362  1.00  0.00     0.156 A 
HETATM   10  N   UNL     1     -45.518  58.536 -58.969  1.00  0.00    -0.277 N 
HETATM   11  C   UNL     1     -45.635  58.284 -56.467  1.00  0.00     0.034 A 
HETATM   12  H   UNL     1     -46.407  58.967 -59.192  1.00  0.00     0.189 HD
HETATM   13  N   UNL     1     -44.666  58.281 -59.975  1.00  0.00    -0.168 NA
HETATM   14  C   UNL     1     -44.883  57.808 -55.386  1.00  0.00     0.032 A 
BRANCH   9  15
HETATM   15  C   UNL     1     -42.420  57.294 -60.129  1.00  0.00     0.270 C 
HETATM   16  N   UNL     1     -41.721  58.327 -60.694  1.00  0.00    -0.365 N 
HETATM   17  H   UNL     1     -42.049  59.274 -60.546  1.00  0.00     0.159 HD
HETATM   18  H   UNL     1     -40.892  58.131 -61.233  1.00  0.00     0.159 HD
HETATM   19  O   UNL     1     -42.056  56.134 -60.270  1.00  0.00    -0.266 OA
ENDBRANCH   9  15
ENDBRANCH   2   5
BRANCH   1  20
HETATM   20  C   UNL     1     -41.419  56.643 -52.486  1.00  0.00     0.112 C 
BRANCH  20  21
HETATM   21  C   UNL     1     -42.106  55.298 -52.176  1.00  0.00     0.027 C 
BRANCH  21  22
HETATM   22  C   UNL     1     -42.618  55.218 -50.718  1.00  0.00     0.005 C 
HETATM   23  C   UNL     1     -43.934  54.482 -50.504  1.00  0.00     0.006 C 
ENDBRANCH  21  22
BRANCH  21  24
HETATM   24  C   UNL     1     -41.300  54.069 -52.564  1.00  0.00    -0.053 A 
HETATM   25  C   UNL     1     -41.325  53.530 -53.855  1.00  0.00     0.010 A 
HETATM   26  C   UNL     1     -40.600  52.373 -54.156  1.00  0.00     0.037 A 
HETATM   27  C   UNL     1     -39.849  51.726 -53.175  1.00  0.00     0.068 A 
HETATM   28  C   UNL     1     -39.791  52.270 -51.895  1.00  0.00     0.037 A 
HETATM   29  C   UNL     1     -40.508  53.434 -51.594  1.00  0.00     0.010 A 
BRANCH  27  30
HETATM   30  O   UNL     1     -39.204  50.594 -53.591  1.00  0.00    -0.356 OA
HETATM   31  C   UNL     1     -39.872  49.818 -54.579  1.00  0.00     0.210 C 
ENDBRANCH  27  30
ENDBRANCH  21  24
ENDBRANCH  20  21
ENDBRANCH   1  20
TORSDOF 7
ENDMDL
MODEL 5
REMARK VINA RESULT:      -7.8      1.677      3.864
REMARK  7 active torsions:
REMARK  status: ('A' for Active; 'I' for Inactive)
REMARK    1  A    between atoms: C_2  and  C_3 
REMARK    2  A    between atoms: C_3  and  C_4 
REMARK    3  A    between atoms: C_3  and  C_12 
REMARK    4  A    between atoms: C_7  and  O_8 
REMARK    5  A    between atoms: C_12  and  C_13 
REMARK       I    between atoms: C_13  and  N_14 
REMARK    6  A    between atoms: N_14  and  C_15 
REMARK    7  A    between atoms: C_22  and  C_23 
REMARK       I    between atoms: C_23  and  N_24 
ROOT
HETATM    1  C   UNL     1     -42.500  56.830 -54.350  1.00  0.00     0.222 C 
HETATM    2  N   UNL     1     -42.231  57.190 -55.655  1.00  0.00    -0.327 N 
HETATM    3  O   UNL     1     -43.616  56.694 -53.854  1.00  0.00    -0.273 OA
HETATM    4  H   UNL     1     -41.261  57.280 -55.916  1.00  0.00     0.169 HD
ENDROOT
BRANCH   2   5
HETATM    5  C   UNL     1     -43.157  57.541 -56.663  1.00  0.00     0.035 A 
HETATM    6  C   UNL     1     -43.559  56.681 -57.693  1.00  0.00     0.046 A 
HETATM    7  C   UNL     1     -44.491  57.131 -58.655  1.00  0.00     0.030 A 
HETATM    8  C   UNL     1     -44.994  58.421 -58.548  1.00  0.00     0.063 A 
HETATM    9  C   UNL     1     -45.119  56.586 -59.816  1.00  0.00     0.156 A 
HETATM   10  N   UNL     1     -45.862  58.562 -59.595  1.00  0.00    -0.277 N 
HETATM   11  C   UNL     1     -44.618  59.305 -57.535  1.00  0.00     0.034 A 
HETATM   12  H   UNL     1     -46.415  59.378 -59.828  1.00  0.00     0.189 HD
HETATM   13  N   UNL     1     -45.962  57.479 -60.383  1.00  0.00    -0.168 NA
HETATM   14  C   UNL     1     -43.687  58.838 -56.600  1.00  0.00     0.032 A 
BRANCH   9  15
HETATM   15  C   UNL     1     -44.932  55.248 -60.393  1.00  0.00     0.270 C 
HETATM   16  N   UNL     1     -45.133  54.225 -59.506  1.00  0.00    -0.365 N 
HETATM   17  H   UNL     1     -45.390  54.453 -58.553  1.00  0.00     0.159 HD
HETATM   18  H   UNL     1     -45.034  53.271 -59.814  1.00  0.00     0.159 HD
HETATM   19  O   UNL     1     -44.630  55.022 -61.559  1.00  0.00    -0.266 OA
ENDBRANCH   9  15
ENDBRANCH   2   5
BRANCH   1  20
HETATM   20  C   UNL     1     -41.268  56.503 -53.508  1.00  0.00     0.112 C 
BRANCH  20  21
HETATM   21  C   UNL     1     -41.465  55.500 -52.355  1.00  0.00     0.027 C 
BRANCH  21  22
HETATM   22  C   UNL     1     -41.037  56.080 -50.986  1.00  0.00     0.005 C 
HETATM   23  C   UNL     1     -41.379  57.543 -50.736  1.00  0.00     0.006 C 
ENDBRANCH  21  22
BRANCH  21  24
HETATM   24  C   UNL     1     -40.867  54.124 -52.602  1.00  0.00    -0.053 A 
HETATM   25  C   UNL     1     -40.941  53.483 -53.844  1.00  0.00     0.010 A 
HETATM   26  C   UNL     1     -40.414  52.200 -54.014  1.00  0.00     0.037 A 
HETATM   27  C   UNL     1     -39.815  51.527 -52.948  1.00  0.00     0.068 A 
HETATM   28  C   UNL     1     -39.708  52.167 -51.716  1.00  0.00     0.037 A 
HETATM   29  C   UNL     1     -40.226  53.455 -51.546  1.00  0.00     0.010 A 
BRANCH  27  30
HETATM   30  O   UNL     1     -39.359  50.271 -53.238  1.00  0.00    -0.356 OA
HETATM   31  C   UNL     1     -39.683  49.768 -54.529  1.00  0.00     0.210 C 
ENDBRANCH  27  30
ENDBRANCH  21  24
ENDBRANCH  20  21
ENDBRANCH   1  20
TORSDOF 7
ENDMDL
MODEL 6
REMARK VINA RESULT:      -7.7      2.980      8.536
REMARK  7 active torsions:
REMARK  status: ('A' for Active; 'I' for Inactive)
REMARK    1  A    between atoms: C_2  and  C_3 
REMARK    2  A    between atoms: C_3  and  C_4 
REMARK    3  A    between atoms: C_3  and  C_12 
REMARK    4  A    between atoms: C_7  and  O_8 
REMARK    5  A    between atoms: C_12  and  C_13 
REMARK       I    between atoms: C_13  and  N_14 
REMARK    6  A    between atoms: N_14  and  C_15 
REMARK    7  A    between atoms: C_22  and  C_23 
REMARK       I    between atoms: C_23  and  N_24 
ROOT
HETATM    1  C   UNL     1     -42.652  56.168 -55.621  1.00  0.00     0.222 C 
HETATM    2  N   UNL     1     -41.370  55.850 -55.222  1.00  0.00    -0.327 N 
HETATM    3  O   UNL     1     -43.679  55.580 -55.289  1.00  0.00    -0.273 OA
HETATM    4  H   UNL     1     -40.620  56.414 -55.593  1.00  0.00     0.169 HD
ENDROOT
BRANCH   2   5
HETATM    5  C   UNL     1     -40.960  54.762 -54.420  1.00  0.00     0.035 A 
HETATM    6  C   UNL     1     -41.020  54.753 -53.020  1.00  0.00     0.046 A 
HETATM    7  C   UNL     1     -40.582  53.612 -52.309  1.00  0.00     0.030 A 
HETATM    8  C   UNL     1     -40.107  52.520 -53.023  1.00  0.00     0.063 A 
HETATM    9  C   UNL     1     -40.477  53.230 -50.938  1.00  0.00     0.156 A 
HETATM   10  N   UNL     1     -39.773  51.588 -52.081  1.00  0.00    -0.277 N 
HETATM   11  C   UNL     1     -40.033  52.492 -54.417  1.00  0.00     0.034 A 
HETATM   12  H   UNL     1     -39.393  50.662 -52.241  1.00  0.00     0.189 HD
HETATM   13  N   UNL     1     -39.978  51.979 -50.813  1.00  0.00    -0.168 NA
HETATM   14  C   UNL     1     -40.465  53.637 -55.097  1.00  0.00     0.032 A 
BRANCH   9  15
HETATM   15  C   UNL     1     -40.834  54.025 -49.754  1.00  0.00     0.270 C 
HETATM   16  N   UNL     1     -42.116  54.507 -49.773  1.00  0.00    -0.365 N 
HETATM   17  H   UNL     1     -42.705  54.288 -50.567  1.00  0.00     0.159 HD
HETATM   18  H   UNL     1     -42.452  55.057 -48.999  1.00  0.00     0.159 HD
HETATM   19  O   UNL     1     -40.087  54.255 -48.811  1.00  0.00    -0.266 OA
ENDBRANCH   9  15
ENDBRANCH   2   5
BRANCH   1  20
HETATM   20  C   UNL     1     -42.761  57.420 -56.490  1.00  0.00     0.112 C 
BRANCH  20  21
HETATM   21  C   UNL     1     -42.432  57.253 -57.986  1.00  0.00     0.027 C 
BRANCH  21  22
HETATM   22  C   UNL     1     -41.713  58.490 -58.575  1.00  0.00     0.005 C 
HETATM   23  C   UNL     1     -41.830  59.783 -57.779  1.00  0.00     0.006 C 
ENDBRANCH  21  22
BRANCH  21  24
HETATM   24  C   UNL     1     -43.604  56.813 -58.848  1.00  0.00    -0.053 A 
HETATM   25  C   UNL     1     -43.554  55.676 -59.663  1.00  0.00     0.010 A 
HETATM   26  C   UNL     1     -44.642  55.333 -60.470  1.00  0.00     0.037 A 
HETATM   27  C   UNL     1     -45.792  56.121 -60.492  1.00  0.00     0.068 A 
HETATM   28  C   UNL     1     -45.866  57.238 -59.663  1.00  0.00     0.037 A 
HETATM   29  C   UNL     1     -44.783  57.578 -58.846  1.00  0.00     0.010 A 
BRANCH  27  30
HETATM   30  O   UNL     1     -46.775  55.690 -61.340  1.00  0.00    -0.356 OA
HETATM   31  C   UNL     1     -47.842  56.601 -61.578  1.00  0.00     0.210 C 
ENDBRANCH  27  30
ENDBRANCH  21  24
ENDBRANCH  20  21
ENDBRANCH   1  20
TORSDOF 7
ENDMDL
MODEL 7
REMARK VINA RESULT:      -7.7      3.165      5.025
REMARK  7 active torsions:
REMARK  status: ('A' for Active; 'I' for Inactive)
REMARK    1  A    between atoms: C_2  and  C_3 
REMARK    2  A    between atoms: C_3  and  C_4 
REMARK    3  A    between atoms: C_3  and  C_12 
REMARK    4  A    between atoms: C_7  and  O_8 
REMARK    5  A    between atoms: C_12  and  C_13 
REMARK       I    between atoms: C_13  and  N_14 
REMARK    6  A    between atoms: N_14  and  C_15 
REMARK    7  A    between atoms: C_22  and  C_23 
REMARK       I    between atoms: C_23  and  N_24 
ROOT
HETATM    1  C   UNL     1     -42.894  55.694 -56.140  1.00  0.00     0.222 C 
HETATM    2  N   UNL     1     -42.451  55.776 -57.444  1.00  0.00    -0.327 N 
HETATM    3  O   UNL     1     -43.725  56.430 -55.612  1.00  0.00    -0.273 OA
HETATM    4  H   UNL     1     -41.749  55.112 -57.734  1.00  0.00     0.169 HD
ENDROOT
BRANCH   2   5
HETATM    5  C   UNL     1     -42.794  56.744 -58.414  1.00  0.00     0.035 A 
HETATM    6  C   UNL     1     -42.225  58.023 -58.483  1.00  0.00     0.046 A 
HETATM    7  C   UNL     1     -42.639  58.919 -59.494  1.00  0.00     0.030 A 
HETATM    8  C   UNL     1     -43.603  58.503 -60.404  1.00  0.00     0.063 A 
HETATM    9  C   UNL     1     -42.322  60.257 -59.879  1.00  0.00     0.156 A 
HETATM   10  N   UNL     1     -43.788  59.562 -61.248  1.00  0.00    -0.277 N 
HETATM   11  C   UNL     1     -44.191  57.238 -60.368  1.00  0.00     0.034 A 
HETATM   12  H   UNL     1     -44.418  59.614 -62.039  1.00  0.00     0.189 HD
HETATM   13  N   UNL     1     -43.037  60.639 -60.963  1.00  0.00    -0.168 NA
HETATM   14  C   UNL     1     -43.769  56.372 -59.352  1.00  0.00     0.032 A 
BRANCH   9  15
HETATM   15  C   UNL     1     -41.366  61.172 -59.240  1.00  0.00     0.270 C 
HETATM   16  N   UNL     1     -40.888  62.148 -60.073  1.00  0.00    -0.365 N 
HETATM   17  H   UNL     1     -41.216  62.172 -61.031  1.00  0.00     0.159 HD
HETATM   18  H   UNL     1     -40.232  62.827 -59.721  1.00  0.00     0.159 HD
HETATM   19  O   UNL     1     -41.007  61.109 -58.071  1.00  0.00    -0.266 OA
ENDBRANCH   9  15
ENDBRANCH   2   5
BRANCH   1  20
HETATM   20  C   UNL     1     -42.332  54.517 -55.345  1.00  0.00     0.112 C 
BRANCH  20  21
HETATM   21  C   UNL     1     -41.593  54.858 -54.036  1.00  0.00     0.027 C 
BRANCH  21  22
HETATM   22  C   UNL     1     -40.610  56.041 -54.202  1.00  0.00     0.005 C 
HETATM   23  C   UNL     1     -40.923  57.297 -53.399  1.00  0.00     0.006 C 
ENDBRANCH  21  22
BRANCH  21  24
HETATM   24  C   UNL     1     -40.941  53.669 -53.348  1.00  0.00    -0.053 A 
HETATM   25  C   UNL     1     -40.685  53.644 -51.972  1.00  0.00     0.010 A 
HETATM   26  C   UNL     1     -40.045  52.547 -51.389  1.00  0.00     0.037 A 
HETATM   27  C   UNL     1     -39.636  51.463 -52.166  1.00  0.00     0.068 A 
HETATM   28  C   UNL     1     -39.911  51.463 -53.531  1.00  0.00     0.037 A 
HETATM   29  C   UNL     1     -40.561  52.555 -54.115  1.00  0.00     0.010 A 
BRANCH  27  30
HETATM   30  O   UNL     1     -39.002  50.464 -51.480  1.00  0.00    -0.356 OA
HETATM   31  C   UNL     1     -39.827  49.406 -51.007  1.00  0.00     0.210 C 
ENDBRANCH  27  30
ENDBRANCH  21  24
ENDBRANCH  20  21
ENDBRANCH   1  20
TORSDOF 7
ENDMDL
MODEL 8
REMARK VINA RESULT:      -7.5      2.978      5.025
REMARK  7 active torsions:
REMARK  status: ('A' for Active; 'I' for Inactive)
REMARK    1  A    between atoms: C_2  and  C_3 
REMARK    2  A    between atoms: C_3  and  C_4 
REMARK    3  A    between atoms: C_3  and  C_12 
REMARK    4  A    between atoms: C_7  and  O_8 
REMARK    5  A    between atoms: C_12  and  C_13 
REMARK       I    between atoms: C_13  and  N_14 
REMARK    6  A    between atoms: N_14  and  C_15 
REMARK    7  A    between atoms: C_22  and  C_23 
REMARK       I    between atoms: C_23  and  N_24 
ROOT
HETATM    1  C   UNL     1     -41.611  56.906 -53.592  1.00  0.00     0.222 C 
HETATM    2  N   UNL     1     -42.642  56.796 -54.503  1.00  0.00    -0.327 N 
HETATM    3  O   UNL     1     -40.483  57.331 -53.827  1.00  0.00    -0.273 OA
HETATM    4  H   UNL     1     -43.512  56.411 -54.168  1.00  0.00     0.169 HD
ENDROOT
BRANCH   2   5
HETATM    5  C   UNL     1     -42.606  57.074 -55.888  1.00  0.00     0.035 A 
HETATM    6  C   UNL     1     -42.288  58.327 -56.428  1.00  0.00     0.046 A 
HETATM    7  C   UNL     1     -42.280  58.501 -57.831  1.00  0.00     0.030 A 
HETATM    8  C   UNL     1     -42.584  57.415 -58.642  1.00  0.00     0.063 A 
HETATM    9  C   UNL     1     -42.030  59.578 -58.734  1.00  0.00     0.156 A 
HETATM   10  N   UNL     1     -42.489  57.882 -59.923  1.00  0.00    -0.277 N 
HETATM   11  C   UNL     1     -42.904  56.153 -58.140  1.00  0.00     0.034 A 
HETATM   12  H   UNL     1     -42.642  57.361 -60.779  1.00  0.00     0.189 HD
HETATM   13  N   UNL     1     -42.160  59.180 -60.021  1.00  0.00    -0.168 NA
HETATM   14  C   UNL     1     -42.912  56.008 -56.748  1.00  0.00     0.032 A 
BRANCH   9  15
HETATM   15  C   UNL     1     -41.676  60.965 -58.402  1.00  0.00     0.270 C 
HETATM   16  N   UNL     1     -42.671  61.870 -58.657  1.00  0.00    -0.365 N 
HETATM   17  H   UNL     1     -43.547  61.533 -59.038  1.00  0.00     0.159 HD
HETATM   18  H   UNL     1     -42.522  62.845 -58.453  1.00  0.00     0.159 HD
HETATM   19  O   UNL     1     -40.603  61.322 -57.931  1.00  0.00    -0.266 OA
ENDBRANCH   9  15
ENDBRANCH   2   5
BRANCH   1  20
HETATM   20  C   UNL     1     -41.980  56.530 -52.158  1.00  0.00     0.112 C 
BRANCH  20  21
HETATM   21  C   UNL     1     -42.574  55.124 -51.945  1.00  0.00     0.027 C 
BRANCH  21  22
HETATM   22  C   UNL     1     -43.074  54.906 -50.497  1.00  0.00     0.005 C 
HETATM   23  C   UNL     1     -44.395  54.163 -50.342  1.00  0.00     0.006 C 
ENDBRANCH  21  22
BRANCH  21  24
HETATM   24  C   UNL     1     -41.689  53.983 -52.419  1.00  0.00    -0.053 A 
HETATM   25  C   UNL     1     -40.717  53.395 -51.601  1.00  0.00     0.010 A 
HETATM   26  C   UNL     1     -39.897  52.376 -52.092  1.00  0.00     0.037 A 
HETATM   27  C   UNL     1     -40.019  51.934 -53.410  1.00  0.00     0.068 A 
HETATM   28  C   UNL     1     -41.002  52.490 -54.224  1.00  0.00     0.037 A 
HETATM   29  C   UNL     1     -41.831  53.503 -53.731  1.00  0.00     0.010 A 
BRANCH  27  30
HETATM   30  O   UNL     1     -39.143  50.949 -53.775  1.00  0.00    -0.356 OA
HETATM   31  C   UNL     1     -39.705  49.828 -54.448  1.00  0.00     0.210 C 
ENDBRANCH  27  30
ENDBRANCH  21  24
ENDBRANCH  20  21
ENDBRANCH   1  20
TORSDOF 7
ENDMDL
MODEL 9
REMARK VINA RESULT:      -7.4      3.203      4.829
REMARK  7 active torsions:
REMARK  status: ('A' for Active; 'I' for Inactive)
REMARK    1  A    between atoms: C_2  and  C_3 
REMARK    2  A    between atoms: C_3  and  C_4 
REMARK    3  A    between atoms: C_3  and  C_12 
REMARK    4  A    between atoms: C_7  and  O_8 
REMARK    5  A    between atoms: C_12  and  C_13 
REMARK       I    between atoms: C_13  and  N_14 
REMARK    6  A    between atoms: N_14  and  C_15 
REMARK    7  A    between atoms: C_22  and  C_23 
REMARK       I    between atoms: C_23  and  N_24 
ROOT
HETATM    1  C   UNL     1     -41.138  54.339 -55.281  1.00  0.00     0.222 C 
HETATM    2  N   UNL     1     -42.274  55.040 -55.634  1.00  0.00    -0.327 N 
HETATM    3  O   UNL     1     -40.005  54.804 -55.180  1.00  0.00    -0.273 OA
HETATM    4  H   UNL     1     -43.135  54.518 -55.694  1.00  0.00     0.169 HD
ENDROOT
BRANCH   2   5
HETATM    5  C   UNL     1     -42.368  56.397 -56.015  1.00  0.00     0.035 A 
HETATM    6  C   UNL     1     -42.252  57.472 -55.124  1.00  0.00     0.046 A 
HETATM    7  C   UNL     1     -42.364  58.795 -55.607  1.00  0.00     0.030 A 
HETATM    8  C   UNL     1     -42.581  58.996 -56.964  1.00  0.00     0.063 A 
HETATM    9  C   UNL     1     -42.316  60.106 -55.043  1.00  0.00     0.156 A 
HETATM   10  N   UNL     1     -42.635  60.352 -57.126  1.00  0.00    -0.277 N 
HETATM   11  C   UNL     1     -42.701  57.951 -57.881  1.00  0.00     0.034 A 
HETATM   12  H   UNL     1     -42.778  60.862 -57.990  1.00  0.00     0.189 HD
HETATM   13  N   UNL     1     -42.483  61.055 -55.992  1.00  0.00    -0.168 NA
HETATM   14  C   UNL     1     -42.594  56.650 -57.376  1.00  0.00     0.032 A 
BRANCH   9  15
HETATM   15  C   UNL     1     -42.121  60.470 -53.632  1.00  0.00     0.270 C 
HETATM   16  N   UNL     1     -42.935  61.482 -53.201  1.00  0.00    -0.365 N 
HETATM   17  H   UNL     1     -43.591  61.890 -53.856  1.00  0.00     0.159 HD
HETATM   18  H   UNL     1     -42.878  61.794 -52.244  1.00  0.00     0.159 HD
HETATM   19  O   UNL     1     -41.320  59.937 -52.874  1.00  0.00    -0.266 OA
ENDBRANCH   9  15
ENDBRANCH   2   5
BRANCH   1  20
HETATM   20  C   UNL     1     -41.376  52.875 -54.916  1.00  0.00     0.112 C 
BRANCH  20  21
HETATM   21  C   UNL     1     -40.456  52.275 -53.835  1.00  0.00     0.027 C 
BRANCH  21  22
HETATM   22  C   UNL     1     -40.458  50.728 -53.849  1.00  0.00     0.005 C 
HETATM   23  C   UNL     1     -39.272  50.056 -54.529  1.00  0.00     0.006 C 
ENDBRANCH  21  22
BRANCH  21  24
HETATM   24  C   UNL     1     -40.672  52.831 -52.437  1.00  0.00    -0.053 A 
HETATM   25  C   UNL     1     -39.808  52.549 -51.373  1.00  0.00     0.010 A 
HETATM   26  C   UNL     1     -40.070  53.049 -50.094  1.00  0.00     0.037 A 
HETATM   27  C   UNL     1     -41.202  53.825 -49.849  1.00  0.00     0.068 A 
HETATM   28  C   UNL     1     -42.054  54.138 -50.906  1.00  0.00     0.037 A 
HETATM   29  C   UNL     1     -41.788  53.648 -52.189  1.00  0.00     0.010 A 
BRANCH  27  30
HETATM   30  O   UNL     1     -41.356  54.234 -48.553  1.00  0.00    -0.356 OA
HETATM   31  C   UNL     1     -40.250  54.007 -47.688  1.00  0.00     0.210 C 
ENDBRANCH  27  30
ENDBRANCH  21  24
ENDBRANCH  20  21
ENDBRANCH   1  20
TORSDOF 7
ENDMDL
MODEL 10
REMARK VINA RESULT:      -7.4      3.185      7.875
REMARK  7 active torsions:
REMARK  status: ('A' for Active; 'I' for Inactive)
REMARK    1  A    between atoms: C_2  and  C_3 
REMARK    2  A    between atoms: C_3  and  C_4 
REMARK    3  A    between atoms: C_3  and  C_12 
REMARK    4  A    between atoms: C_7  and  O_8 
REMARK    5  A    between atoms: C_12  and  C_13 
REMARK       I    between atoms: C_13  and  N_14 
REMARK    6  A    between atoms: N_14  and  C_15 
REMARK    7  A    between atoms: C_22  and  C_23 
REMARK       I    between atoms: C_23  and  N_24 
ROOT
HETATM    1  C   UNL     1     -42.535  55.753 -55.977  1.00  0.00     0.222 C 
HETATM    2  N   UNL     1     -41.270  55.414 -55.539  1.00  0.00    -0.327 N 
HETATM    3  O   UNL     1     -43.594  55.438 -55.440  1.00  0.00    -0.273 OA
HETATM    4  H   UNL     1     -40.491  55.730 -56.095  1.00  0.00     0.169 HD
ENDROOT
BRANCH   2   5
HETATM    5  C   UNL     1     -40.928  54.592 -54.442  1.00  0.00     0.035 A 
HETATM    6  C   UNL     1     -40.611  53.231 -54.549  1.00  0.00     0.046 A 
HETATM    7  C   UNL     1     -40.283  52.496 -53.388  1.00  0.00     0.030 A 
HETATM    8  C   UNL     1     -40.276  53.149 -52.162  1.00  0.00     0.063 A 
HETATM    9  C   UNL     1     -39.927  51.146 -53.089  1.00  0.00     0.156 A 
HETATM   10  N   UNL     1     -39.920  52.199 -51.246  1.00  0.00    -0.277 N 
HETATM   11  C   UNL     1     -40.584  54.502 -52.016  1.00  0.00     0.034 A 
HETATM   12  H   UNL     1     -39.811  52.320 -50.246  1.00  0.00     0.189 HD
HETATM   13  N   UNL     1     -39.705  50.979 -51.765  1.00  0.00    -0.168 NA
HETATM   14  C   UNL     1     -40.914  55.206 -53.180  1.00  0.00     0.032 A 
BRANCH   9  15
HETATM   15  C   UNL     1     -39.799  50.023 -54.028  1.00  0.00     0.270 C 
HETATM   16  N   UNL     1     -40.944  49.748 -54.727  1.00  0.00    -0.365 N 
HETATM   17  H   UNL     1     -41.764  50.318 -54.558  1.00  0.00     0.159 HD
HETATM   18  H   UNL     1     -40.949  48.998 -55.400  1.00  0.00     0.159 HD
HETATM   19  O   UNL     1     -38.779  49.368 -54.205  1.00  0.00    -0.266 OA
ENDBRANCH   9  15
ENDBRANCH   2   5
BRANCH   1  20
HETATM   20  C   UNL     1     -42.564  56.669 -57.199  1.00  0.00     0.112 C 
BRANCH  20  21
HETATM   21  C   UNL     1     -43.483  56.242 -58.361  1.00  0.00     0.027 C 
BRANCH  21  22
HETATM   22  C   UNL     1     -42.710  56.056 -59.688  1.00  0.00     0.005 C 
HETATM   23  C   UNL     1     -41.940  57.267 -60.197  1.00  0.00     0.006 C 
ENDBRANCH  21  22
BRANCH  21  24
HETATM   24  C   UNL     1     -44.721  57.105 -58.540  1.00  0.00    -0.053 A 
HETATM   25  C   UNL     1     -45.667  56.865 -59.543  1.00  0.00     0.010 A 
HETATM   26  C   UNL     1     -46.770  57.710 -59.697  1.00  0.00     0.037 A 
HETATM   27  C   UNL     1     -46.944  58.815 -58.865  1.00  0.00     0.068 A 
HETATM   28  C   UNL     1     -46.026  59.048 -57.843  1.00  0.00     0.037 A 
HETATM   29  C   UNL     1     -44.927  58.197 -57.681  1.00  0.00     0.010 A 
BRANCH  27  30
HETATM   30  O   UNL     1     -48.049  59.575 -59.132  1.00  0.00    -0.356 OA
HETATM   31  C   UNL     1     -47.817  60.959 -59.369  1.00  0.00     0.210 C 
ENDBRANCH  27  30
ENDBRANCH  21  24
ENDBRANCH  20  21
ENDBRANCH   1  20
TORSDOF 7
ENDMDL
