MODEL 1
REMARK VINA RESULT:      -8.3      0.000      0.000
REMARK  2 active torsions:
REMARK  status: ('A' for Active; 'I' for Inactive)
REMARK    1  A    between atoms: O_2  and  C_3 
REMARK    2  A    between atoms: C_5  and  N_6 
REMARK       I    between atoms: N_6  and  C_7 
REMARK       I    between atoms: C_7  and  N_8 
ROOT
HETATM    1  N   UNL     1     -41.953  56.243 -56.813  1.00  0.00    -0.307 N 
HETATM    2  C   UNL     1     -42.020  56.589 -55.483  1.00  0.00     0.323 C 
HETATM    3  N   UNL     1     -41.059  55.985 -54.679  1.00  0.00    -0.328 N 
HETATM    4  C   UNL     1     -40.223  54.834 -55.067  1.00  0.00     0.185 C 
HETATM    5  C   UNL     1     -40.206  53.853 -53.945  1.00  0.00     0.035 A 
HETATM    6  C   UNL     1     -40.722  54.033 -52.677  1.00  0.00    -0.020 A 
HETATM    7  C   UNL     1     -41.393  55.308 -52.294  1.00  0.00     0.061 C 
HETATM    8  C   UNL     1     -40.955  56.419 -53.269  1.00  0.00     0.132 C 
HETATM    9  N   UNL     1     -39.661  52.600 -54.006  1.00  0.00    -0.357 N 
HETATM   10  H   UNL     1     -39.210  52.188 -54.811  1.00  0.00     0.166 HD
HETATM   11  C   UNL     1     -39.822  51.961 -52.795  1.00  0.00     0.043 A 
HETATM   12  C   UNL     1     -40.492  52.841 -51.940  1.00  0.00    -0.001 A 
HETATM   13  C   UNL     1     -39.433  50.675 -52.398  1.00  0.00     0.030 A 
HETATM   14  C   UNL     1     -39.739  50.280 -51.093  1.00  0.00     0.002 A 
HETATM   15  C   UNL     1     -40.408  51.135 -50.220  1.00  0.00     0.001 A 
HETATM   16  C   UNL     1     -40.790  52.417 -50.630  1.00  0.00     0.014 A 
HETATM   17  O   UNL     1     -42.840  57.377 -55.020  1.00  0.00    -0.247 OA
HETATM   18  H   UNL     1     -41.070  55.882 -57.141  1.00  0.00     0.170 HD
ENDROOT
BRANCH   1  19
HETATM   19  C   UNL     1     -42.872  56.546 -57.848  1.00  0.00     0.060 A 
HETATM   20  C   UNL     1     -43.773  55.612 -58.374  1.00  0.00     0.068 A 
HETATM   21  C   UNL     1     -44.652  55.967 -59.402  1.00  0.00     0.070 A 
HETATM   22  C   UNL     1     -44.614  57.260 -59.928  1.00  0.00     0.038 A 
HETATM   23  C   UNL     1     -43.717  58.200 -59.428  1.00  0.00     0.029 A 
HETATM   24  C   UNL     1     -42.853  57.845 -58.393  1.00  0.00     0.061 A 
HETATM   25 CL   UNL     1     -41.749  59.043 -57.801  1.00  0.00    -0.082 Cl
BRANCH  21  26
HETATM   26  O   UNL     1     -45.581  55.146 -59.983  1.00  0.00    -0.356 OA
HETATM   27  C   UNL     1     -46.664  55.779 -60.656  1.00  0.00     0.210 C 
ENDBRANCH  21  26
ENDBRANCH   1  19
TORSDOF 2
ENDMDL
MODEL 2
REMARK VINA RESULT:      -8.2      2.997      8.576
REMARK  2 active torsions:
REMARK  status: ('A' for Active; 'I' for Inactive)
REMARK    1  A    between atoms: O_2  and  C_3 
REMARK    2  A    between atoms: C_5  and  N_6 
REMARK       I    between atoms: N_6  and  C_7 
REMARK       I    between atoms: C_7  and  N_8 
ROOT
HETATM    1  N   UNL     1     -42.483  54.579 -53.484  1.00  0.00    -0.307 N 
HETATM    2  C   UNL     1     -43.163  55.773 -53.542  1.00  0.00     0.323 C 
HETATM    3  N   UNL     1     -43.649  56.102 -54.803  1.00  0.00    -0.328 N 
HETATM    4  C   UNL     1     -43.246  55.458 -56.066  1.00  0.00     0.185 C 
HETATM    5  C   UNL     1     -42.995  56.516 -57.086  1.00  0.00     0.035 A 
HETATM    6  C   UNL     1     -43.255  57.867 -56.963  1.00  0.00    -0.020 A 
HETATM    7  C   UNL     1     -43.846  58.424 -55.712  1.00  0.00     0.061 C 
HETATM    8  C   UNL     1     -44.527  57.285 -54.926  1.00  0.00     0.132 C 
HETATM    9  N   UNL     1     -42.458  56.300 -58.325  1.00  0.00    -0.357 N 
HETATM   10  H   UNL     1     -42.166  55.408 -58.698  1.00  0.00     0.166 HD
HETATM   11  C   UNL     1     -42.361  57.495 -59.007  1.00  0.00     0.043 A 
HETATM   12  C   UNL     1     -42.853  58.499 -58.168  1.00  0.00    -0.001 A 
HETATM   13  C   UNL     1     -41.871  57.759 -60.292  1.00  0.00     0.030 A 
HETATM   14  C   UNL     1     -41.884  59.087 -60.730  1.00  0.00     0.002 A 
HETATM   15  C   UNL     1     -42.366  60.108 -59.914  1.00  0.00     0.001 A 
HETATM   16  C   UNL     1     -42.854  59.829 -58.633  1.00  0.00     0.014 A 
HETATM   17  O   UNL     1     -43.355  56.501 -52.571  1.00  0.00    -0.247 OA
HETATM   18  H   UNL     1     -42.672  53.916 -54.220  1.00  0.00     0.170 HD
ENDROOT
BRANCH   1  19
HETATM   19  C   UNL     1     -41.733  54.045 -52.406  1.00  0.00     0.060 A 
HETATM   20  C   UNL     1     -42.012  54.324 -51.063  1.00  0.00     0.068 A 
HETATM   21  C   UNL     1     -41.232  53.772 -50.041  1.00  0.00     0.070 A 
HETATM   22  C   UNL     1     -40.147  52.956 -50.364  1.00  0.00     0.038 A 
HETATM   23  C   UNL     1     -39.844  52.676 -51.695  1.00  0.00     0.029 A 
HETATM   24  C   UNL     1     -40.635  53.217 -52.709  1.00  0.00     0.061 A 
HETATM   25 CL   UNL     1     -40.222  52.848 -54.352  1.00  0.00    -0.082 Cl
BRANCH  21  26
HETATM   26  O   UNL     1     -41.417  53.962 -48.698  1.00  0.00    -0.356 OA
HETATM   27  C   UNL     1     -40.248  53.982 -47.886  1.00  0.00     0.210 C 
ENDBRANCH  21  26
ENDBRANCH   1  19
TORSDOF 2
ENDMDL
MODEL 3
REMARK VINA RESULT:      -7.9      4.522      8.310
REMARK  2 active torsions:
REMARK  status: ('A' for Active; 'I' for Inactive)
REMARK    1  A    between atoms: O_2  and  C_3 
REMARK    2  A    between atoms: C_5  and  N_6 
REMARK       I    between atoms: N_6  and  C_7 
REMARK       I    between atoms: C_7  and  N_8 
ROOT
HETATM    1  N   UNL     1     -41.181  54.926 -52.812  1.00  0.00    -0.307 N 
HETATM    2  C   UNL     1     -42.489  55.260 -53.076  1.00  0.00     0.323 C 
HETATM    3  N   UNL     1     -42.712  56.620 -53.270  1.00  0.00    -0.328 N 
HETATM    4  C   UNL     1     -41.765  57.696 -52.926  1.00  0.00     0.185 C 
HETATM    5  C   UNL     1     -42.508  58.785 -52.231  1.00  0.00     0.035 A 
HETATM    6  C   UNL     1     -43.876  58.889 -52.075  1.00  0.00    -0.020 A 
HETATM    7  C   UNL     1     -44.792  57.846 -52.621  1.00  0.00     0.061 C 
HETATM    8  C   UNL     1     -44.054  57.051 -53.716  1.00  0.00     0.132 C 
HETATM    9  N   UNL     1     -41.931  59.871 -51.632  1.00  0.00    -0.357 N 
HETATM   10  H   UNL     1     -40.940  60.066 -51.584  1.00  0.00     0.166 HD
HETATM   11  C   UNL     1     -42.907  60.675 -51.083  1.00  0.00     0.043 A 
HETATM   12  C   UNL     1     -44.143  60.077 -51.345  1.00  0.00    -0.001 A 
HETATM   13  C   UNL     1     -42.787  61.877 -50.374  1.00  0.00     0.030 A 
HETATM   14  C   UNL     1     -43.963  62.481 -49.919  1.00  0.00     0.002 A 
HETATM   15  C   UNL     1     -45.207  61.906 -50.163  1.00  0.00     0.001 A 
HETATM   16  C   UNL     1     -45.312  60.705 -50.875  1.00  0.00     0.014 A 
HETATM   17  O   UNL     1     -43.402  54.443 -53.158  1.00  0.00    -0.247 OA
HETATM   18  H   UNL     1     -40.479  55.590 -53.101  1.00  0.00     0.170 HD
ENDROOT
BRANCH   1  19
HETATM   19  C   UNL     1     -40.657  53.673 -52.410  1.00  0.00     0.060 A 
HETATM   20  C   UNL     1     -40.178  52.715 -53.313  1.00  0.00     0.068 A 
HETATM   21  C   UNL     1     -39.678  51.490 -52.857  1.00  0.00     0.070 A 
HETATM   22  C   UNL     1     -39.680  51.209 -51.489  1.00  0.00     0.038 A 
HETATM   23  C   UNL     1     -40.163  52.143 -50.576  1.00  0.00     0.029 A 
HETATM   24  C   UNL     1     -40.647  53.368 -51.035  1.00  0.00     0.061 A 
HETATM   25 CL   UNL     1     -41.243  54.501 -49.867  1.00  0.00    -0.082 Cl
BRANCH  21  26
HETATM   26  O   UNL     1     -39.174  50.488 -53.640  1.00  0.00    -0.356 OA
HETATM   27  C   UNL     1     -40.055  49.926 -54.608  1.00  0.00     0.210 C 
ENDBRANCH  21  26
ENDBRANCH   1  19
TORSDOF 2
ENDMDL
MODEL 4
REMARK VINA RESULT:      -7.9      2.600      4.054
REMARK  2 active torsions:
REMARK  status: ('A' for Active; 'I' for Inactive)
REMARK    1  A    between atoms: O_2  and  C_3 
REMARK    2  A    between atoms: C_5  and  N_6 
REMARK       I    between atoms: N_6  and  C_7 
REMARK       I    between atoms: C_7  and  N_8 
ROOT
HETATM    1  N   UNL     1     -43.333  57.676 -56.313  1.00  0.00    -0.307 N 
HETATM    2  C   UNL     1     -43.043  56.334 -56.375  1.00  0.00     0.323 C 
HETATM    3  N   UNL     1     -43.324  55.626 -55.210  1.00  0.00    -0.328 N 
HETATM    4  C   UNL     1     -43.600  56.228 -53.893  1.00  0.00     0.185 C 
HETATM    5  C   UNL     1     -42.824  55.490 -52.856  1.00  0.00     0.035 A 
HETATM    6  C   UNL     1     -42.100  54.327 -53.031  1.00  0.00    -0.020 A 
HETATM    7  C   UNL     1     -42.021  53.665 -54.366  1.00  0.00     0.061 C 
HETATM    8  C   UNL     1     -43.194  54.154 -55.239  1.00  0.00     0.132 C 
HETATM    9  N   UNL     1     -42.713  55.863 -51.545  1.00  0.00    -0.357 N 
HETATM   10  H   UNL     1     -43.136  56.677 -51.122  1.00  0.00     0.166 HD
HETATM   11  C   UNL     1     -41.920  54.960 -50.868  1.00  0.00     0.043 A 
HETATM   12  C   UNL     1     -41.518  53.984 -51.783  1.00  0.00    -0.001 A 
HETATM   13  C   UNL     1     -41.529  54.941 -49.523  1.00  0.00     0.030 A 
HETATM   14  C   UNL     1     -40.701  53.894 -49.105  1.00  0.00     0.002 A 
HETATM   15  C   UNL     1     -40.283  52.909 -49.996  1.00  0.00     0.001 A 
HETATM   16  C   UNL     1     -40.683  52.941 -51.336  1.00  0.00     0.014 A 
HETATM   17  O   UNL     1     -42.589  55.776 -57.370  1.00  0.00    -0.247 OA
HETATM   18  H   UNL     1     -43.999  57.962 -55.610  1.00  0.00     0.170 HD
ENDROOT
BRANCH   1  19
HETATM   19  C   UNL     1     -43.017  58.690 -57.251  1.00  0.00     0.060 A 
HETATM   20  C   UNL     1     -41.912  59.541 -57.120  1.00  0.00     0.068 A 
HETATM   21  C   UNL     1     -41.654  60.529 -58.076  1.00  0.00     0.070 A 
HETATM   22  C   UNL     1     -42.520  60.686 -59.159  1.00  0.00     0.038 A 
HETATM   23  C   UNL     1     -43.632  59.858 -59.301  1.00  0.00     0.029 A 
HETATM   24  C   UNL     1     -43.876  58.865 -58.353  1.00  0.00     0.061 A 
HETATM   25 CL   UNL     1     -45.272  57.859 -58.564  1.00  0.00    -0.082 Cl
BRANCH  21  26
HETATM   26  O   UNL     1     -40.603  61.405 -58.060  1.00  0.00    -0.356 OA
HETATM   27  C   UNL     1     -40.543  62.355 -59.119  1.00  0.00     0.210 C 
ENDBRANCH  21  26
ENDBRANCH   1  19
TORSDOF 2
ENDMDL
MODEL 5
REMARK VINA RESULT:      -7.8      3.015      8.358
REMARK  2 active torsions:
REMARK  status: ('A' for Active; 'I' for Inactive)
REMARK    1  A    between atoms: O_2  and  C_3 
REMARK    2  A    between atoms: C_5  and  N_6 
REMARK       I    between atoms: N_6  and  C_7 
REMARK       I    between atoms: C_7  and  N_8 
ROOT
HETATM    1  N   UNL     1     -42.124  54.949 -53.336  1.00  0.00    -0.307 N 
HETATM    2  C   UNL     1     -41.831  56.290 -53.418  1.00  0.00     0.323 C 
HETATM    3  N   UNL     1     -42.719  57.032 -54.190  1.00  0.00    -0.328 N 
HETATM    4  C   UNL     1     -43.712  56.470 -55.123  1.00  0.00     0.185 C 
HETATM    5  C   UNL     1     -43.662  57.240 -56.398  1.00  0.00     0.035 A 
HETATM    6  C   UNL     1     -42.952  58.400 -56.641  1.00  0.00    -0.020 A 
HETATM    7  C   UNL     1     -42.110  59.021 -55.578  1.00  0.00     0.061 C 
HETATM    8  C   UNL     1     -42.573  58.503 -54.202  1.00  0.00     0.132 C 
HETATM    9  N   UNL     1     -44.331  56.908 -57.543  1.00  0.00    -0.357 N 
HETATM   10  H   UNL     1     -44.933  56.105 -57.667  1.00  0.00     0.166 HD
HETATM   11  C   UNL     1     -44.059  57.832 -58.529  1.00  0.00     0.043 A 
HETATM   12  C   UNL     1     -43.188  58.781 -57.987  1.00  0.00    -0.001 A 
HETATM   13  C   UNL     1     -44.511  57.893 -59.854  1.00  0.00     0.030 A 
HETATM   14  C   UNL     1     -44.059  58.954 -60.644  1.00  0.00     0.002 A 
HETATM   15  C   UNL     1     -43.189  59.913 -60.131  1.00  0.00     0.001 A 
HETATM   16  C   UNL     1     -42.746  59.840 -58.805  1.00  0.00     0.014 A 
HETATM   17  O   UNL     1     -40.878  56.819 -52.850  1.00  0.00    -0.247 OA
HETATM   18  H   UNL     1     -43.077  54.683 -53.535  1.00  0.00     0.170 HD
ENDROOT
BRANCH   1  19
HETATM   19  C   UNL     1     -41.341  53.908 -52.778  1.00  0.00     0.060 A 
HETATM   20  C   UNL     1     -40.610  52.998 -53.551  1.00  0.00     0.068 A 
HETATM   21  C   UNL     1     -39.860  51.985 -52.943  1.00  0.00     0.070 A 
HETATM   22  C   UNL     1     -39.860  51.865 -51.552  1.00  0.00     0.038 A 
HETATM   23  C   UNL     1     -40.591  52.753 -50.766  1.00  0.00     0.029 A 
HETATM   24  C   UNL     1     -41.325  53.769 -51.377  1.00  0.00     0.061 A 
HETATM   25 CL   UNL     1     -42.224  54.851 -50.363  1.00  0.00    -0.082 Cl
BRANCH  21  26
HETATM   26  O   UNL     1     -39.099  51.051 -53.591  1.00  0.00    -0.356 OA
HETATM   27  C   UNL     1     -39.799  50.033 -54.299  1.00  0.00     0.210 C 
ENDBRANCH  21  26
ENDBRANCH   1  19
TORSDOF 2
ENDMDL
MODEL 6
REMARK VINA RESULT:      -7.8      4.437      8.293
REMARK  2 active torsions:
REMARK  status: ('A' for Active; 'I' for Inactive)
REMARK    1  A    between atoms: O_2  and  C_3 
REMARK    2  A    between atoms: C_5  and  N_6 
REMARK       I    between atoms: N_6  and  C_7 
REMARK       I    between atoms: C_7  and  N_8 
ROOT
HETATM    1  N   UNL     1     -41.282  55.312 -53.131  1.00  0.00    -0.307 N 
HETATM    2  C   UNL     1     -42.544  55.684 -53.527  1.00  0.00     0.323 C 
HETATM    3  N   UNL     1     -42.789  57.053 -53.471  1.00  0.00    -0.328 N 
HETATM    4  C   UNL     1     -41.951  58.040 -52.766  1.00  0.00     0.185 C 
HETATM    5  C   UNL     1     -42.837  58.955 -51.990  1.00  0.00     0.035 A 
HETATM    6  C   UNL     1     -44.216  59.014 -52.038  1.00  0.00    -0.020 A 
HETATM    7  C   UNL     1     -44.993  58.102 -52.926  1.00  0.00     0.061 C 
HETATM    8  C   UNL     1     -44.062  57.558 -54.028  1.00  0.00     0.132 C 
HETATM    9  N   UNL     1     -42.404  59.895 -51.096  1.00  0.00    -0.357 N 
HETATM   10  H   UNL     1     -41.442  60.082 -50.851  1.00  0.00     0.166 HD
HETATM   11  C   UNL     1     -43.485  60.560 -50.557  1.00  0.00     0.043 A 
HETATM   12  C   UNL     1     -44.640  60.020 -51.132  1.00  0.00    -0.001 A 
HETATM   13  C   UNL     1     -43.526  61.587 -49.606  1.00  0.00     0.030 A 
HETATM   14  C   UNL     1     -44.781  62.075 -49.232  1.00  0.00     0.002 A 
HETATM   15  C   UNL     1     -45.949  61.554 -49.786  1.00  0.00     0.001 A 
HETATM   16  C   UNL     1     -45.893  60.529 -50.736  1.00  0.00     0.014 A 
HETATM   17  O   UNL     1     -43.400  54.896 -53.921  1.00  0.00    -0.247 OA
HETATM   18  H   UNL     1     -40.570  56.026 -53.160  1.00  0.00     0.170 HD
ENDROOT
BRANCH   1  19
HETATM   19  C   UNL     1     -40.776  54.005 -52.916  1.00  0.00     0.060 A 
HETATM   20  C   UNL     1     -40.739  53.394 -51.657  1.00  0.00     0.068 A 
HETATM   21  C   UNL     1     -40.221  52.103 -51.504  1.00  0.00     0.070 A 
HETATM   22  C   UNL     1     -39.712  51.427 -52.615  1.00  0.00     0.038 A 
HETATM   23  C   UNL     1     -39.728  52.023 -53.874  1.00  0.00     0.029 A 
HETATM   24  C   UNL     1     -40.259  53.304 -54.022  1.00  0.00     0.061 A 
HETATM   25 CL   UNL     1     -40.257  54.011 -55.605  1.00  0.00    -0.082 Cl
BRANCH  21  26
HETATM   26  O   UNL     1     -40.146  51.402 -50.331  1.00  0.00    -0.356 OA
HETATM   27  C   UNL     1     -39.886  50.006 -50.434  1.00  0.00     0.210 C 
ENDBRANCH  21  26
ENDBRANCH   1  19
TORSDOF 2
ENDMDL
MODEL 7
REMARK VINA RESULT:      -7.7      3.147      8.576
REMARK  2 active torsions:
REMARK  status: ('A' for Active; 'I' for Inactive)
REMARK    1  A    between atoms: O_2  and  C_3 
REMARK    2  A    between atoms: C_5  and  N_6 
REMARK       I    between atoms: N_6  and  C_7 
REMARK       I    between atoms: C_7  and  N_8 
ROOT
HETATM    1  N   UNL     1     -41.990  55.375 -53.560  1.00  0.00    -0.307 N 
HETATM    2  C   UNL     1     -41.936  56.724 -53.299  1.00  0.00     0.323 C 
HETATM    3  N   UNL     1     -42.590  57.521 -54.233  1.00  0.00    -0.328 N 
HETATM    4  C   UNL     1     -43.042  57.078 -55.564  1.00  0.00     0.185 C 
HETATM    5  C   UNL     1     -42.660  58.111 -56.569  1.00  0.00     0.035 A 
HETATM    6  C   UNL     1     -42.133  59.362 -56.315  1.00  0.00    -0.020 A 
HETATM    7  C   UNL     1     -41.877  59.818 -54.919  1.00  0.00     0.061 C 
HETATM    8  C   UNL     1     -42.719  58.966 -53.949  1.00  0.00     0.132 C 
HETATM    9  N   UNL     1     -42.780  57.970 -57.924  1.00  0.00    -0.357 N 
HETATM   10  H   UNL     1     -43.136  57.156 -58.407  1.00  0.00     0.166 HD
HETATM   11  C   UNL     1     -42.331  59.111 -58.554  1.00  0.00     0.043 A 
HETATM   12  C   UNL     1     -41.914  60.003 -57.562  1.00  0.00    -0.001 A 
HETATM   13  C   UNL     1     -42.259  59.414 -59.920  1.00  0.00     0.030 A 
HETATM   14  C   UNL     1     -41.744  60.663 -60.279  1.00  0.00     0.002 A 
HETATM   15  C   UNL     1     -41.318  61.571 -59.312  1.00  0.00     0.001 A 
HETATM   16  C   UNL     1     -41.398  61.255 -57.952  1.00  0.00     0.014 A 
HETATM   17  O   UNL     1     -41.378  57.211 -52.319  1.00  0.00    -0.247 OA
HETATM   18  H   UNL     1     -42.734  55.062 -54.165  1.00  0.00     0.170 HD
ENDROOT
BRANCH   1  19
HETATM   19  C   UNL     1     -41.298  54.324 -52.908  1.00  0.00     0.060 A 
HETATM   20  C   UNL     1     -41.347  54.114 -51.524  1.00  0.00     0.068 A 
HETATM   21  C   UNL     1     -40.635  53.062 -50.936  1.00  0.00     0.070 A 
HETATM   22  C   UNL     1     -39.848  52.229 -51.733  1.00  0.00     0.038 A 
HETATM   23  C   UNL     1     -39.777  52.429 -53.110  1.00  0.00     0.029 A 
HETATM   24  C   UNL     1     -40.499  53.470 -53.693  1.00  0.00     0.061 A 
HETATM   25 CL   UNL     1     -40.380  53.687 -55.408  1.00  0.00    -0.082 Cl
BRANCH  21  26
HETATM   26  O   UNL     1     -40.617  52.753 -49.603  1.00  0.00    -0.356 OA
HETATM   27  C   UNL     1     -40.612  53.847 -48.691  1.00  0.00     0.210 C 
ENDBRANCH  21  26
ENDBRANCH   1  19
TORSDOF 2
ENDMDL
MODEL 8
REMARK VINA RESULT:      -7.5      2.887      8.654
REMARK  2 active torsions:
REMARK  status: ('A' for Active; 'I' for Inactive)
REMARK    1  A    between atoms: O_2  and  C_3 
REMARK    2  A    between atoms: C_5  and  N_6 
REMARK       I    between atoms: N_6  and  C_7 
REMARK       I    between atoms: C_7  and  N_8 
ROOT
HETATM    1  N   UNL     1     -42.231  55.623 -53.059  1.00  0.00    -0.307 N 
HETATM    2  C   UNL     1     -41.817  56.899 -53.360  1.00  0.00     0.323 C 
HETATM    3  N   UNL     1     -42.730  57.647 -54.096  1.00  0.00    -0.328 N 
HETATM    4  C   UNL     1     -43.906  57.102 -54.800  1.00  0.00     0.185 C 
HETATM    5  C   UNL     1     -43.971  57.704 -56.162  1.00  0.00     0.035 A 
HETATM    6  C   UNL     1     -43.189  58.731 -56.655  1.00  0.00    -0.020 A 
HETATM    7  C   UNL     1     -42.137  59.367 -55.812  1.00  0.00     0.061 C 
HETATM    8  C   UNL     1     -42.437  59.077 -54.328  1.00  0.00     0.132 C 
HETATM    9  N   UNL     1     -44.837  57.321 -57.149  1.00  0.00    -0.357 N 
HETATM   10  H   UNL     1     -45.530  56.589 -57.080  1.00  0.00     0.166 HD
HETATM   11  C   UNL     1     -44.623  58.082 -58.280  1.00  0.00     0.043 A 
HETATM   12  C   UNL     1     -43.586  58.976 -57.996  1.00  0.00    -0.001 A 
HETATM   13  C   UNL     1     -45.262  58.040 -59.525  1.00  0.00     0.030 A 
HETATM   14  C   UNL     1     -44.828  58.936 -60.506  1.00  0.00     0.002 A 
HETATM   15  C   UNL     1     -43.796  59.836 -60.252  1.00  0.00     0.001 A 
HETATM   16  C   UNL     1     -43.167  59.868 -59.002  1.00  0.00     0.014 A 
HETATM   17  O   UNL     1     -40.740  57.372 -53.006  1.00  0.00    -0.247 OA
HETATM   18  H   UNL     1     -43.225  55.454 -53.087  1.00  0.00     0.170 HD
ENDROOT
BRANCH   1  19
HETATM   19  C   UNL     1     -41.484  54.569 -52.477  1.00  0.00     0.060 A 
HETATM   20  C   UNL     1     -41.357  54.390 -51.094  1.00  0.00     0.068 A 
HETATM   21  C   UNL     1     -40.599  53.333 -50.577  1.00  0.00     0.070 A 
HETATM   22  C   UNL     1     -39.941  52.464 -51.448  1.00  0.00     0.038 A 
HETATM   23  C   UNL     1     -40.044  52.633 -52.827  1.00  0.00     0.029 A 
HETATM   24  C   UNL     1     -40.813  53.679 -53.337  1.00  0.00     0.061 A 
HETATM   25 CL   UNL     1     -40.912  53.856 -55.058  1.00  0.00    -0.082 Cl
BRANCH  21  26
HETATM   26  O   UNL     1     -40.415  53.052 -49.250  1.00  0.00    -0.356 OA
HETATM   27  C   UNL     1     -40.567  54.135 -48.338  1.00  0.00     0.210 C 
ENDBRANCH  21  26
ENDBRANCH   1  19
TORSDOF 2
ENDMDL
MODEL 9
REMARK VINA RESULT:      -7.4     14.840     16.641
REMARK  2 active torsions:
REMARK  status: ('A' for Active; 'I' for Inactive)
REMARK    1  A    between atoms: O_2  and  C_3 
REMARK    2  A    between atoms: C_5  and  N_6 
REMARK       I    between atoms: N_6  and  C_7 
REMARK       I    between atoms: C_7  and  N_8 
ROOT
HETATM    1  N   UNL     1     -36.150  40.152 -58.320  1.00  0.00    -0.307 N 
HETATM    2  C   UNL     1     -36.743  40.874 -57.312  1.00  0.00     0.323 C 
HETATM    3  N   UNL     1     -35.855  41.440 -56.403  1.00  0.00    -0.328 N 
HETATM    4  C   UNL     1     -34.430  41.084 -56.271  1.00  0.00     0.185 C 
HETATM    5  C   UNL     1     -34.106  40.926 -54.825  1.00  0.00     0.035 A 
HETATM    6  C   UNL     1     -34.924  41.225 -53.753  1.00  0.00    -0.020 A 
HETATM    7  C   UNL     1     -36.299  41.765 -53.964  1.00  0.00     0.061 C 
HETATM    8  C   UNL     1     -36.393  42.363 -55.382  1.00  0.00     0.132 C 
HETATM    9  N   UNL     1     -32.922  40.450 -54.332  1.00  0.00    -0.357 N 
HETATM   10  H   UNL     1     -32.130  40.148 -54.882  1.00  0.00     0.166 HD
HETATM   11  C   UNL     1     -32.964  40.431 -52.954  1.00  0.00     0.043 A 
HETATM   12  C   UNL     1     -34.217  40.911 -52.564  1.00  0.00    -0.001 A 
HETATM   13  C   UNL     1     -31.992  40.021 -52.032  1.00  0.00     0.030 A 
HETATM   14  C   UNL     1     -32.313  40.104 -50.674  1.00  0.00     0.002 A 
HETATM   15  C   UNL     1     -33.555  40.576 -50.256  1.00  0.00     0.001 A 
HETATM   16  C   UNL     1     -34.515  40.983 -51.189  1.00  0.00     0.014 A 
HETATM   17  O   UNL     1     -37.956  41.038 -57.208  1.00  0.00    -0.247 OA
HETATM   18  H   UNL     1     -35.182  40.358 -58.513  1.00  0.00     0.170 HD
ENDROOT
BRANCH   1  19
HETATM   19  C   UNL     1     -36.767  39.326 -59.292  1.00  0.00     0.060 A 
HETATM   20  C   UNL     1     -36.868  39.677 -60.645  1.00  0.00     0.068 A 
HETATM   21  C   UNL     1     -37.496  38.823 -61.559  1.00  0.00     0.070 A 
HETATM   22  C   UNL     1     -38.050  37.622 -61.114  1.00  0.00     0.038 A 
HETATM   23  C   UNL     1     -37.971  37.261 -59.771  1.00  0.00     0.029 A 
HETATM   24  C   UNL     1     -37.332  38.108 -58.867  1.00  0.00     0.061 A 
HETATM   25 CL   UNL     1     -37.258  37.624 -57.205  1.00  0.00    -0.082 Cl
BRANCH  21  26
HETATM   26  O   UNL     1     -37.642  39.053 -62.900  1.00  0.00    -0.356 OA
HETATM   27  C   UNL     1     -36.942  38.179 -63.780  1.00  0.00     0.210 C 
ENDBRANCH  21  26
ENDBRANCH   1  19
TORSDOF 2
ENDMDL
MODEL 10
REMARK VINA RESULT:      -7.4     14.693     16.194
REMARK  2 active torsions:
REMARK  status: ('A' for Active; 'I' for Inactive)
REMARK    1  A    between atoms: O_2  and  C_3 
REMARK    2  A    between atoms: C_5  and  N_6 
REMARK       I    between atoms: N_6  and  C_7 
REMARK       I    between atoms: C_7  and  N_8 
ROOT
HETATM    1  N   UNL     1     -36.807  40.726 -56.695  1.00  0.00    -0.307 N 
HETATM    2  C   UNL     1     -37.341  40.991 -55.456  1.00  0.00     0.323 C 
HETATM    3  N   UNL     1     -36.434  41.496 -54.530  1.00  0.00    -0.328 N 
HETATM    4  C   UNL     1     -34.967  41.475 -54.676  1.00  0.00     0.185 C 
HETATM    5  C   UNL     1     -34.363  41.025 -53.390  1.00  0.00     0.035 A 
HETATM    6  C   UNL     1     -35.017  40.823 -52.190  1.00  0.00    -0.020 A 
HETATM    7  C   UNL     1     -36.486  41.049 -52.070  1.00  0.00     0.061 C 
HETATM    8  C   UNL     1     -36.952  41.958 -53.225  1.00  0.00     0.132 C 
HETATM    9  N   UNL     1     -33.038  40.739 -53.202  1.00  0.00    -0.357 N 
HETATM   10  H   UNL     1     -32.314  40.794 -53.905  1.00  0.00     0.166 HD
HETATM   11  C   UNL     1     -32.825  40.348 -51.897  1.00  0.00     0.043 A 
HETATM   12  C   UNL     1     -34.057  40.389 -51.239  1.00  0.00    -0.001 A 
HETATM   13  C   UNL     1     -31.641  39.958 -51.258  1.00  0.00     0.030 A 
HETATM   14  C   UNL     1     -31.721  39.600 -49.909  1.00  0.00     0.002 A 
HETATM   15  C   UNL     1     -32.936  39.629 -49.229  1.00  0.00     0.001 A 
HETATM   16  C   UNL     1     -34.111  40.021 -49.880  1.00  0.00     0.014 A 
HETATM   17  O   UNL     1     -38.523  40.822 -55.168  1.00  0.00    -0.247 OA
HETATM   18  H   UNL     1     -35.951  41.205 -56.929  1.00  0.00     0.170 HD
ENDROOT
BRANCH   1  19
HETATM   19  C   UNL     1     -37.413  40.062 -57.791  1.00  0.00     0.060 A 
HETATM   20  C   UNL     1     -37.871  38.740 -57.730  1.00  0.00     0.068 A 
HETATM   21  C   UNL     1     -38.455  38.134 -58.848  1.00  0.00     0.070 A 
HETATM   22  C   UNL     1     -38.558  38.845 -60.045  1.00  0.00     0.038 A 
HETATM   23  C   UNL     1     -38.096  40.156 -60.130  1.00  0.00     0.029 A 
HETATM   24  C   UNL     1     -37.529  40.761 -59.008  1.00  0.00     0.061 A 
HETATM   25 CL   UNL     1     -36.963  42.392 -59.157  1.00  0.00    -0.082 Cl
BRANCH  21  26
HETATM   26  O   UNL     1     -38.948  36.858 -58.902  1.00  0.00    -0.356 OA
HETATM   27  C   UNL     1     -40.123  36.658 -59.681  1.00  0.00     0.210 C 
ENDBRANCH  21  26
ENDBRANCH   1  19
TORSDOF 2
ENDMDL
