MODEL 1
REMARK VINA RESULT:      -8.0      0.000      0.000
REMARK  7 active torsions:
REMARK  status: ('A' for Active; 'I' for Inactive)
REMARK    1  A    between atoms: C_2  and  C_3 
REMARK    2  A    between atoms: C_3  and  O_4 
REMARK    3  A    between atoms: O_4  and  C_5 
REMARK    4  A    between atoms: C_8  and  C_9 
REMARK    5  A    between atoms: C_15  and  C_16 
REMARK    6  A    between atoms: C_19  and  N_20 
REMARK       I    between atoms: N_20  and  C_21 
REMARK    7  A    between atoms: C_29  and  N_30 
ROOT
HETATM    1  C   UNL     1     -43.892  57.590 -54.516  1.00  0.00     0.072 A 
HETATM    2  N   UNL     1     -45.123  57.789 -53.927  1.00  0.00    -0.274 N 
HETATM    3  H   UNL     1     -46.036  57.725 -54.367  1.00  0.00     0.189 HD
HETATM    4  N   UNL     1     -45.062  58.148 -52.624  1.00  0.00    -0.148 NA
HETATM    5  C   UNL     1     -43.756  58.170 -52.399  1.00  0.00     0.199 A 
HETATM    6  C   UNL     1     -42.979  57.797 -53.498  1.00  0.00     0.039 A 
HETATM    7  C   UNL     1     -41.499  57.733 -53.394  1.00  0.00     0.105 C 
HETATM    8  C   UNL     1     -41.035  58.386 -52.102  1.00  0.00     0.067 C 
HETATM    9  C   UNL     1     -39.565  58.772 -52.052  1.00  0.00     0.020 C 
HETATM   10  N   UNL     1     -38.346  59.092 -52.012  1.00  0.00    -0.096 N 
HETATM   11  C   UNL     1     -41.881  58.755 -51.105  1.00  0.00     0.139 C 
HETATM   12  O   UNL     1     -43.268  58.551 -51.201  1.00  0.00    -0.277 OA
ENDROOT
BRANCH   7  13
HETATM   13  C   UNL     1     -41.151  56.253 -53.481  1.00  0.00    -0.044 A 
HETATM   14  C   UNL     1     -40.452  55.767 -54.597  1.00  0.00     0.010 A 
HETATM   15  C   UNL     1     -40.147  54.406 -54.723  1.00  0.00     0.030 A 
HETATM   16  C   UNL     1     -40.532  53.496 -53.739  1.00  0.00     0.034 A 
HETATM   17  C   UNL     1     -41.219  53.974 -52.618  1.00  0.00     0.030 A 
HETATM   18  C   UNL     1     -41.524  55.332 -52.488  1.00  0.00     0.010 A 
BRANCH  16  19
HETATM   19  N   UNL     1     -40.286  52.110 -53.800  1.00  0.00    -0.328 N 
HETATM   20  C   UNL     1     -39.650  51.324 -52.857  1.00  0.00     0.218 C 
HETATM   21  C   UNL     1     -39.552  49.885 -53.297  1.00  0.00     0.117 C 
HETATM   22  O   UNL     1     -39.212  51.681 -51.769  1.00  0.00    -0.274 OA
HETATM   23  H   UNL     1     -40.612  51.640 -54.635  1.00  0.00     0.169 HD
ENDBRANCH  16  19
ENDBRANCH   7  13
BRANCH  11  24
HETATM   24  N   UNL     1     -41.504  59.369 -49.933  1.00  0.00    -0.282 NA
HETATM   25  H   UNL     1     -42.042  59.122 -49.106  1.00  0.00     0.126 HD
HETATM   26  H   UNL     1     -41.380  60.373 -50.049  1.00  0.00     0.126 HD
ENDBRANCH  11  24
BRANCH   1  27
HETATM   27  C   UNL     1     -43.714  57.251 -55.920  1.00  0.00    -0.007 A 
HETATM   28  C   UNL     1     -43.309  55.960 -56.284  1.00  0.00     0.016 A 
HETATM   29  C   UNL     1     -43.178  55.602 -57.630  1.00  0.00     0.037 A 
HETATM   30  C   UNL     1     -43.449  56.534 -58.630  1.00  0.00     0.068 A 
HETATM   31  C   UNL     1     -43.823  57.830 -58.271  1.00  0.00     0.037 A 
HETATM   32  C   UNL     1     -43.961  58.189 -56.926  1.00  0.00     0.016 A 
BRANCH  30  33
HETATM   33  O   UNL     1     -43.370  56.303 -59.976  1.00  0.00    -0.351 OA
BRANCH  33  34
HETATM   34  C   UNL     1     -44.519  56.657 -60.750  1.00  0.00     0.175 C 
BRANCH  34  35
HETATM   35  C   UNL     1     -45.578  55.579 -60.542  1.00  0.00     0.022 C 
HETATM   36  C   UNL     1     -46.948  56.180 -60.282  1.00  0.00     0.007 C 
ENDBRANCH  34  35
ENDBRANCH  33  34
ENDBRANCH  30  33
ENDBRANCH   1  27
TORSDOF 7
ENDMDL
MODEL 2
REMARK VINA RESULT:      -7.7      2.677      7.186
REMARK  7 active torsions:
REMARK  status: ('A' for Active; 'I' for Inactive)
REMARK    1  A    between atoms: C_2  and  C_3 
REMARK    2  A    between atoms: C_3  and  O_4 
REMARK    3  A    between atoms: O_4  and  C_5 
REMARK    4  A    between atoms: C_8  and  C_9 
REMARK    5  A    between atoms: C_15  and  C_16 
REMARK    6  A    between atoms: C_19  and  N_20 
REMARK       I    between atoms: N_20  and  C_21 
REMARK    7  A    between atoms: C_29  and  N_30 
ROOT
HETATM    1  C   UNL     1     -42.883  55.405 -56.926  1.00  0.00     0.072 A 
HETATM    2  N   UNL     1     -43.721  54.669 -57.738  1.00  0.00    -0.274 N 
HETATM    3  H   UNL     1     -43.924  53.677 -57.678  1.00  0.00     0.189 HD
HETATM    4  N   UNL     1     -44.286  55.380 -58.740  1.00  0.00    -0.148 NA
HETATM    5  C   UNL     1     -43.785  56.592 -58.544  1.00  0.00     0.199 A 
HETATM    6  C   UNL     1     -42.953  56.693 -57.426  1.00  0.00     0.039 A 
HETATM    7  C   UNL     1     -42.346  57.994 -57.048  1.00  0.00     0.105 C 
HETATM    8  C   UNL     1     -42.530  59.005 -58.169  1.00  0.00     0.067 C 
HETATM    9  C   UNL     1     -41.618  60.220 -58.113  1.00  0.00     0.020 C 
HETATM   10  N   UNL     1     -40.860  61.226 -58.066  1.00  0.00    -0.096 N 
HETATM   11  C   UNL     1     -43.334  58.792 -59.242  1.00  0.00     0.139 C 
HETATM   12  O   UNL     1     -44.066  57.602 -59.391  1.00  0.00    -0.277 OA
ENDROOT
BRANCH   7  13
HETATM   13  C   UNL     1     -43.034  58.399 -55.751  1.00  0.00    -0.044 A 
HETATM   14  C   UNL     1     -44.372  58.819 -55.773  1.00  0.00     0.010 A 
HETATM   15  C   UNL     1     -45.023  59.231 -54.603  1.00  0.00     0.030 A 
HETATM   16  C   UNL     1     -44.352  59.233 -53.380  1.00  0.00     0.034 A 
HETATM   17  C   UNL     1     -43.020  58.805 -53.346  1.00  0.00     0.030 A 
HETATM   18  C   UNL     1     -42.369  58.392 -54.512  1.00  0.00     0.010 A 
BRANCH  16  19
HETATM   19  N   UNL     1     -44.924  59.653 -52.162  1.00  0.00    -0.328 N 
HETATM   20  C   UNL     1     -45.381  58.858 -51.127  1.00  0.00     0.218 C 
HETATM   21  C   UNL     1     -45.954  59.678 -49.999  1.00  0.00     0.117 C 
HETATM   22  O   UNL     1     -45.340  57.635 -51.058  1.00  0.00    -0.274 OA
HETATM   23  H   UNL     1     -45.010  60.652 -52.037  1.00  0.00     0.169 HD
ENDBRANCH  16  19
ENDBRANCH   7  13
BRANCH  11  24
HETATM   24  N   UNL     1     -43.508  59.669 -60.288  1.00  0.00    -0.282 NA
HETATM   25  H   UNL     1     -43.020  60.558 -60.211  1.00  0.00     0.126 HD
HETATM   26  H   UNL     1     -44.489  59.768 -60.546  1.00  0.00     0.126 HD
ENDBRANCH  11  24
BRANCH   1  27
HETATM   27  C   UNL     1     -42.127  54.838 -55.820  1.00  0.00    -0.007 A 
HETATM   28  C   UNL     1     -42.799  54.293 -54.718  1.00  0.00     0.016 A 
HETATM   29  C   UNL     1     -42.092  53.701 -53.667  1.00  0.00     0.037 A 
HETATM   30  C   UNL     1     -40.699  53.648 -53.704  1.00  0.00     0.068 A 
HETATM   31  C   UNL     1     -40.025  54.217 -54.786  1.00  0.00     0.037 A 
HETATM   32  C   UNL     1     -40.730  54.804 -55.841  1.00  0.00     0.016 A 
BRANCH  30  33
HETATM   33  O   UNL     1     -39.897  53.088 -52.749  1.00  0.00    -0.351 OA
BRANCH  33  34
HETATM   34  C   UNL     1     -40.045  51.682 -52.540  1.00  0.00     0.175 C 
BRANCH  34  35
HETATM   35  C   UNL     1     -39.329  50.959 -53.677  1.00  0.00     0.022 C 
HETATM   36  C   UNL     1     -40.252  49.989 -54.395  1.00  0.00     0.007 C 
ENDBRANCH  34  35
ENDBRANCH  33  34
ENDBRANCH  30  33
ENDBRANCH   1  27
TORSDOF 7
ENDMDL
MODEL 3
REMARK VINA RESULT:      -7.7      2.945      6.486
REMARK  7 active torsions:
REMARK  status: ('A' for Active; 'I' for Inactive)
REMARK    1  A    between atoms: C_2  and  C_3 
REMARK    2  A    between atoms: C_3  and  O_4 
REMARK    3  A    between atoms: O_4  and  C_5 
REMARK    4  A    between atoms: C_8  and  C_9 
REMARK    5  A    between atoms: C_15  and  C_16 
REMARK    6  A    between atoms: C_19  and  N_20 
REMARK       I    between atoms: N_20  and  C_21 
REMARK    7  A    between atoms: C_29  and  N_30 
ROOT
HETATM    1  C   UNL     1     -42.986  59.346 -55.592  1.00  0.00     0.072 A 
HETATM    2  N   UNL     1     -42.160  60.399 -55.927  1.00  0.00    -0.274 N 
HETATM    3  H   UNL     1     -42.045  61.276 -55.430  1.00  0.00     0.189 HD
HETATM    4  N   UNL     1     -41.474  60.220 -57.078  1.00  0.00    -0.148 NA
HETATM    5  C   UNL     1     -41.884  59.020 -57.468  1.00  0.00     0.199 A 
HETATM    6  C   UNL     1     -42.776  58.406 -56.585  1.00  0.00     0.039 A 
HETATM    7  C   UNL     1     -43.296  57.042 -56.859  1.00  0.00     0.105 C 
HETATM    8  C   UNL     1     -42.956  56.627 -58.281  1.00  0.00     0.067 C 
HETATM    9  C   UNL     1     -43.766  55.467 -58.837  1.00  0.00     0.020 C 
HETATM   10  N   UNL     1     -44.439  54.505 -59.298  1.00  0.00    -0.096 N 
HETATM   11  C   UNL     1     -42.104  57.321 -59.079  1.00  0.00     0.139 C 
HETATM   12  O   UNL     1     -41.466  58.492 -58.635  1.00  0.00    -0.277 OA
ENDROOT
BRANCH   7  13
HETATM   13  C   UNL     1     -42.663  56.148 -55.801  1.00  0.00    -0.044 A 
HETATM   14  C   UNL     1     -43.460  55.236 -55.093  1.00  0.00     0.010 A 
HETATM   15  C   UNL     1     -42.915  54.424 -54.090  1.00  0.00     0.030 A 
HETATM   16  C   UNL     1     -41.560  54.503 -53.769  1.00  0.00     0.034 A 
HETATM   17  C   UNL     1     -40.755  55.401 -54.478  1.00  0.00     0.030 A 
HETATM   18  C   UNL     1     -41.296  56.212 -55.481  1.00  0.00     0.010 A 
BRANCH  16  19
HETATM   19  N   UNL     1     -40.939  53.740 -52.760  1.00  0.00    -0.328 N 
HETATM   20  C   UNL     1     -40.244  52.554 -52.908  1.00  0.00     0.218 C 
HETATM   21  C   UNL     1     -39.747  52.024 -51.585  1.00  0.00     0.117 C 
HETATM   22  O   UNL     1     -40.005  51.960 -53.953  1.00  0.00    -0.274 OA
HETATM   23  H   UNL     1     -41.015  54.106 -51.820  1.00  0.00     0.169 HD
ENDBRANCH  16  19
ENDBRANCH   7  13
BRANCH  11  24
HETATM   24  N   UNL     1     -41.790  56.993 -60.378  1.00  0.00    -0.282 NA
HETATM   25  H   UNL     1     -42.575  56.793 -60.991  1.00  0.00     0.126 HD
HETATM   26  H   UNL     1     -41.050  56.294 -60.428  1.00  0.00     0.126 HD
ENDBRANCH  11  24
BRANCH   1  27
HETATM   27  C   UNL     1     -43.857  59.341 -54.426  1.00  0.00    -0.007 A 
HETATM   28  C   UNL     1     -43.561  58.516 -53.333  1.00  0.00     0.016 A 
HETATM   29  C   UNL     1     -44.359  58.533 -52.184  1.00  0.00     0.037 A 
HETATM   30  C   UNL     1     -45.467  59.376 -52.116  1.00  0.00     0.068 A 
HETATM   31  C   UNL     1     -45.782  60.178 -53.215  1.00  0.00     0.037 A 
HETATM   32  C   UNL     1     -44.982  60.168 -54.362  1.00  0.00     0.016 A 
BRANCH  30  33
HETATM   33  O   UNL     1     -46.314  59.493 -51.049  1.00  0.00    -0.351 OA
BRANCH  33  34
HETATM   34  C   UNL     1     -45.707  59.741 -49.779  1.00  0.00     0.175 C 
BRANCH  34  35
HETATM   35  C   UNL     1     -45.469  61.243 -49.656  1.00  0.00     0.022 C 
HETATM   36  C   UNL     1     -43.994  61.566 -49.490  1.00  0.00     0.007 C 
ENDBRANCH  34  35
ENDBRANCH  33  34
ENDBRANCH  30  33
ENDBRANCH   1  27
TORSDOF 7
ENDMDL
MODEL 4
REMARK VINA RESULT:      -7.6     16.262     20.302
REMARK  7 active torsions:
REMARK  status: ('A' for Active; 'I' for Inactive)
REMARK    1  A    between atoms: C_2  and  C_3 
REMARK    2  A    between atoms: C_3  and  O_4 
REMARK    3  A    between atoms: O_4  and  C_5 
REMARK    4  A    between atoms: C_8  and  C_9 
REMARK    5  A    between atoms: C_15  and  C_16 
REMARK    6  A    between atoms: C_19  and  N_20 
REMARK       I    between atoms: N_20  and  C_21 
REMARK    7  A    between atoms: C_29  and  N_30 
ROOT
HETATM    1  C   UNL     1     -34.475  41.100 -52.221  1.00  0.00     0.072 A 
HETATM    2  N   UNL     1     -34.839  42.423 -52.077  1.00  0.00    -0.274 N 
HETATM    3  H   UNL     1     -34.626  43.040 -51.300  1.00  0.00     0.189 HD
HETATM    4  N   UNL     1     -35.600  42.901 -53.087  1.00  0.00    -0.148 NA
HETATM    5  C   UNL     1     -35.709  41.845 -53.882  1.00  0.00     0.199 A 
HETATM    6  C   UNL     1     -35.010  40.720 -53.438  1.00  0.00     0.039 A 
HETATM    7  C   UNL     1     -35.001  39.469 -54.239  1.00  0.00     0.105 C 
HETATM    8  C   UNL     1     -36.042  39.546 -55.344  1.00  0.00     0.067 C 
HETATM    9  C   UNL     1     -36.440  38.215 -55.964  1.00  0.00     0.020 C 
HETATM   10  N   UNL     1     -36.770  37.112 -56.476  1.00  0.00    -0.096 N 
HETATM   11  C   UNL     1     -36.702  40.686 -55.671  1.00  0.00     0.139 C 
HETATM   12  O   UNL     1     -36.462  41.896 -54.999  1.00  0.00    -0.277 OA
ENDROOT
BRANCH   7  13
HETATM   13  C   UNL     1     -33.576  39.333 -54.759  1.00  0.00    -0.044 A 
HETATM   14  C   UNL     1     -33.137  40.153 -55.809  1.00  0.00     0.010 A 
HETATM   15  C   UNL     1     -31.843  40.029 -56.333  1.00  0.00     0.030 A 
HETATM   16  C   UNL     1     -30.957  39.081 -55.821  1.00  0.00     0.034 A 
HETATM   17  C   UNL     1     -31.383  38.267 -54.766  1.00  0.00     0.030 A 
HETATM   18  C   UNL     1     -32.672  38.390 -54.241  1.00  0.00     0.010 A 
BRANCH  16  19
HETATM   19  N   UNL     1     -29.650  38.876 -56.306  1.00  0.00    -0.328 N 
HETATM   20  C   UNL     1     -29.259  38.081 -57.368  1.00  0.00     0.218 C 
HETATM   21  C   UNL     1     -27.764  38.097 -57.563  1.00  0.00     0.117 C 
HETATM   22  O   UNL     1     -29.984  37.432 -58.113  1.00  0.00    -0.274 OA
HETATM   23  H   UNL     1     -28.915  39.367 -55.815  1.00  0.00     0.169 HD
ENDBRANCH  16  19
ENDBRANCH   7  13
BRANCH  11  24
HETATM   24  N   UNL     1     -37.667  40.791 -56.647  1.00  0.00    -0.282 NA
HETATM   25  H   UNL     1     -37.645  40.083 -57.375  1.00  0.00     0.126 HD
HETATM   26  H   UNL     1     -37.745  41.740 -57.009  1.00  0.00     0.126 HD
ENDBRANCH  11  24
BRANCH   1  27
HETATM   27  C   UNL     1     -33.702  40.362 -51.233  1.00  0.00    -0.007 A 
HETATM   28  C   UNL     1     -32.303  40.421 -51.249  1.00  0.00     0.016 A 
HETATM   29  C   UNL     1     -31.545  39.757 -50.279  1.00  0.00     0.037 A 
HETATM   30  C   UNL     1     -32.179  39.022 -49.280  1.00  0.00     0.068 A 
HETATM   31  C   UNL     1     -33.573  38.935 -49.278  1.00  0.00     0.037 A 
HETATM   32  C   UNL     1     -34.333  39.604 -50.243  1.00  0.00     0.016 A 
BRANCH  30  33
HETATM   33  O   UNL     1     -31.554  38.341 -48.272  1.00  0.00    -0.351 OA
BRANCH  33  34
HETATM   34  C   UNL     1     -31.429  39.027 -47.024  1.00  0.00     0.175 C 
BRANCH  34  35
HETATM   35  C   UNL     1     -29.999  39.547 -46.912  1.00  0.00     0.022 C 
HETATM   36  C   UNL     1     -29.929  40.830 -46.102  1.00  0.00     0.007 C 
ENDBRANCH  34  35
ENDBRANCH  33  34
ENDBRANCH  30  33
ENDBRANCH   1  27
TORSDOF 7
ENDMDL
MODEL 5
REMARK VINA RESULT:      -7.6      2.596      6.587
REMARK  7 active torsions:
REMARK  status: ('A' for Active; 'I' for Inactive)
REMARK    1  A    between atoms: C_2  and  C_3 
REMARK    2  A    between atoms: C_3  and  O_4 
REMARK    3  A    between atoms: O_4  and  C_5 
REMARK    4  A    between atoms: C_8  and  C_9 
REMARK    5  A    between atoms: C_15  and  C_16 
REMARK    6  A    between atoms: C_19  and  N_20 
REMARK       I    between atoms: N_20  and  C_21 
REMARK    7  A    between atoms: C_29  and  N_30 
ROOT
HETATM    1  C   UNL     1     -41.263  57.994 -51.519  1.00  0.00     0.072 A 
HETATM    2  N   UNL     1     -40.196  58.500 -50.807  1.00  0.00    -0.274 N 
HETATM    3  H   UNL     1     -39.323  58.031 -50.585  1.00  0.00     0.189 HD
HETATM    4  N   UNL     1     -40.389  59.751 -50.333  1.00  0.00    -0.148 NA
HETATM    5  C   UNL     1     -41.612  60.031 -50.765  1.00  0.00     0.199 A 
HETATM    6  C   UNL     1     -42.191  59.019 -51.535  1.00  0.00     0.039 A 
HETATM    7  C   UNL     1     -43.542  59.196 -52.126  1.00  0.00     0.105 C 
HETATM    8  C   UNL     1     -44.219  60.420 -51.531  1.00  0.00     0.067 C 
HETATM    9  C   UNL     1     -45.727  60.488 -51.712  1.00  0.00     0.020 C 
HETATM   10  N   UNL     1     -46.978  60.544 -51.861  1.00  0.00    -0.096 N 
HETATM   11  C   UNL     1     -43.574  61.327 -50.754  1.00  0.00     0.139 C 
HETATM   12  O   UNL     1     -42.210  61.194 -50.442  1.00  0.00    -0.277 OA
ENDROOT
BRANCH   7  13
HETATM   13  C   UNL     1     -43.316  59.301 -53.628  1.00  0.00    -0.044 A 
HETATM   14  C   UNL     1     -44.059  58.494 -54.503  1.00  0.00     0.010 A 
HETATM   15  C   UNL     1     -43.850  58.542 -55.887  1.00  0.00     0.030 A 
HETATM   16  C   UNL     1     -42.894  59.398 -56.433  1.00  0.00     0.034 A 
HETATM   17  C   UNL     1     -42.156  60.216 -55.569  1.00  0.00     0.030 A 
HETATM   18  C   UNL     1     -42.363  60.171 -54.187  1.00  0.00     0.010 A 
BRANCH  16  19
HETATM   19  N   UNL     1     -42.605  59.491 -57.809  1.00  0.00    -0.328 N 
HETATM   20  C   UNL     1     -42.354  58.455 -58.690  1.00  0.00     0.218 C 
HETATM   21  C   UNL     1     -42.059  58.957 -60.080  1.00  0.00     0.117 C 
HETATM   22  O   UNL     1     -42.372  57.254 -58.445  1.00  0.00    -0.274 OA
HETATM   23  H   UNL     1     -42.578  60.427 -58.192  1.00  0.00     0.169 HD
ENDBRANCH  16  19
ENDBRANCH   7  13
BRANCH  11  24
HETATM   24  N   UNL     1     -44.155  62.433 -50.177  1.00  0.00    -0.282 NA
HETATM   25  H   UNL     1     -43.551  62.998 -49.586  1.00  0.00     0.126 HD
HETATM   26  H   UNL     1     -45.052  62.215 -49.747  1.00  0.00     0.126 HD
ENDBRANCH  11  24
BRANCH   1  27
HETATM   27  C   UNL     1     -41.299  56.650 -52.076  1.00  0.00    -0.007 A 
HETATM   28  C   UNL     1     -41.605  55.558 -51.253  1.00  0.00     0.016 A 
HETATM   29  C   UNL     1     -41.691  54.265 -51.779  1.00  0.00     0.037 A 
HETATM   30  C   UNL     1     -41.468  54.047 -53.138  1.00  0.00     0.068 A 
HETATM   31  C   UNL     1     -41.132  55.128 -53.955  1.00  0.00     0.037 A 
HETATM   32  C   UNL     1     -41.052  56.423 -53.433  1.00  0.00     0.016 A 
BRANCH  30  33
HETATM   33  O   UNL     1     -41.534  52.838 -53.772  1.00  0.00    -0.351 OA
BRANCH  33  34
HETATM   34  C   UNL     1     -40.351  52.413 -54.454  1.00  0.00     0.175 C 
BRANCH  34  35
HETATM   35  C   UNL     1     -39.730  51.272 -53.654  1.00  0.00     0.022 C 
HETATM   36  C   UNL     1     -39.800  49.954 -54.405  1.00  0.00     0.007 C 
ENDBRANCH  34  35
ENDBRANCH  33  34
ENDBRANCH  30  33
ENDBRANCH   1  27
TORSDOF 7
ENDMDL
MODEL 6
REMARK VINA RESULT:      -7.4      2.191      6.663
REMARK  7 active torsions:
REMARK  status: ('A' for Active; 'I' for Inactive)
REMARK    1  A    between atoms: C_2  and  C_3 
REMARK    2  A    between atoms: C_3  and  O_4 
REMARK    3  A    between atoms: O_4  and  C_5 
REMARK    4  A    between atoms: C_8  and  C_9 
REMARK    5  A    between atoms: C_15  and  C_16 
REMARK    6  A    between atoms: C_19  and  N_20 
REMARK       I    between atoms: N_20  and  C_21 
REMARK    7  A    between atoms: C_29  and  N_30 
ROOT
HETATM    1  C   UNL     1     -40.931  57.355 -53.128  1.00  0.00     0.072 A 
HETATM    2  N   UNL     1     -39.742  58.043 -53.257  1.00  0.00    -0.274 N 
HETATM    3  H   UNL     1     -38.853  57.682 -53.589  1.00  0.00     0.189 HD
HETATM    4  N   UNL     1     -39.799  59.330 -52.846  1.00  0.00    -0.148 NA
HETATM    5  C   UNL     1     -41.060  59.445 -52.452  1.00  0.00     0.199 A 
HETATM    6  C   UNL     1     -41.824  58.290 -52.636  1.00  0.00     0.039 A 
HETATM    7  C   UNL     1     -43.266  58.271 -52.281  1.00  0.00     0.105 C 
HETATM    8  C   UNL     1     -43.625  59.509 -51.476  1.00  0.00     0.067 C 
HETATM    9  C   UNL     1     -44.927  59.429 -50.695  1.00  0.00     0.020 C 
HETATM   10  N   UNL     1     -46.006  59.362 -50.046  1.00  0.00    -0.096 N 
HETATM   11  C   UNL     1     -42.788  60.568 -51.320  1.00  0.00     0.139 C 
HETATM   12  O   UNL     1     -41.511  60.591 -51.905  1.00  0.00    -0.277 OA
ENDROOT
BRANCH   7  13
HETATM   13  C   UNL     1     -44.007  58.177 -53.608  1.00  0.00    -0.044 A 
HETATM   14  C   UNL     1     -44.164  59.324 -54.401  1.00  0.00     0.010 A 
HETATM   15  C   UNL     1     -44.871  59.278 -55.609  1.00  0.00     0.030 A 
HETATM   16  C   UNL     1     -45.438  58.085 -56.056  1.00  0.00     0.034 A 
HETATM   17  C   UNL     1     -45.277  56.934 -55.278  1.00  0.00     0.030 A 
HETATM   18  C   UNL     1     -44.571  56.976 -54.072  1.00  0.00     0.010 A 
BRANCH  16  19
HETATM   19  N   UNL     1     -46.183  57.959 -57.246  1.00  0.00    -0.328 N 
HETATM   20  C   UNL     1     -45.707  57.665 -58.511  1.00  0.00     0.218 C 
HETATM   21  C   UNL     1     -46.812  57.643 -59.537  1.00  0.00     0.117 C 
HETATM   22  O   UNL     1     -44.548  57.422 -58.829  1.00  0.00    -0.274 OA
HETATM   23  H   UNL     1     -47.180  58.103 -57.161  1.00  0.00     0.169 HD
ENDBRANCH  16  19
ENDBRANCH   7  13
BRANCH  11  24
HETATM   24  N   UNL     1     -43.066  61.695 -50.580  1.00  0.00    -0.282 NA
HETATM   25  H   UNL     1     -42.795  62.581 -50.998  1.00  0.00     0.126 HD
HETATM   26  H   UNL     1     -42.771  61.599 -49.610  1.00  0.00     0.126 HD
ENDBRANCH  11  24
BRANCH   1  27
HETATM   27  C   UNL     1     -41.089  55.947 -53.457  1.00  0.00    -0.007 A 
HETATM   28  C   UNL     1     -40.619  55.456 -54.682  1.00  0.00     0.016 A 
HETATM   29  C   UNL     1     -40.720  54.096 -54.996  1.00  0.00     0.037 A 
HETATM   30  C   UNL     1     -41.296  53.210 -54.088  1.00  0.00     0.068 A 
HETATM   31  C   UNL     1     -41.794  53.701 -52.879  1.00  0.00     0.037 A 
HETATM   32  C   UNL     1     -41.688  55.059 -52.559  1.00  0.00     0.016 A 
BRANCH  30  33
HETATM   33  O   UNL     1     -41.441  51.863 -54.271  1.00  0.00    -0.351 OA
BRANCH  33  34
HETATM   34  C   UNL     1     -40.235  51.105 -54.392  1.00  0.00     0.175 C 
BRANCH  34  35
HETATM   35  C   UNL     1     -39.645  50.932 -52.996  1.00  0.00     0.022 C 
HETATM   36  C   UNL     1     -39.635  49.476 -52.566  1.00  0.00     0.007 C 
ENDBRANCH  34  35
ENDBRANCH  33  34
ENDBRANCH  30  33
ENDBRANCH   1  27
TORSDOF 7
ENDMDL
MODEL 7
REMARK VINA RESULT:      -7.4      3.080      7.817
REMARK  7 active torsions:
REMARK  status: ('A' for Active; 'I' for Inactive)
REMARK    1  A    between atoms: C_2  and  C_3 
REMARK    2  A    between atoms: C_3  and  O_4 
REMARK    3  A    between atoms: O_4  and  C_5 
REMARK    4  A    between atoms: C_8  and  C_9 
REMARK    5  A    between atoms: C_15  and  C_16 
REMARK    6  A    between atoms: C_19  and  N_20 
REMARK       I    between atoms: N_20  and  C_21 
REMARK    7  A    between atoms: C_29  and  N_30 
ROOT
HETATM    1  C   UNL     1     -42.979  55.505 -56.928  1.00  0.00     0.072 A 
HETATM    2  N   UNL     1     -43.633  54.673 -57.814  1.00  0.00    -0.274 N 
HETATM    3  H   UNL     1     -43.839  53.687 -57.696  1.00  0.00     0.189 HD
HETATM    4  N   UNL     1     -43.987  55.269 -58.975  1.00  0.00    -0.148 NA
HETATM    5  C   UNL     1     -43.542  56.507 -58.805  1.00  0.00     0.199 A 
HETATM    6  C   UNL     1     -42.953  56.736 -57.559  1.00  0.00     0.039 A 
HETATM    7  C   UNL     1     -42.441  58.083 -57.200  1.00  0.00     0.105 C 
HETATM    8  C   UNL     1     -42.399  58.974 -58.430  1.00  0.00     0.067 C 
HETATM    9  C   UNL     1     -41.522  60.211 -58.315  1.00  0.00     0.020 C 
HETATM   10  N   UNL     1     -40.793  61.235 -58.220  1.00  0.00    -0.096 N 
HETATM   11  C   UNL     1     -42.969  58.638 -59.616  1.00  0.00     0.139 C 
HETATM   12  O   UNL     1     -43.650  57.421 -59.789  1.00  0.00    -0.277 OA
ENDROOT
BRANCH   7  13
HETATM   13  C   UNL     1     -43.377  58.595 -56.114  1.00  0.00    -0.044 A 
HETATM   14  C   UNL     1     -44.625  59.132 -56.467  1.00  0.00     0.010 A 
HETATM   15  C   UNL     1     -45.495  59.643 -55.495  1.00  0.00     0.030 A 
HETATM   16  C   UNL     1     -45.140  59.631 -54.146  1.00  0.00     0.034 A 
HETATM   17  C   UNL     1     -43.903  59.087 -53.784  1.00  0.00     0.030 A 
HETATM   18  C   UNL     1     -43.034  58.575 -54.751  1.00  0.00     0.010 A 
BRANCH  16  19
HETATM   19  N   UNL     1     -45.945  60.145 -53.110  1.00  0.00    -0.328 N 
HETATM   20  C   UNL     1     -45.886  61.405 -52.542  1.00  0.00     0.218 C 
HETATM   21  C   UNL     1     -46.898  61.572 -51.436  1.00  0.00     0.117 C 
HETATM   22  O   UNL     1     -45.144  62.327 -52.861  1.00  0.00    -0.274 OA
HETATM   23  H   UNL     1     -46.644  59.515 -52.740  1.00  0.00     0.169 HD
ENDBRANCH  16  19
ENDBRANCH   7  13
BRANCH  11  24
HETATM   24  N   UNL     1     -42.932  59.405 -60.758  1.00  0.00    -0.282 NA
HETATM   25  H   UNL     1     -42.406  60.272 -60.697  1.00  0.00     0.126 HD
HETATM   26  H   UNL     1     -43.856  59.520 -61.172  1.00  0.00     0.126 HD
ENDBRANCH  11  24
BRANCH   1  27
HETATM   27  C   UNL     1     -42.460  55.068 -55.641  1.00  0.00    -0.007 A 
HETATM   28  C   UNL     1     -43.331  54.881 -54.560  1.00  0.00     0.016 A 
HETATM   29  C   UNL     1     -42.858  54.416 -53.329  1.00  0.00     0.037 A 
HETATM   30  C   UNL     1     -41.504  54.132 -53.164  1.00  0.00     0.068 A 
HETATM   31  C   UNL     1     -40.627  54.346 -54.229  1.00  0.00     0.037 A 
HETATM   32  C   UNL     1     -41.099  54.805 -55.463  1.00  0.00     0.016 A 
BRANCH  30  33
HETATM   33  O   UNL     1     -40.922  53.662 -52.019  1.00  0.00    -0.351 OA
BRANCH  33  34
HETATM   34  C   UNL     1     -41.541  54.046 -50.788  1.00  0.00     0.175 C 
BRANCH  34  35
HETATM   35  C   UNL     1     -40.668  55.113 -50.135  1.00  0.00     0.022 C 
HETATM   36  C   UNL     1     -41.282  56.497 -50.262  1.00  0.00     0.007 C 
ENDBRANCH  34  35
ENDBRANCH  33  34
ENDBRANCH  30  33
ENDBRANCH   1  27
TORSDOF 7
ENDMDL
MODEL 8
REMARK VINA RESULT:      -7.2      2.189      7.038
REMARK  7 active torsions:
REMARK  status: ('A' for Active; 'I' for Inactive)
REMARK    1  A    between atoms: C_2  and  C_3 
REMARK    2  A    between atoms: C_3  and  O_4 
REMARK    3  A    between atoms: O_4  and  C_5 
REMARK    4  A    between atoms: C_8  and  C_9 
REMARK    5  A    between atoms: C_15  and  C_16 
REMARK    6  A    between atoms: C_19  and  N_20 
REMARK       I    between atoms: N_20  and  C_21 
REMARK    7  A    between atoms: C_29  and  N_30 
ROOT
HETATM    1  C   UNL     1     -40.884  57.706 -50.911  1.00  0.00     0.072 A 
HETATM    2  N   UNL     1     -39.827  58.479 -50.476  1.00  0.00    -0.274 N 
HETATM    3  H   UNL     1     -38.906  58.161 -50.194  1.00  0.00     0.189 HD
HETATM    4  N   UNL     1     -40.105  59.800 -50.392  1.00  0.00    -0.148 NA
HETATM    5  C   UNL     1     -41.370  59.848 -50.787  1.00  0.00     0.199 A 
HETATM    6  C   UNL     1     -41.899  58.611 -51.162  1.00  0.00     0.039 A 
HETATM    7  C   UNL     1     -43.292  58.505 -51.667  1.00  0.00     0.105 C 
HETATM    8  C   UNL     1     -44.041  59.805 -51.419  1.00  0.00     0.067 C 
HETATM    9  C   UNL     1     -45.557  59.712 -51.489  1.00  0.00     0.020 C 
HETATM   10  N   UNL     1     -46.814  59.634 -51.545  1.00  0.00    -0.096 N 
HETATM   11  C   UNL     1     -43.436  60.949 -51.010  1.00  0.00     0.139 C 
HETATM   12  O   UNL     1     -42.050  61.012 -50.785  1.00  0.00    -0.277 OA
ENDROOT
BRANCH   7  13
HETATM   13  C   UNL     1     -43.162  58.155 -53.143  1.00  0.00    -0.044 A 
HETATM   14  C   UNL     1     -43.860  57.054 -53.662  1.00  0.00     0.010 A 
HETATM   15  C   UNL     1     -43.734  56.685 -55.008  1.00  0.00     0.030 A 
HETATM   16  C   UNL     1     -42.908  57.407 -55.869  1.00  0.00     0.034 A 
HETATM   17  C   UNL     1     -42.217  58.514 -55.363  1.00  0.00     0.030 A 
HETATM   18  C   UNL     1     -42.341  58.885 -54.021  1.00  0.00     0.010 A 
BRANCH  16  19
HETATM   19  N   UNL     1     -42.708  57.090 -57.227  1.00  0.00    -0.328 N 
HETATM   20  C   UNL     1     -43.576  57.311 -58.281  1.00  0.00     0.218 C 
HETATM   21  C   UNL     1     -43.015  56.806 -59.587  1.00  0.00     0.117 C 
HETATM   22  O   UNL     1     -44.671  57.859 -58.237  1.00  0.00    -0.274 OA
HETATM   23  H   UNL     1     -41.827  56.647 -57.452  1.00  0.00     0.169 HD
ENDBRANCH  16  19
ENDBRANCH   7  13
BRANCH  11  24
HETATM   24  N   UNL     1     -44.080  62.137 -50.752  1.00  0.00    -0.282 NA
HETATM   25  H   UNL     1     -43.622  62.977 -51.094  1.00  0.00     0.126 HD
HETATM   26  H   UNL     1     -44.380  62.208 -49.781  1.00  0.00     0.126 HD
ENDBRANCH  11  24
BRANCH   1  27
HETATM   27  C   UNL     1     -40.831  56.257 -51.028  1.00  0.00    -0.007 A 
HETATM   28  C   UNL     1     -40.964  55.649 -52.283  1.00  0.00     0.016 A 
HETATM   29  C   UNL     1     -40.868  54.260 -52.422  1.00  0.00     0.037 A 
HETATM   30  C   UNL     1     -40.640  53.461 -51.303  1.00  0.00     0.068 A 
HETATM   31  C   UNL     1     -40.538  54.060 -50.046  1.00  0.00     0.037 A 
HETATM   32  C   UNL     1     -40.626  55.449 -49.906  1.00  0.00     0.016 A 
BRANCH  30  33
HETATM   33  O   UNL     1     -40.515  52.099 -51.309  1.00  0.00    -0.351 OA
BRANCH  33  34
HETATM   34  C   UNL     1     -39.535  51.555 -52.196  1.00  0.00     0.175 C 
BRANCH  34  35
HETATM   35  C   UNL     1     -39.545  50.038 -52.035  1.00  0.00     0.022 C 
HETATM   36  C   UNL     1     -39.874  49.626 -50.611  1.00  0.00     0.007 C 
ENDBRANCH  34  35
ENDBRANCH  33  34
ENDBRANCH  30  33
ENDBRANCH   1  27
TORSDOF 7
ENDMDL
MODEL 9
REMARK VINA RESULT:      -6.7      3.462      8.260
REMARK  7 active torsions:
REMARK  status: ('A' for Active; 'I' for Inactive)
REMARK    1  A    between atoms: C_2  and  C_3 
REMARK    2  A    between atoms: C_3  and  O_4 
REMARK    3  A    between atoms: O_4  and  C_5 
REMARK    4  A    between atoms: C_8  and  C_9 
REMARK    5  A    between atoms: C_15  and  C_16 
REMARK    6  A    between atoms: C_19  and  N_20 
REMARK       I    between atoms: N_20  and  C_21 
REMARK    7  A    between atoms: C_29  and  N_30 
ROOT
HETATM    1  C   UNL     1     -42.869  56.640 -56.047  1.00  0.00     0.072 A 
HETATM    2  N   UNL     1     -43.280  55.553 -56.791  1.00  0.00    -0.274 N 
HETATM    3  H   UNL     1     -43.502  54.623 -56.453  1.00  0.00     0.189 HD
HETATM    4  N   UNL     1     -43.342  55.785 -58.121  1.00  0.00    -0.148 NA
HETATM    5  C   UNL     1     -42.961  57.052 -58.206  1.00  0.00     0.199 A 
HETATM    6  C   UNL     1     -42.697  57.653 -56.973  1.00  0.00     0.039 A 
HETATM    7  C   UNL     1     -42.299  59.082 -56.896  1.00  0.00     0.105 C 
HETATM    8  C   UNL     1     -41.962  59.608 -58.282  1.00  0.00     0.067 C 
HETATM    9  C   UNL     1     -41.149  60.892 -58.316  1.00  0.00     0.020 C 
HETATM   10  N   UNL     1     -40.474  61.957 -58.344  1.00  0.00    -0.096 N 
HETATM   11  C   UNL     1     -42.221  58.922 -59.425  1.00  0.00     0.139 C 
HETATM   12  O   UNL     1     -42.830  57.656 -59.404  1.00  0.00    -0.277 OA
ENDROOT
BRANCH   7  13
HETATM   13  C   UNL     1     -43.477  59.796 -56.248  1.00  0.00    -0.044 A 
HETATM   14  C   UNL     1     -43.281  60.540 -55.074  1.00  0.00     0.010 A 
HETATM   15  C   UNL     1     -44.350  61.181 -54.435  1.00  0.00     0.030 A 
HETATM   16  C   UNL     1     -45.642  61.094 -54.952  1.00  0.00     0.034 A 
HETATM   17  C   UNL     1     -45.846  60.365 -56.128  1.00  0.00     0.030 A 
HETATM   18  C   UNL     1     -44.780  59.725 -56.769  1.00  0.00     0.010 A 
BRANCH  16  19
HETATM   19  N   UNL     1     -46.775  61.688 -54.359  1.00  0.00    -0.328 N 
HETATM   20  C   UNL     1     -47.252  61.497 -53.076  1.00  0.00     0.218 C 
HETATM   21  C   UNL     1     -48.509  62.290 -52.819  1.00  0.00     0.117 C 
HETATM   22  O   UNL     1     -46.757  60.800 -52.197  1.00  0.00    -0.274 OA
HETATM   23  H   UNL     1     -47.297  62.325 -54.946  1.00  0.00     0.169 HD
ENDBRANCH  16  19
ENDBRANCH   7  13
BRANCH  11  24
HETATM   24  N   UNL     1     -41.910  59.353 -60.694  1.00  0.00    -0.282 NA
HETATM   25  H   UNL     1     -42.152  60.316 -60.911  1.00  0.00     0.126 HD
HETATM   26  H   UNL     1     -42.210  58.690 -61.408  1.00  0.00     0.126 HD
ENDBRANCH  11  24
BRANCH   1  27
HETATM   27  C   UNL     1     -42.679  56.607 -54.605  1.00  0.00    -0.007 A 
HETATM   28  C   UNL     1     -43.731  56.961 -53.750  1.00  0.00     0.016 A 
HETATM   29  C   UNL     1     -43.583  56.889 -52.361  1.00  0.00     0.037 A 
HETATM   30  C   UNL     1     -42.376  56.464 -51.809  1.00  0.00     0.068 A 
HETATM   31  C   UNL     1     -41.315  56.140 -52.656  1.00  0.00     0.037 A 
HETATM   32  C   UNL     1     -41.463  56.204 -54.046  1.00  0.00     0.016 A 
BRANCH  30  33
HETATM   33  O   UNL     1     -42.111  56.340 -50.473  1.00  0.00    -0.351 OA
BRANCH  33  34
HETATM   34  C   UNL     1     -40.783  55.941 -50.122  1.00  0.00     0.175 C 
BRANCH  34  35
HETATM   35  C   UNL     1     -40.881  54.681 -49.268  1.00  0.00     0.022 C 
HETATM   36  C   UNL     1     -40.553  53.432 -50.068  1.00  0.00     0.007 C 
ENDBRANCH  34  35
ENDBRANCH  33  34
ENDBRANCH  30  33
ENDBRANCH   1  27
TORSDOF 7
ENDMDL
MODEL 10
REMARK VINA RESULT:      -6.6     16.169     20.170
REMARK  7 active torsions:
REMARK  status: ('A' for Active; 'I' for Inactive)
REMARK    1  A    between atoms: C_2  and  C_3 
REMARK    2  A    between atoms: C_3  and  O_4 
REMARK    3  A    between atoms: O_4  and  C_5 
REMARK    4  A    between atoms: C_8  and  C_9 
REMARK    5  A    between atoms: C_15  and  C_16 
REMARK    6  A    between atoms: C_19  and  N_20 
REMARK       I    between atoms: N_20  and  C_21 
REMARK    7  A    between atoms: C_29  and  N_30 
ROOT
HETATM    1  C   UNL     1     -34.840  41.067 -53.585  1.00  0.00     0.072 A 
HETATM    2  N   UNL     1     -35.047  42.418 -53.396  1.00  0.00    -0.274 N 
HETATM    3  H   UNL     1     -35.012  42.932 -52.522  1.00  0.00     0.189 HD
HETATM    4  N   UNL     1     -35.371  43.091 -54.523  1.00  0.00    -0.148 NA
HETATM    5  C   UNL     1     -35.363  42.131 -55.438  1.00  0.00     0.199 A 
HETATM    6  C   UNL     1     -35.003  40.874 -54.944  1.00  0.00     0.039 A 
HETATM    7  C   UNL     1     -34.908  39.703 -55.852  1.00  0.00     0.105 C 
HETATM    8  C   UNL     1     -35.519  40.035 -57.204  1.00  0.00     0.067 C 
HETATM    9  C   UNL     1     -35.875  38.840 -58.074  1.00  0.00     0.020 C 
HETATM   10  N   UNL     1     -36.171  37.849 -58.795  1.00  0.00    -0.096 N 
HETATM   11  C   UNL     1     -35.878  41.291 -57.573  1.00  0.00     0.139 C 
HETATM   12  O   UNL     1     -35.703  42.390 -56.716  1.00  0.00    -0.277 OA
ENDROOT
BRANCH   7  13
HETATM   13  C   UNL     1     -33.425  39.367 -55.926  1.00  0.00    -0.044 A 
HETATM   14  C   UNL     1     -32.968  38.123 -55.465  1.00  0.00     0.010 A 
HETATM   15  C   UNL     1     -31.606  37.797 -55.487  1.00  0.00     0.030 A 
HETATM   16  C   UNL     1     -30.666  38.706 -55.971  1.00  0.00     0.034 A 
HETATM   17  C   UNL     1     -31.113  39.945 -56.443  1.00  0.00     0.030 A 
HETATM   18  C   UNL     1     -32.472  40.272 -56.424  1.00  0.00     0.010 A 
BRANCH  16  19
HETATM   19  N   UNL     1     -29.277  38.467 -56.006  1.00  0.00    -0.328 N 
HETATM   20  C   UNL     1     -28.560  37.810 -56.989  1.00  0.00     0.218 C 
HETATM   21  C   UNL     1     -27.091  37.730 -56.655  1.00  0.00     0.117 C 
HETATM   22  O   UNL     1     -28.994  37.343 -58.036  1.00  0.00    -0.274 OA
HETATM   23  H   UNL     1     -28.749  38.817 -55.218  1.00  0.00     0.169 HD
ENDBRANCH  16  19
ENDBRANCH   7  13
BRANCH  11  24
HETATM   24  N   UNL     1     -36.455  41.629 -58.776  1.00  0.00    -0.282 NA
HETATM   25  H   UNL     1     -36.537  40.880 -59.458  1.00  0.00     0.126 HD
HETATM   26  H   UNL     1     -36.064  42.486 -59.162  1.00  0.00     0.126 HD
ENDBRANCH  11  24
BRANCH   1  27
HETATM   27  C   UNL     1     -34.533  40.139 -52.507  1.00  0.00    -0.007 A 
HETATM   28  C   UNL     1     -33.218  39.695 -52.316  1.00  0.00     0.016 A 
HETATM   29  C   UNL     1     -32.896  38.841 -51.257  1.00  0.00     0.037 A 
HETATM   30  C   UNL     1     -33.888  38.416 -50.375  1.00  0.00     0.068 A 
HETATM   31  C   UNL     1     -35.205  38.831 -50.580  1.00  0.00     0.037 A 
HETATM   32  C   UNL     1     -35.529  39.691 -51.635  1.00  0.00     0.016 A 
BRANCH  30  33
HETATM   33  O   UNL     1     -33.699  37.594 -49.299  1.00  0.00    -0.351 OA
BRANCH  33  34
HETATM   34  C   UNL     1     -33.585  38.231 -48.024  1.00  0.00     0.175 C 
BRANCH  34  35
HETATM   35  C   UNL     1     -32.113  38.225 -47.624  1.00  0.00     0.022 C 
HETATM   36  C   UNL     1     -31.450  39.563 -47.902  1.00  0.00     0.007 C 
ENDBRANCH  34  35
ENDBRANCH  33  34
ENDBRANCH  30  33
ENDBRANCH   1  27
TORSDOF 7
ENDMDL
