MODEL 1
REMARK VINA RESULT:      -8.2      0.000      0.000
REMARK  4 active torsions:
REMARK  status: ('A' for Active; 'I' for Inactive)
REMARK    1  A    between atoms: C_3  and  N_4 
REMARK       I    between atoms: N_4  and  C_5 
REMARK       I    between atoms: C_5  and  N_6 
REMARK    2  A    between atoms: N_6  and  C_7 
REMARK    3  A    between atoms: C_7  and  C_8 
REMARK    4  A    between atoms: C_11  and  C_12 
ROOT
HETATM    1  N   UNL     1     -42.627  56.336 -57.844  1.00  0.00    -0.309 N 
HETATM    2  C   UNL     1     -42.755  56.400 -56.472  1.00  0.00     0.321 C 
HETATM    3  N   UNL     1     -41.522  56.577 -55.881  1.00  0.00    -0.335 N 
HETATM    4  O   UNL     1     -43.795  56.391 -55.830  1.00  0.00    -0.247 OA
HETATM    5  H   UNL     1     -41.866  56.910 -58.178  1.00  0.00     0.170 HD
HETATM    6  H   UNL     1     -40.737  56.144 -56.348  1.00  0.00     0.164 HD
ENDROOT
BRANCH   3   7
HETATM    7  C   UNL     1     -41.424  56.801 -54.451  1.00  0.00     0.213 C 
BRANCH   7   8
HETATM    8  C   UNL     1     -41.144  55.564 -53.677  1.00  0.00     0.190 A 
HETATM    9  O   UNL     1     -41.189  55.619 -52.315  1.00  0.00    -0.194 OA
HETATM   10  N   UNL     1     -40.891  54.336 -51.857  1.00  0.00    -0.106 NA
HETATM   11  C   UNL     1     -40.671  53.634 -52.981  1.00  0.00     0.189 A 
HETATM   12  N   UNL     1     -40.845  54.369 -54.135  1.00  0.00    -0.202 NA
BRANCH  11  13
HETATM   13  C   UNL     1     -40.276  52.228 -53.014  1.00  0.00     0.014 A 
HETATM   14  C   UNL     1     -40.420  51.458 -54.177  1.00  0.00     0.015 A 
HETATM   15  C   UNL     1     -40.049  50.111 -54.189  1.00  0.00     0.001 A 
HETATM   16  C   UNL     1     -39.531  49.517 -53.040  1.00  0.00     0.000 A 
HETATM   17  C   UNL     1     -39.382  50.270 -51.876  1.00  0.00     0.001 A 
HETATM   18  C   UNL     1     -39.751  51.617 -51.865  1.00  0.00     0.015 A 
ENDBRANCH  11  13
ENDBRANCH   7   8
ENDBRANCH   3   7
BRANCH   1  19
HETATM   19  C   UNL     1     -43.714  56.196 -58.741  1.00  0.00     0.042 A 
HETATM   20  C   UNL     1     -44.580  57.238 -59.115  1.00  0.00    -0.035 A 
HETATM   21  C   UNL     1     -44.526  58.626 -58.538  1.00  0.00     0.050 C 
HETATM   22  C   UNL     1     -45.582  56.975 -60.070  1.00  0.00     0.009 A 
HETATM   23  C   UNL     1     -45.760  55.698 -60.600  1.00  0.00     0.001 A 
HETATM   24  C   UNL     1     -44.945  54.657 -60.176  1.00  0.00     0.002 A 
HETATM   25  C   UNL     1     -43.936  54.903 -59.244  1.00  0.00     0.030 A 
ENDBRANCH   1  19
TORSDOF 4
ENDMDL
MODEL 2
REMARK VINA RESULT:      -7.9      1.371      8.035
REMARK  4 active torsions:
REMARK  status: ('A' for Active; 'I' for Inactive)
REMARK    1  A    between atoms: C_3  and  N_4 
REMARK       I    between atoms: N_4  and  C_5 
REMARK       I    between atoms: C_5  and  N_6 
REMARK    2  A    between atoms: N_6  and  C_7 
REMARK    3  A    between atoms: C_7  and  C_8 
REMARK    4  A    between atoms: C_11  and  C_12 
ROOT
HETATM    1  N   UNL     1     -41.636  53.977 -53.391  1.00  0.00    -0.309 N 
HETATM    2  C   UNL     1     -41.251  55.073 -54.135  1.00  0.00     0.321 C 
HETATM    3  N   UNL     1     -42.203  56.067 -54.055  1.00  0.00    -0.335 N 
HETATM    4  O   UNL     1     -40.194  55.223 -54.729  1.00  0.00    -0.247 OA
HETATM    5  H   UNL     1     -42.174  54.244 -52.579  1.00  0.00     0.170 HD
HETATM    6  H   UNL     1     -43.162  55.761 -53.969  1.00  0.00     0.164 HD
ENDROOT
BRANCH   3   7
HETATM    7  C   UNL     1     -41.954  57.365 -54.654  1.00  0.00     0.213 C 
BRANCH   7   8
HETATM    8  C   UNL     1     -42.499  57.494 -56.031  1.00  0.00     0.190 A 
HETATM    9  O   UNL     1     -42.162  58.590 -56.770  1.00  0.00    -0.194 OA
HETATM   10  N   UNL     1     -42.804  58.452 -58.000  1.00  0.00    -0.106 NA
HETATM   11  C   UNL     1     -43.486  57.301 -57.882  1.00  0.00     0.189 A 
HETATM   12  N   UNL     1     -43.296  56.667 -56.671  1.00  0.00    -0.202 NA
BRANCH  11  13
HETATM   13  C   UNL     1     -44.360  56.748 -58.912  1.00  0.00     0.014 A 
HETATM   14  C   UNL     1     -45.658  57.241 -59.109  1.00  0.00     0.015 A 
HETATM   15  C   UNL     1     -46.486  56.692 -60.092  1.00  0.00     0.001 A 
HETATM   16  C   UNL     1     -46.028  55.644 -60.889  1.00  0.00     0.000 A 
HETATM   17  C   UNL     1     -44.740  55.144 -60.705  1.00  0.00     0.001 A 
HETATM   18  C   UNL     1     -43.911  55.694 -59.724  1.00  0.00     0.015 A 
ENDBRANCH  11  13
ENDBRANCH   7   8
ENDBRANCH   3   7
BRANCH   1  19
HETATM   19  C   UNL     1     -40.859  52.804 -53.238  1.00  0.00     0.042 A 
HETATM   20  C   UNL     1     -40.092  52.496 -52.100  1.00  0.00    -0.035 A 
HETATM   21  C   UNL     1     -39.920  53.420 -50.926  1.00  0.00     0.050 C 
HETATM   22  C   UNL     1     -39.418  51.260 -52.053  1.00  0.00     0.009 A 
HETATM   23  C   UNL     1     -39.454  50.374 -53.129  1.00  0.00     0.001 A 
HETATM   24  C   UNL     1     -40.157  50.713 -54.277  1.00  0.00     0.002 A 
HETATM   25  C   UNL     1     -40.846  51.926 -54.334  1.00  0.00     0.030 A 
ENDBRANCH   1  19
TORSDOF 4
ENDMDL
MODEL 3
REMARK VINA RESULT:      -7.9      2.221      8.817
REMARK  4 active torsions:
REMARK  status: ('A' for Active; 'I' for Inactive)
REMARK    1  A    between atoms: C_3  and  N_4 
REMARK       I    between atoms: N_4  and  C_5 
REMARK       I    between atoms: C_5  and  N_6 
REMARK    2  A    between atoms: N_6  and  C_7 
REMARK    3  A    between atoms: C_7  and  C_8 
REMARK    4  A    between atoms: C_11  and  C_12 
ROOT
HETATM    1  N   UNL     1     -40.243  53.369 -54.006  1.00  0.00    -0.309 N 
HETATM    2  C   UNL     1     -41.463  54.012 -54.044  1.00  0.00     0.321 C 
HETATM    3  N   UNL     1     -41.383  55.152 -54.814  1.00  0.00    -0.335 N 
HETATM    4  O   UNL     1     -42.513  53.625 -53.552  1.00  0.00    -0.247 OA
HETATM    5  H   UNL     1     -39.728  53.491 -54.866  1.00  0.00     0.170 HD
HETATM    6  H   UNL     1     -40.497  55.639 -54.801  1.00  0.00     0.164 HD
ENDROOT
BRANCH   3   7
HETATM    7  C   UNL     1     -42.577  55.924 -55.103  1.00  0.00     0.213 C 
BRANCH   7   8
HETATM    8  C   UNL     1     -42.579  56.522 -56.463  1.00  0.00     0.190 A 
HETATM    9  O   UNL     1     -42.943  55.743 -57.522  1.00  0.00    -0.194 OA
HETATM   10  N   UNL     1     -42.855  56.550 -58.656  1.00  0.00    -0.106 NA
HETATM   11  C   UNL     1     -42.425  57.730 -58.181  1.00  0.00     0.189 A 
HETATM   12  N   UNL     1     -42.266  57.751 -56.811  1.00  0.00    -0.202 NA
BRANCH  11  13
HETATM   13  C   UNL     1     -42.135  58.898 -59.008  1.00  0.00     0.014 A 
HETATM   14  C   UNL     1     -41.837  60.142 -58.433  1.00  0.00     0.015 A 
HETATM   15  C   UNL     1     -41.574  61.254 -59.239  1.00  0.00     0.001 A 
HETATM   16  C   UNL     1     -41.607  61.136 -60.628  1.00  0.00     0.000 A 
HETATM   17  C   UNL     1     -41.900  59.905 -61.213  1.00  0.00     0.001 A 
HETATM   18  C   UNL     1     -42.161  58.794 -60.408  1.00  0.00     0.015 A 
ENDBRANCH  11  13
ENDBRANCH   7   8
ENDBRANCH   3   7
BRANCH   1  19
HETATM   19  C   UNL     1     -40.005  52.149 -53.329  1.00  0.00     0.042 A 
HETATM   20  C   UNL     1     -39.802  52.031 -51.943  1.00  0.00    -0.035 A 
HETATM   21  C   UNL     1     -39.717  53.201 -51.002  1.00  0.00     0.050 C 
HETATM   22  C   UNL     1     -39.643  50.745 -51.390  1.00  0.00     0.009 A 
HETATM   23  C   UNL     1     -39.627  49.607 -52.196  1.00  0.00     0.001 A 
HETATM   24  C   UNL     1     -39.760  49.735 -53.571  1.00  0.00     0.002 A 
HETATM   25  C   UNL     1     -39.937  51.000 -54.135  1.00  0.00     0.030 A 
ENDBRANCH   1  19
TORSDOF 4
ENDMDL
MODEL 4
REMARK VINA RESULT:      -7.8      1.955      2.833
REMARK  4 active torsions:
REMARK  status: ('A' for Active; 'I' for Inactive)
REMARK    1  A    between atoms: C_3  and  N_4 
REMARK       I    between atoms: N_4  and  C_5 
REMARK       I    between atoms: C_5  and  N_6 
REMARK    2  A    between atoms: N_6  and  C_7 
REMARK    3  A    between atoms: C_7  and  C_8 
REMARK    4  A    between atoms: C_11  and  C_12 
ROOT
HETATM    1  N   UNL     1     -45.884  57.295 -58.319  1.00  0.00    -0.309 N 
HETATM    2  C   UNL     1     -44.516  57.118 -58.305  1.00  0.00     0.321 C 
HETATM    3  N   UNL     1     -44.077  56.861 -57.024  1.00  0.00    -0.335 N 
HETATM    4  O   UNL     1     -43.768  57.100 -59.271  1.00  0.00    -0.247 OA
HETATM    5  H   UNL     1     -46.343  56.731 -57.617  1.00  0.00     0.170 HD
HETATM    6  H   UNL     1     -44.588  57.311 -56.277  1.00  0.00     0.164 HD
ENDROOT
BRANCH   3   7
HETATM    7  C   UNL     1     -42.689  56.514 -56.784  1.00  0.00     0.213 C 
BRANCH   7   8
HETATM    8  C   UNL     1     -42.500  55.589 -55.637  1.00  0.00     0.190 A 
HETATM    9  O   UNL     1     -43.408  55.611 -54.620  1.00  0.00    -0.194 OA
HETATM   10  N   UNL     1     -42.991  54.656 -53.693  1.00  0.00    -0.106 NA
HETATM   11  C   UNL     1     -41.860  54.164 -54.224  1.00  0.00     0.189 A 
HETATM   12  N   UNL     1     -41.540  54.710 -55.450  1.00  0.00    -0.202 NA
BRANCH  11  13
HETATM   13  C   UNL     1     -41.020  53.152 -53.589  1.00  0.00     0.014 A 
HETATM   14  C   UNL     1     -40.639  53.261 -52.244  1.00  0.00     0.015 A 
HETATM   15  C   UNL     1     -39.824  52.291 -51.654  1.00  0.00     0.001 A 
HETATM   16  C   UNL     1     -39.381  51.200 -52.401  1.00  0.00     0.000 A 
HETATM   17  C   UNL     1     -39.752  51.078 -53.738  1.00  0.00     0.001 A 
HETATM   18  C   UNL     1     -40.567  52.048 -54.327  1.00  0.00     0.015 A 
ENDBRANCH  11  13
ENDBRANCH   7   8
ENDBRANCH   3   7
BRANCH   1  19
HETATM   19  C   UNL     1     -46.645  57.538 -59.487  1.00  0.00     0.042 A 
HETATM   20  C   UNL     1     -47.079  58.807 -59.908  1.00  0.00    -0.035 A 
HETATM   21  C   UNL     1     -46.871  60.072 -59.121  1.00  0.00     0.050 C 
HETATM   22  C   UNL     1     -47.773  58.914 -61.130  1.00  0.00     0.009 A 
HETATM   23  C   UNL     1     -48.082  57.785 -61.888  1.00  0.00     0.001 A 
HETATM   24  C   UNL     1     -47.711  56.527 -61.433  1.00  0.00     0.002 A 
HETATM   25  C   UNL     1     -47.007  56.404 -60.235  1.00  0.00     0.030 A 
ENDBRANCH   1  19
TORSDOF 4
ENDMDL
MODEL 5
REMARK VINA RESULT:      -7.8      1.911      7.759
REMARK  4 active torsions:
REMARK  status: ('A' for Active; 'I' for Inactive)
REMARK    1  A    between atoms: C_3  and  N_4 
REMARK       I    between atoms: N_4  and  C_5 
REMARK       I    between atoms: C_5  and  N_6 
REMARK    2  A    between atoms: N_6  and  C_7 
REMARK    3  A    between atoms: C_7  and  C_8 
REMARK    4  A    between atoms: C_11  and  C_12 
ROOT
HETATM    1  N   UNL     1     -41.009  54.625 -52.152  1.00  0.00    -0.309 N 
HETATM    2  C   UNL     1     -42.323  54.973 -52.392  1.00  0.00     0.321 C 
HETATM    3  N   UNL     1     -42.480  56.341 -52.316  1.00  0.00    -0.335 N 
HETATM    4  O   UNL     1     -43.235  54.225 -52.710  1.00  0.00    -0.247 OA
HETATM    5  H   UNL     1     -40.368  55.334 -52.479  1.00  0.00     0.170 HD
HETATM    6  H   UNL     1     -41.887  56.823 -51.654  1.00  0.00     0.164 HD
ENDROOT
BRANCH   3   7
HETATM    7  C   UNL     1     -43.752  56.950 -52.658  1.00  0.00     0.213 C 
BRANCH   7   8
HETATM    8  C   UNL     1     -43.917  57.191 -54.115  1.00  0.00     0.190 A 
HETATM    9  O   UNL     1     -45.100  57.700 -54.566  1.00  0.00    -0.194 OA
HETATM   10  N   UNL     1     -44.978  57.822 -55.949  1.00  0.00    -0.106 NA
HETATM   11  C   UNL     1     -43.746  57.355 -56.208  1.00  0.00     0.189 A 
HETATM   12  N   UNL     1     -43.049  56.975 -55.079  1.00  0.00    -0.202 NA
BRANCH  11  13
HETATM   13  C   UNL     1     -43.169  57.239 -57.545  1.00  0.00     0.014 A 
HETATM   14  C   UNL     1     -42.440  58.292 -58.118  1.00  0.00     0.015 A 
HETATM   15  C   UNL     1     -41.905  58.169 -59.403  1.00  0.00     0.001 A 
HETATM   16  C   UNL     1     -42.091  56.995 -60.130  1.00  0.00     0.000 A 
HETATM   17  C   UNL     1     -42.812  55.940 -59.573  1.00  0.00     0.001 A 
HETATM   18  C   UNL     1     -43.346  56.062 -58.288  1.00  0.00     0.015 A 
ENDBRANCH  11  13
ENDBRANCH   7   8
ENDBRANCH   3   7
BRANCH   1  19
HETATM   19  C   UNL     1     -40.515  53.300 -52.194  1.00  0.00     0.042 A 
HETATM   20  C   UNL     1     -40.122  52.631 -53.367  1.00  0.00    -0.035 A 
HETATM   21  C   UNL     1     -40.262  53.204 -54.750  1.00  0.00     0.050 C 
HETATM   22  C   UNL     1     -39.584  51.333 -53.257  1.00  0.00     0.009 A 
HETATM   23  C   UNL     1     -39.491  50.690 -52.024  1.00  0.00     0.001 A 
HETATM   24  C   UNL     1     -39.945  51.329 -50.878  1.00  0.00     0.002 A 
HETATM   25  C   UNL     1     -40.464  52.621 -50.965  1.00  0.00     0.030 A 
ENDBRANCH   1  19
TORSDOF 4
ENDMDL
MODEL 6
REMARK VINA RESULT:      -7.8      6.139      7.977
REMARK  4 active torsions:
REMARK  status: ('A' for Active; 'I' for Inactive)
REMARK    1  A    between atoms: C_3  and  N_4 
REMARK       I    between atoms: N_4  and  C_5 
REMARK       I    between atoms: C_5  and  N_6 
REMARK    2  A    between atoms: N_6  and  C_7 
REMARK    3  A    between atoms: C_7  and  C_8 
REMARK    4  A    between atoms: C_11  and  C_12 
ROOT
HETATM    1  N   UNL     1     -44.752  60.316 -49.510  1.00  0.00    -0.309 N 
HETATM    2  C   UNL     1     -45.196  59.232 -50.240  1.00  0.00     0.321 C 
HETATM    3  N   UNL     1     -44.146  58.637 -50.906  1.00  0.00    -0.335 N 
HETATM    4  O   UNL     1     -46.329  58.775 -50.260  1.00  0.00    -0.247 OA
HETATM    5  H   UNL     1     -43.811  60.179 -49.170  1.00  0.00     0.170 HD
HETATM    6  H   UNL     1     -43.408  59.254 -51.217  1.00  0.00     0.164 HD
ENDROOT
BRANCH   3   7
HETATM    7  C   UNL     1     -44.351  57.400 -51.636  1.00  0.00     0.213 C 
BRANCH   7   8
HETATM    8  C   UNL     1     -43.191  56.474 -51.568  1.00  0.00     0.190 A 
HETATM    9  O   UNL     1     -42.203  56.726 -50.662  1.00  0.00    -0.194 OA
HETATM   10  N   UNL     1     -41.256  55.714 -50.815  1.00  0.00    -0.106 NA
HETATM   11  C   UNL     1     -41.748  54.960 -51.813  1.00  0.00     0.189 A 
HETATM   12  N   UNL     1     -42.967  55.397 -52.287  1.00  0.00    -0.202 NA
BRANCH  11  13
HETATM   13  C   UNL     1     -41.078  53.788 -52.371  1.00  0.00     0.014 A 
HETATM   14  C   UNL     1     -41.274  53.404 -53.705  1.00  0.00     0.015 A 
HETATM   15  C   UNL     1     -40.635  52.273 -54.221  1.00  0.00     0.001 A 
HETATM   16  C   UNL     1     -39.795  51.512 -53.409  1.00  0.00     0.000 A 
HETATM   17  C   UNL     1     -39.590  51.882 -52.081  1.00  0.00     0.001 A 
HETATM   18  C   UNL     1     -40.228  53.014 -51.567  1.00  0.00     0.015 A 
ENDBRANCH  11  13
ENDBRANCH   7   8
ENDBRANCH   3   7
BRANCH   1  19
HETATM   19  C   UNL     1     -45.579  61.116 -48.687  1.00  0.00     0.042 A 
HETATM   20  C   UNL     1     -46.363  62.189 -49.145  1.00  0.00    -0.035 A 
HETATM   21  C   UNL     1     -46.355  62.693 -50.562  1.00  0.00     0.050 C 
HETATM   22  C   UNL     1     -47.194  62.860 -48.227  1.00  0.00     0.009 A 
HETATM   23  C   UNL     1     -47.207  62.516 -46.876  1.00  0.00     0.001 A 
HETATM   24  C   UNL     1     -46.380  61.499 -46.417  1.00  0.00     0.002 A 
HETATM   25  C   UNL     1     -45.564  60.812 -47.315  1.00  0.00     0.030 A 
ENDBRANCH   1  19
TORSDOF 4
ENDMDL
MODEL 7
REMARK VINA RESULT:      -7.7      2.241      7.802
REMARK  4 active torsions:
REMARK  status: ('A' for Active; 'I' for Inactive)
REMARK    1  A    between atoms: C_3  and  N_4 
REMARK       I    between atoms: N_4  and  C_5 
REMARK       I    between atoms: C_5  and  N_6 
REMARK    2  A    between atoms: N_6  and  C_7 
REMARK    3  A    between atoms: C_7  and  C_8 
REMARK    4  A    between atoms: C_11  and  C_12 
ROOT
HETATM    1  N   UNL     1     -40.167  53.561 -51.636  1.00  0.00    -0.309 N 
HETATM    2  C   UNL     1     -41.379  54.127 -51.299  1.00  0.00     0.321 C 
HETATM    3  N   UNL     1     -41.235  55.480 -51.078  1.00  0.00    -0.335 N 
HETATM    4  O   UNL     1     -42.467  53.570 -51.266  1.00  0.00    -0.247 OA
HETATM    5  H   UNL     1     -39.583  54.205 -52.150  1.00  0.00     0.170 HD
HETATM    6  H   UNL     1     -40.352  55.776 -50.684  1.00  0.00     0.164 HD
ENDROOT
BRANCH   3   7
HETATM    7  C   UNL     1     -42.400  56.309 -50.835  1.00  0.00     0.213 C 
BRANCH   7   8
HETATM    8  C   UNL     1     -43.081  56.751 -52.079  1.00  0.00     0.190 A 
HETATM    9  O   UNL     1     -44.195  57.531 -51.976  1.00  0.00    -0.194 OA
HETATM   10  N   UNL     1     -44.618  57.793 -53.279  1.00  0.00    -0.106 NA
HETATM   11  C   UNL     1     -43.737  57.129 -54.045  1.00  0.00     0.189 A 
HETATM   12  N   UNL     1     -42.750  56.488 -53.324  1.00  0.00    -0.202 NA
BRANCH  11  13
HETATM   13  C   UNL     1     -43.791  57.065 -55.503  1.00  0.00     0.014 A 
HETATM   14  C   UNL     1     -44.673  57.873 -56.235  1.00  0.00     0.015 A 
HETATM   15  C   UNL     1     -44.721  57.790 -57.630  1.00  0.00     0.001 A 
HETATM   16  C   UNL     1     -43.891  56.899 -58.308  1.00  0.00     0.000 A 
HETATM   17  C   UNL     1     -43.009  56.091 -57.593  1.00  0.00     0.001 A 
HETATM   18  C   UNL     1     -42.960  56.174 -56.199  1.00  0.00     0.015 A 
ENDBRANCH  11  13
ENDBRANCH   7   8
ENDBRANCH   3   7
BRANCH   1  19
HETATM   19  C   UNL     1     -39.987  52.195 -51.960  1.00  0.00     0.042 A 
HETATM   20  C   UNL     1     -39.948  51.683 -53.269  1.00  0.00    -0.035 A 
HETATM   21  C   UNL     1     -40.186  52.509 -54.503  1.00  0.00     0.050 C 
HETATM   22  C   UNL     1     -39.695  50.309 -53.450  1.00  0.00     0.009 A 
HETATM   23  C   UNL     1     -39.542  49.451 -52.362  1.00  0.00     0.001 A 
HETATM   24  C   UNL     1     -39.650  49.951 -51.071  1.00  0.00     0.002 A 
HETATM   25  C   UNL     1     -39.882  51.312 -50.873  1.00  0.00     0.030 A 
ENDBRANCH   1  19
TORSDOF 4
ENDMDL
MODEL 8
REMARK VINA RESULT:      -7.7      5.583      9.228
REMARK  4 active torsions:
REMARK  status: ('A' for Active; 'I' for Inactive)
REMARK    1  A    between atoms: C_3  and  N_4 
REMARK       I    between atoms: N_4  and  C_5 
REMARK       I    between atoms: C_5  and  N_6 
REMARK    2  A    between atoms: N_6  and  C_7 
REMARK    3  A    between atoms: C_7  and  C_8 
REMARK    4  A    between atoms: C_11  and  C_12 
ROOT
HETATM    1  N   UNL     1     -42.826  54.472 -52.495  1.00  0.00    -0.309 N 
HETATM    2  C   UNL     1     -42.872  55.776 -52.940  1.00  0.00     0.321 C 
HETATM    3  N   UNL     1     -44.061  56.369 -52.571  1.00  0.00    -0.335 N 
HETATM    4  O   UNL     1     -41.983  56.390 -53.509  1.00  0.00    -0.247 OA
HETATM    5  H   UNL     1     -43.324  54.354 -51.623  1.00  0.00     0.170 HD
HETATM    6  H   UNL     1     -44.870  55.764 -52.535  1.00  0.00     0.164 HD
ENDROOT
BRANCH   3   7
HETATM    7  C   UNL     1     -44.280  57.782 -52.819  1.00  0.00     0.213 C 
BRANCH   7   8
HETATM    8  C   UNL     1     -44.776  58.521 -51.629  1.00  0.00     0.190 A 
HETATM    9  O   UNL     1     -45.846  58.022 -50.946  1.00  0.00    -0.194 OA
HETATM   10  N   UNL     1     -46.090  58.904 -49.893  1.00  0.00    -0.106 NA
HETATM   11  C   UNL     1     -45.163  59.863 -50.053  1.00  0.00     0.189 A 
HETATM   12  N   UNL     1     -44.312  59.638 -51.115  1.00  0.00    -0.202 NA
BRANCH  11  13
HETATM   13  C   UNL     1     -45.043  61.046 -49.206  1.00  0.00     0.014 A 
HETATM   14  C   UNL     1     -45.328  60.992 -47.834  1.00  0.00     0.015 A 
HETATM   15  C   UNL     1     -45.220  62.137 -47.039  1.00  0.00     0.001 A 
HETATM   16  C   UNL     1     -44.827  63.349 -47.606  1.00  0.00     0.000 A 
HETATM   17  C   UNL     1     -44.540  63.417 -48.968  1.00  0.00     0.001 A 
HETATM   18  C   UNL     1     -44.647  62.272 -49.762  1.00  0.00     0.015 A 
ENDBRANCH  11  13
ENDBRANCH   7   8
ENDBRANCH   3   7
BRANCH   1  19
HETATM   19  C   UNL     1     -41.723  53.604 -52.680  1.00  0.00     0.042 A 
HETATM   20  C   UNL     1     -40.762  53.314 -51.695  1.00  0.00    -0.035 A 
HETATM   21  C   UNL     1     -40.724  53.961 -50.338  1.00  0.00     0.050 C 
HETATM   22  C   UNL     1     -39.751  52.379 -51.993  1.00  0.00     0.009 A 
HETATM   23  C   UNL     1     -39.658  51.789 -53.253  1.00  0.00     0.001 A 
HETATM   24  C   UNL     1     -40.570  52.131 -54.242  1.00  0.00     0.002 A 
HETATM   25  C   UNL     1     -41.589  53.042 -53.960  1.00  0.00     0.030 A 
ENDBRANCH   1  19
TORSDOF 4
ENDMDL
MODEL 9
REMARK VINA RESULT:      -7.7      4.139      8.342
REMARK  4 active torsions:
REMARK  status: ('A' for Active; 'I' for Inactive)
REMARK    1  A    between atoms: C_3  and  N_4 
REMARK       I    between atoms: N_4  and  C_5 
REMARK       I    between atoms: C_5  and  N_6 
REMARK    2  A    between atoms: N_6  and  C_7 
REMARK    3  A    between atoms: C_7  and  C_8 
REMARK    4  A    between atoms: C_11  and  C_12 
ROOT
HETATM    1  N   UNL     1     -39.755  53.258 -51.413  1.00  0.00    -0.309 N 
HETATM    2  C   UNL     1     -40.878  53.991 -51.090  1.00  0.00     0.321 C 
HETATM    3  N   UNL     1     -40.526  55.134 -50.403  1.00  0.00    -0.335 N 
HETATM    4  O   UNL     1     -42.031  53.750 -51.413  1.00  0.00    -0.247 OA
HETATM    5  H   UNL     1     -38.955  53.851 -51.583  1.00  0.00     0.170 HD
HETATM    6  H   UNL     1     -39.715  55.062 -49.804  1.00  0.00     0.164 HD
ENDROOT
BRANCH   3   7
HETATM    7  C   UNL     1     -41.532  56.125 -50.071  1.00  0.00     0.213 C 
BRANCH   7   8
HETATM    8  C   UNL     1     -41.402  57.383 -50.851  1.00  0.00     0.190 A 
HETATM    9  O   UNL     1     -40.504  58.322 -50.436  1.00  0.00    -0.194 OA
HETATM   10  N   UNL     1     -40.592  59.381 -51.338  1.00  0.00    -0.106 NA
HETATM   11  C   UNL     1     -41.549  58.995 -52.198  1.00  0.00     0.189 A 
HETATM   12  N   UNL     1     -42.058  57.740 -51.933  1.00  0.00    -0.202 NA
BRANCH  11  13
HETATM   13  C   UNL     1     -42.035  59.804 -53.313  1.00  0.00     0.014 A 
HETATM   14  C   UNL     1     -42.737  60.998 -53.095  1.00  0.00     0.015 A 
HETATM   15  C   UNL     1     -43.207  61.754 -54.173  1.00  0.00     0.001 A 
HETATM   16  C   UNL     1     -42.980  61.326 -55.480  1.00  0.00     0.000 A 
HETATM   17  C   UNL     1     -42.283  60.141 -55.712  1.00  0.00     0.001 A 
HETATM   18  C   UNL     1     -41.813  59.386 -54.634  1.00  0.00     0.015 A 
ENDBRANCH  11  13
ENDBRANCH   7   8
ENDBRANCH   3   7
BRANCH   1  19
HETATM   19  C   UNL     1     -39.776  52.051 -52.152  1.00  0.00     0.042 A 
HETATM   20  C   UNL     1     -39.951  51.969 -53.544  1.00  0.00    -0.035 A 
HETATM   21  C   UNL     1     -40.233  53.153 -54.428  1.00  0.00     0.050 C 
HETATM   22  C   UNL     1     -39.884  50.704 -54.161  1.00  0.00     0.009 A 
HETATM   23  C   UNL     1     -39.707  49.542 -53.412  1.00  0.00     0.001 A 
HETATM   24  C   UNL     1     -39.603  49.622 -52.030  1.00  0.00     0.002 A 
HETATM   25  C   UNL     1     -39.649  50.868 -51.404  1.00  0.00     0.030 A 
ENDBRANCH   1  19
TORSDOF 4
ENDMDL
MODEL 10
REMARK VINA RESULT:      -7.6      5.305      9.169
REMARK  4 active torsions:
REMARK  status: ('A' for Active; 'I' for Inactive)
REMARK    1  A    between atoms: C_3  and  N_4 
REMARK       I    between atoms: N_4  and  C_5 
REMARK       I    between atoms: C_5  and  N_6 
REMARK    2  A    between atoms: N_6  and  C_7 
REMARK    3  A    between atoms: C_7  and  C_8 
REMARK    4  A    between atoms: C_11  and  C_12 
ROOT
HETATM    1  N   UNL     1     -41.329  55.091 -52.338  1.00  0.00    -0.309 N 
HETATM    2  C   UNL     1     -42.681  55.337 -52.455  1.00  0.00     0.321 C 
HETATM    3  N   UNL     1     -42.944  56.678 -52.274  1.00  0.00    -0.335 N 
HETATM    4  O   UNL     1     -43.551  54.533 -52.757  1.00  0.00    -0.247 OA
HETATM    5  H   UNL     1     -40.775  55.871 -52.661  1.00  0.00     0.170 HD
HETATM    6  H   UNL     1     -42.342  57.167 -51.626  1.00  0.00     0.164 HD
ENDROOT
BRANCH   3   7
HETATM    7  C   UNL     1     -44.284  57.193 -52.480  1.00  0.00     0.213 C 
BRANCH   7   8
HETATM    8  C   UNL     1     -44.664  58.255 -51.512  1.00  0.00     0.190 A 
HETATM    9  O   UNL     1     -45.776  58.075 -50.744  1.00  0.00    -0.194 OA
HETATM   10  N   UNL     1     -45.891  59.209 -49.941  1.00  0.00    -0.106 NA
HETATM   11  C   UNL     1     -44.855  59.977 -50.315  1.00  0.00     0.189 A 
HETATM   12  N   UNL     1     -44.056  59.397 -51.279  1.00  0.00    -0.202 NA
BRANCH  11  13
HETATM   13  C   UNL     1     -44.574  61.307 -49.779  1.00  0.00     0.014 A 
HETATM   14  C   UNL     1     -43.671  62.172 -50.413  1.00  0.00     0.015 A 
HETATM   15  C   UNL     1     -43.404  63.437 -49.881  1.00  0.00     0.001 A 
HETATM   16  C   UNL     1     -44.037  63.851 -48.709  1.00  0.00     0.000 A 
HETATM   17  C   UNL     1     -44.938  63.002 -48.069  1.00  0.00     0.001 A 
HETATM   18  C   UNL     1     -45.205  61.739 -48.602  1.00  0.00     0.015 A 
ENDBRANCH  11  13
ENDBRANCH   7   8
ENDBRANCH   3   7
BRANCH   1  19
HETATM   19  C   UNL     1     -40.732  53.818 -52.507  1.00  0.00     0.042 A 
HETATM   20  C   UNL     1     -40.377  53.261 -53.748  1.00  0.00    -0.035 A 
HETATM   21  C   UNL     1     -40.670  53.906 -55.075  1.00  0.00     0.050 C 
HETATM   22  C   UNL     1     -39.728  52.011 -53.767  1.00  0.00     0.009 A 
HETATM   23  C   UNL     1     -39.487  51.302 -52.591  1.00  0.00     0.001 A 
HETATM   24  C   UNL     1     -39.902  51.826 -51.374  1.00  0.00     0.002 A 
HETATM   25  C   UNL     1     -40.530  53.071 -51.334  1.00  0.00     0.030 A 
ENDBRANCH   1  19
TORSDOF 4
ENDMDL
