MODEL 1
REMARK VINA RESULT:      -8.1      0.000      0.000
REMARK  6 active torsions:
REMARK  status: ('A' for Active; 'I' for Inactive)
REMARK    1  A    between atoms: C_5  and  C_6 
REMARK    2  A    between atoms: C_6  and  S_7 
REMARK    3  A    between atoms: S_7  and  C_8 
REMARK    4  A    between atoms: C_10  and  N_11 
REMARK       I    between atoms: N_11  and  C_12 
REMARK    5  A    between atoms: C_12  and  C_13 
REMARK    6  A    between atoms: C_14  and  C_15 
ROOT
HETATM    1  C   UNL     1     -44.142  57.766 -59.818  1.00  0.00     0.160 A 
HETATM    2  S   UNL     1     -44.436  57.552 -58.147  1.00  0.00    -0.022 SA
HETATM    3  C   UNL     1     -43.469  56.152 -58.225  1.00  0.00     0.197 A 
HETATM    4  N   UNL     1     -43.000  55.884 -59.425  1.00  0.00    -0.122 NA
HETATM    5  N   UNL     1     -43.396  56.825 -60.359  1.00  0.00    -0.133 NA
ENDROOT
BRANCH   3   6
HETATM    6  N   UNL     1     -43.167  55.376 -57.131  1.00  0.00    -0.301 N 
HETATM    7  C   UNL     1     -42.383  55.744 -56.067  1.00  0.00     0.247 C 
HETATM    8  O   UNL     1     -41.876  56.839 -55.862  1.00  0.00    -0.268 OA
HETATM    9  H   UNL     1     -43.568  54.450 -57.179  1.00  0.00     0.171 HD
BRANCH   7  10
HETATM   10  C   UNL     1     -42.170  54.617 -55.111  1.00  0.00     0.075 C 
HETATM   11  C   UNL     1     -40.915  54.251 -54.806  1.00  0.00     0.017 C 
BRANCH  11  12
HETATM   12  C   UNL     1     -40.544  53.143 -53.912  1.00  0.00    -0.033 A 
HETATM   13  C   UNL     1     -40.320  51.840 -54.378  1.00  0.00     0.051 A 
HETATM   14  C   UNL     1     -39.910  50.884 -53.469  1.00  0.00     0.105 A 
HETATM   15  C   UNL     1     -39.712  51.178 -52.141  1.00  0.00     0.105 A 
HETATM   16  O   UNL     1     -39.640  49.582 -53.757  1.00  0.00    -0.323 OA
HETATM   17  O   UNL     1     -39.296  50.101 -51.427  1.00  0.00    -0.323 OA
HETATM   18  C   UNL     1     -39.915  52.446 -51.645  1.00  0.00     0.040 A 
HETATM   19  C   UNL     1     -39.237  49.095 -52.460  1.00  0.00     0.352 A 
HETATM   20  C   UNL     1     -40.331  53.435 -52.544  1.00  0.00     0.014 A 
ENDBRANCH  11  12
ENDBRANCH   7  10
ENDBRANCH   3   6
BRANCH   1  21
HETATM   21  S   UNL     1     -44.767  59.130 -60.709  1.00  0.00    -0.096 SA
BRANCH  21  22
HETATM   22  C   UNL     1     -46.499  59.141 -60.154  1.00  0.00     0.123 C 
BRANCH  22  23
HETATM   23  C   UNL     1     -47.417  58.638 -61.245  1.00  0.00    -0.005 A 
HETATM   24  C   UNL     1     -47.775  57.277 -61.331  1.00  0.00     0.042 A 
HETATM   25  C   UNL     1     -48.598  56.806 -62.361  1.00  0.00     0.024 A 
HETATM   26 CL   UNL     1     -47.215  56.103 -60.188  1.00  0.00    -0.084 Cl
HETATM   27  C   UNL     1     -49.078  57.679 -63.332  1.00  0.00     0.003 A 
HETATM   28  C   UNL     1     -48.731  59.025 -63.275  1.00  0.00     0.024 A 
HETATM   29  C   UNL     1     -47.909  59.501 -62.246  1.00  0.00     0.042 A 
HETATM   30 CL   UNL     1     -47.524  61.188 -62.276  1.00  0.00    -0.084 Cl
ENDBRANCH  22  23
ENDBRANCH  21  22
ENDBRANCH   1  21
TORSDOF 6
ENDMDL
MODEL 2
REMARK VINA RESULT:      -8.1      0.617      2.117
REMARK  6 active torsions:
REMARK  status: ('A' for Active; 'I' for Inactive)
REMARK    1  A    between atoms: C_5  and  C_6 
REMARK    2  A    between atoms: C_6  and  S_7 
REMARK    3  A    between atoms: S_7  and  C_8 
REMARK    4  A    between atoms: C_10  and  N_11 
REMARK       I    between atoms: N_11  and  C_12 
REMARK    5  A    between atoms: C_12  and  C_13 
REMARK    6  A    between atoms: C_14  and  C_15 
ROOT
HETATM    1  C   UNL     1     -43.989  57.781 -59.731  1.00  0.00     0.160 A 
HETATM    2  S   UNL     1     -44.370  57.387 -58.111  1.00  0.00    -0.022 SA
HETATM    3  C   UNL     1     -43.294  56.074 -58.249  1.00  0.00     0.197 A 
HETATM    4  N   UNL     1     -42.732  55.957 -59.433  1.00  0.00    -0.122 NA
HETATM    5  N   UNL     1     -43.140  56.952 -60.302  1.00  0.00    -0.133 NA
ENDROOT
BRANCH   3   6
HETATM    6  N   UNL     1     -43.003  55.218 -57.213  1.00  0.00    -0.301 N 
HETATM    7  C   UNL     1     -42.284  55.526 -56.085  1.00  0.00     0.247 C 
HETATM    8  O   UNL     1     -41.840  56.621 -55.763  1.00  0.00    -0.268 OA
HETATM    9  H   UNL     1     -43.356  54.283 -57.358  1.00  0.00     0.171 HD
BRANCH   7  10
HETATM   10  C   UNL     1     -42.059  54.331 -55.220  1.00  0.00     0.075 C 
HETATM   11  C   UNL     1     -40.805  54.020 -54.853  1.00  0.00     0.017 C 
BRANCH  11  12
HETATM   12  C   UNL     1     -40.419  52.860 -54.035  1.00  0.00    -0.033 A 
HETATM   13  C   UNL     1     -40.391  52.901 -52.633  1.00  0.00     0.051 A 
HETATM   14  C   UNL     1     -40.081  51.740 -51.953  1.00  0.00     0.105 A 
HETATM   15  C   UNL     1     -39.811  50.562 -52.608  1.00  0.00     0.105 A 
HETATM   16  O   UNL     1     -40.021  51.607 -50.601  1.00  0.00    -0.323 OA
HETATM   17  O   UNL     1     -39.545  49.541 -51.752  1.00  0.00    -0.323 OA
HETATM   18  C   UNL     1     -39.833  50.478 -53.981  1.00  0.00     0.040 A 
HETATM   19  C   UNL     1     -39.695  50.206 -50.480  1.00  0.00     0.352 A 
HETATM   20  C   UNL     1     -40.146  51.640 -54.697  1.00  0.00     0.014 A 
ENDBRANCH  11  12
ENDBRANCH   7  10
ENDBRANCH   3   6
BRANCH   1  21
HETATM   21  S   UNL     1     -44.661  59.178 -60.534  1.00  0.00    -0.096 SA
BRANCH  21  22
HETATM   22  C   UNL     1     -46.387  59.104 -59.969  1.00  0.00     0.123 C 
BRANCH  22  23
HETATM   23  C   UNL     1     -47.304  58.675 -61.093  1.00  0.00    -0.005 A 
HETATM   24  C   UNL     1     -47.869  59.618 -61.975  1.00  0.00     0.042 A 
HETATM   25  C   UNL     1     -48.744  59.226 -62.995  1.00  0.00     0.024 A 
HETATM   26 CL   UNL     1     -47.534  61.313 -61.852  1.00  0.00    -0.084 Cl
HETATM   27  C   UNL     1     -49.082  57.885 -63.154  1.00  0.00     0.003 A 
HETATM   28  C   UNL     1     -48.545  56.937 -62.290  1.00  0.00     0.024 A 
HETATM   29  C   UNL     1     -47.668  57.325 -61.269  1.00  0.00     0.042 A 
HETATM   30 CL   UNL     1     -47.070  56.069 -60.239  1.00  0.00    -0.084 Cl
ENDBRANCH  22  23
ENDBRANCH  21  22
ENDBRANCH   1  21
TORSDOF 6
ENDMDL
MODEL 3
REMARK VINA RESULT:      -8.1      2.301      3.016
REMARK  6 active torsions:
REMARK  status: ('A' for Active; 'I' for Inactive)
REMARK    1  A    between atoms: C_5  and  C_6 
REMARK    2  A    between atoms: C_6  and  S_7 
REMARK    3  A    between atoms: S_7  and  C_8 
REMARK    4  A    between atoms: C_10  and  N_11 
REMARK       I    between atoms: N_11  and  C_12 
REMARK    5  A    between atoms: C_12  and  C_13 
REMARK    6  A    between atoms: C_14  and  C_15 
ROOT
HETATM    1  C   UNL     1     -43.708  59.194 -57.495  1.00  0.00     0.160 A 
HETATM    2  S   UNL     1     -44.293  57.860 -56.601  1.00  0.00    -0.022 SA
HETATM    3  C   UNL     1     -42.692  57.589 -56.085  1.00  0.00     0.197 A 
HETATM    4  N   UNL     1     -41.814  58.435 -56.581  1.00  0.00    -0.122 NA
HETATM    5  N   UNL     1     -42.406  59.372 -57.409  1.00  0.00    -0.133 NA
ENDROOT
BRANCH   3   6
HETATM    6  N   UNL     1     -42.336  56.598 -55.202  1.00  0.00    -0.301 N 
HETATM    7  C   UNL     1     -41.843  56.780 -53.934  1.00  0.00     0.247 C 
HETATM    8  O   UNL     1     -41.703  57.840 -53.338  1.00  0.00    -0.268 OA
HETATM    9  H   UNL     1     -42.446  55.668 -55.582  1.00  0.00     0.171 HD
BRANCH   7  10
HETATM   10  C   UNL     1     -41.452  55.490 -53.294  1.00  0.00     0.075 C 
HETATM   11  C   UNL     1     -40.842  54.553 -54.038  1.00  0.00     0.017 C 
BRANCH  11  12
HETATM   12  C   UNL     1     -40.427  53.224 -53.562  1.00  0.00    -0.033 A 
HETATM   13  C   UNL     1     -40.316  52.911 -52.200  1.00  0.00     0.051 A 
HETATM   14  C   UNL     1     -39.985  51.617 -51.853  1.00  0.00     0.105 A 
HETATM   15  C   UNL     1     -39.773  50.641 -52.797  1.00  0.00     0.105 A 
HETATM   16  O   UNL     1     -39.848  51.147 -50.583  1.00  0.00    -0.323 OA
HETATM   17  O   UNL     1     -39.473  49.437 -52.243  1.00  0.00    -0.323 OA
HETATM   18  C   UNL     1     -39.878  50.905 -54.143  1.00  0.00     0.040 A 
HETATM   19  C   UNL     1     -39.538  49.761 -50.839  1.00  0.00     0.352 A 
HETATM   20  C   UNL     1     -40.213  52.209 -54.524  1.00  0.00     0.014 A 
ENDBRANCH  11  12
ENDBRANCH   7  10
ENDBRANCH   3   6
BRANCH   1  21
HETATM   21  S   UNL     1     -44.763  60.234 -58.420  1.00  0.00    -0.096 SA
BRANCH  21  22
HETATM   22  C   UNL     1     -44.481  59.603 -60.102  1.00  0.00     0.123 C 
BRANCH  22  23
HETATM   23  C   UNL     1     -44.883  58.149 -60.206  1.00  0.00    -0.005 A 
HETATM   24  C   UNL     1     -43.917  57.129 -60.322  1.00  0.00     0.042 A 
HETATM   25  C   UNL     1     -44.290  55.785 -60.452  1.00  0.00     0.024 A 
HETATM   26 CL   UNL     1     -42.218  57.465 -60.326  1.00  0.00    -0.084 Cl
HETATM   27  C   UNL     1     -45.635  55.429 -60.476  1.00  0.00     0.003 A 
HETATM   28  C   UNL     1     -46.607  56.418 -60.373  1.00  0.00     0.024 A 
HETATM   29  C   UNL     1     -46.239  57.763 -60.242  1.00  0.00     0.042 A 
HETATM   30 CL   UNL     1     -47.526  58.915 -60.137  1.00  0.00    -0.084 Cl
ENDBRANCH  22  23
ENDBRANCH  21  22
ENDBRANCH   1  21
TORSDOF 6
ENDMDL
MODEL 4
REMARK VINA RESULT:      -8.0      7.199      8.946
REMARK  6 active torsions:
REMARK  status: ('A' for Active; 'I' for Inactive)
REMARK    1  A    between atoms: C_5  and  C_6 
REMARK    2  A    between atoms: C_6  and  S_7 
REMARK    3  A    between atoms: S_7  and  C_8 
REMARK    4  A    between atoms: C_10  and  N_11 
REMARK       I    between atoms: N_11  and  C_12 
REMARK    5  A    between atoms: C_12  and  C_13 
REMARK    6  A    between atoms: C_14  and  C_15 
ROOT
HETATM    1  C   UNL     1     -46.060  59.901 -51.665  1.00  0.00     0.160 A 
HETATM    2  S   UNL     1     -45.032  59.168 -52.818  1.00  0.00    -0.022 SA
HETATM    3  C   UNL     1     -44.944  57.818 -51.782  1.00  0.00     0.197 A 
HETATM    4  N   UNL     1     -45.623  57.951 -50.663  1.00  0.00    -0.122 NA
HETATM    5  N   UNL     1     -46.273  59.169 -50.591  1.00  0.00    -0.133 NA
ENDROOT
BRANCH   3   6
HETATM    6  N   UNL     1     -44.254  56.669 -52.089  1.00  0.00    -0.301 N 
HETATM    7  C   UNL     1     -42.891  56.512 -52.069  1.00  0.00     0.247 C 
HETATM    8  O   UNL     1     -42.055  57.331 -51.709  1.00  0.00    -0.268 OA
HETATM    9  H   UNL     1     -44.856  55.907 -52.369  1.00  0.00     0.171 HD
BRANCH   7  10
HETATM   10  C   UNL     1     -42.474  55.169 -52.567  1.00  0.00     0.075 C 
HETATM   11  C   UNL     1     -41.315  54.645 -52.136  1.00  0.00     0.017 C 
BRANCH  11  12
HETATM   12  C   UNL     1     -40.754  53.353 -52.560  1.00  0.00    -0.033 A 
HETATM   13  C   UNL     1     -40.257  52.411 -51.647  1.00  0.00     0.051 A 
HETATM   14  C   UNL     1     -39.813  51.199 -52.138  1.00  0.00     0.105 A 
HETATM   15  C   UNL     1     -39.854  50.896 -53.477  1.00  0.00     0.105 A 
HETATM   16  O   UNL     1     -39.314  50.178 -51.391  1.00  0.00    -0.323 OA
HETATM   17  O   UNL     1     -39.384  49.650 -53.743  1.00  0.00    -0.323 OA
HETATM   18  C   UNL     1     -40.340  51.789 -54.404  1.00  0.00     0.040 A 
HETATM   19  C   UNL     1     -39.058  49.193 -52.414  1.00  0.00     0.352 A 
HETATM   20  C   UNL     1     -40.797  53.026 -53.935  1.00  0.00     0.014 A 
ENDBRANCH  11  12
ENDBRANCH   7  10
ENDBRANCH   3   6
BRANCH   1  21
HETATM   21  S   UNL     1     -46.774  61.474 -51.917  1.00  0.00    -0.096 SA
BRANCH  21  22
HETATM   22  C   UNL     1     -45.584  62.536 -51.042  1.00  0.00     0.123 C 
BRANCH  22  23
HETATM   23  C   UNL     1     -45.676  62.330 -49.547  1.00  0.00    -0.005 A 
HETATM   24  C   UNL     1     -44.685  61.614 -48.845  1.00  0.00     0.042 A 
HETATM   25  C   UNL     1     -44.786  61.395 -47.466  1.00  0.00     0.024 A 
HETATM   26 CL   UNL     1     -43.293  60.952 -49.634  1.00  0.00    -0.084 Cl
HETATM   27  C   UNL     1     -45.882  61.877 -46.757  1.00  0.00     0.003 A 
HETATM   28  C   UNL     1     -46.879  62.577 -47.429  1.00  0.00     0.024 A 
HETATM   29  C   UNL     1     -46.780  62.801 -48.808  1.00  0.00     0.042 A 
HETATM   30 CL   UNL     1     -48.081  63.668 -49.549  1.00  0.00    -0.084 Cl
ENDBRANCH  22  23
ENDBRANCH  21  22
ENDBRANCH   1  21
TORSDOF 6
ENDMDL
MODEL 5
REMARK VINA RESULT:      -7.9      2.303      3.267
REMARK  6 active torsions:
REMARK  status: ('A' for Active; 'I' for Inactive)
REMARK    1  A    between atoms: C_5  and  C_6 
REMARK    2  A    between atoms: C_6  and  S_7 
REMARK    3  A    between atoms: S_7  and  C_8 
REMARK    4  A    between atoms: C_10  and  N_11 
REMARK       I    between atoms: N_11  and  C_12 
REMARK    5  A    between atoms: C_12  and  C_13 
REMARK    6  A    between atoms: C_14  and  C_15 
ROOT
HETATM    1  C   UNL     1     -43.857  59.140 -57.479  1.00  0.00     0.160 A 
HETATM    2  S   UNL     1     -42.355  58.511 -56.956  1.00  0.00    -0.022 SA
HETATM    3  C   UNL     1     -43.221  57.533 -55.863  1.00  0.00     0.197 A 
HETATM    4  N   UNL     1     -44.525  57.707 -55.898  1.00  0.00    -0.122 NA
HETATM    5  N   UNL     1     -44.898  58.649 -56.840  1.00  0.00    -0.133 NA
ENDROOT
BRANCH   3   6
HETATM    6  N   UNL     1     -42.627  56.613 -55.032  1.00  0.00    -0.301 N 
HETATM    7  C   UNL     1     -41.683  56.878 -54.072  1.00  0.00     0.247 C 
HETATM    8  O   UNL     1     -41.257  57.975 -53.733  1.00  0.00    -0.268 OA
HETATM    9  H   UNL     1     -42.935  55.666 -55.202  1.00  0.00     0.171 HD
BRANCH   7  10
HETATM   10  C   UNL     1     -41.170  55.632 -53.431  1.00  0.00     0.075 C 
HETATM   11  C   UNL     1     -41.001  54.535 -54.186  1.00  0.00     0.017 C 
BRANCH  11  12
HETATM   12  C   UNL     1     -40.537  53.227 -53.697  1.00  0.00    -0.033 A 
HETATM   13  C   UNL     1     -40.374  52.946 -52.332  1.00  0.00     0.051 A 
HETATM   14  C   UNL     1     -39.999  51.668 -51.970  1.00  0.00     0.105 A 
HETATM   15  C   UNL     1     -39.792  50.678 -52.901  1.00  0.00     0.105 A 
HETATM   16  O   UNL     1     -39.808  51.230 -50.696  1.00  0.00    -0.323 OA
HETATM   17  O   UNL     1     -39.444  49.494 -52.332  1.00  0.00    -0.323 OA
HETATM   18  C   UNL     1     -39.948  50.910 -54.248  1.00  0.00     0.040 A 
HETATM   19  C   UNL     1     -39.471  49.846 -50.933  1.00  0.00     0.352 A 
HETATM   20  C   UNL     1     -40.328  52.197 -54.644  1.00  0.00     0.014 A 
ENDBRANCH  11  12
ENDBRANCH   7  10
ENDBRANCH   3   6
BRANCH   1  21
HETATM   21  S   UNL     1     -43.981  60.314 -58.764  1.00  0.00    -0.096 SA
BRANCH  21  22
HETATM   22  C   UNL     1     -43.647  59.272 -60.216  1.00  0.00     0.123 C 
BRANCH  22  23
HETATM   23  C   UNL     1     -44.567  58.072 -60.240  1.00  0.00    -0.005 A 
HETATM   24  C   UNL     1     -45.966  58.224 -60.323  1.00  0.00     0.042 A 
HETATM   25  C   UNL     1     -46.819  57.114 -60.312  1.00  0.00     0.024 A 
HETATM   26 CL   UNL     1     -46.719  59.779 -60.429  1.00  0.00    -0.084 Cl
HETATM   27  C   UNL     1     -46.298  55.828 -60.210  1.00  0.00     0.003 A 
HETATM   28  C   UNL     1     -44.921  55.652 -60.118  1.00  0.00     0.024 A 
HETATM   29  C   UNL     1     -44.063  56.760 -60.130  1.00  0.00     0.042 A 
HETATM   30 CL   UNL     1     -42.370  56.432 -59.993  1.00  0.00    -0.084 Cl
ENDBRANCH  22  23
ENDBRANCH  21  22
ENDBRANCH   1  21
TORSDOF 6
ENDMDL
MODEL 6
REMARK VINA RESULT:      -7.9      3.557      4.919
REMARK  6 active torsions:
REMARK  status: ('A' for Active; 'I' for Inactive)
REMARK    1  A    between atoms: C_5  and  C_6 
REMARK    2  A    between atoms: C_6  and  S_7 
REMARK    3  A    between atoms: S_7  and  C_8 
REMARK    4  A    between atoms: C_10  and  N_11 
REMARK       I    between atoms: N_11  and  C_12 
REMARK    5  A    between atoms: C_12  and  C_13 
REMARK    6  A    between atoms: C_14  and  C_15 
ROOT
HETATM    1  C   UNL     1     -43.368  58.812 -59.496  1.00  0.00     0.160 A 
HETATM    2  S   UNL     1     -42.264  57.509 -59.424  1.00  0.00    -0.022 SA
HETATM    3  C   UNL     1     -42.951  57.098 -57.920  1.00  0.00     0.197 A 
HETATM    4  N   UNL     1     -43.910  57.908 -57.524  1.00  0.00    -0.122 NA
HETATM    5  N   UNL     1     -44.153  58.913 -58.444  1.00  0.00    -0.133 NA
ENDROOT
BRANCH   3   6
HETATM    6  N   UNL     1     -42.569  56.002 -57.184  1.00  0.00    -0.301 N 
HETATM    7  C   UNL     1     -42.025  56.019 -55.924  1.00  0.00     0.247 C 
HETATM    8  O   UNL     1     -41.849  56.995 -55.206  1.00  0.00    -0.268 OA
HETATM    9  H   UNL     1     -42.704  55.128 -57.673  1.00  0.00     0.171 HD
BRANCH   7  10
HETATM   10  C   UNL     1     -41.622  54.657 -55.469  1.00  0.00     0.075 C 
HETATM   11  C   UNL     1     -41.027  54.520 -54.273  1.00  0.00     0.017 C 
BRANCH  11  12
HETATM   12  C   UNL     1     -40.544  53.254 -53.701  1.00  0.00    -0.033 A 
HETATM   13  C   UNL     1     -40.472  53.029 -52.318  1.00  0.00     0.051 A 
HETATM   14  C   UNL     1     -40.070  51.783 -51.880  1.00  0.00     0.105 A 
HETATM   15  C   UNL     1     -39.749  50.772 -52.754  1.00  0.00     0.105 A 
HETATM   16  O   UNL     1     -39.957  51.399 -50.580  1.00  0.00    -0.323 OA
HETATM   17  O   UNL     1     -39.393  49.627 -52.116  1.00  0.00    -0.323 OA
HETATM   18  C   UNL     1     -39.811  50.950 -54.117  1.00  0.00     0.040 A 
HETATM   19  C   UNL     1     -39.542  50.026 -50.738  1.00  0.00     0.352 A 
HETATM   20  C   UNL     1     -40.218  52.203 -54.590  1.00  0.00     0.014 A 
ENDBRANCH  11  12
ENDBRANCH   7  10
ENDBRANCH   3   6
BRANCH   1  21
HETATM   21  S   UNL     1     -43.449  59.893 -60.865  1.00  0.00    -0.096 SA
BRANCH  21  22
HETATM   22  C   UNL     1     -43.381  61.508 -60.033  1.00  0.00     0.123 C 
BRANCH  22  23
HETATM   23  C   UNL     1     -41.975  62.064 -60.050  1.00  0.00    -0.005 A 
HETATM   24  C   UNL     1     -41.132  61.955 -58.925  1.00  0.00     0.042 A 
HETATM   25  C   UNL     1     -39.841  62.498 -58.928  1.00  0.00     0.024 A 
HETATM   26 CL   UNL     1     -41.633  61.160 -57.471  1.00  0.00    -0.084 Cl
HETATM   27  C   UNL     1     -39.365  63.170 -60.050  1.00  0.00     0.003 A 
HETATM   28  C   UNL     1     -40.181  63.300 -61.169  1.00  0.00     0.024 A 
HETATM   29  C   UNL     1     -41.472  62.756 -61.170  1.00  0.00     0.042 A 
HETATM   30 CL   UNL     1     -42.411  62.988 -62.606  1.00  0.00    -0.084 Cl
ENDBRANCH  22  23
ENDBRANCH  21  22
ENDBRANCH   1  21
TORSDOF 6
ENDMDL
MODEL 7
REMARK VINA RESULT:      -7.8      4.527     11.343
REMARK  6 active torsions:
REMARK  status: ('A' for Active; 'I' for Inactive)
REMARK    1  A    between atoms: C_5  and  C_6 
REMARK    2  A    between atoms: C_6  and  S_7 
REMARK    3  A    between atoms: S_7  and  C_8 
REMARK    4  A    between atoms: C_10  and  N_11 
REMARK       I    between atoms: N_11  and  C_12 
REMARK    5  A    between atoms: C_12  and  C_13 
REMARK    6  A    between atoms: C_14  and  C_15 
ROOT
HETATM    1  C   UNL     1     -43.168  55.387 -52.792  1.00  0.00     0.160 A 
HETATM    2  S   UNL     1     -43.563  54.895 -54.381  1.00  0.00    -0.022 SA
HETATM    3  C   UNL     1     -43.928  56.524 -54.722  1.00  0.00     0.197 A 
HETATM    4  N   UNL     1     -43.778  57.337 -53.699  1.00  0.00    -0.122 NA
HETATM    5  N   UNL     1     -43.337  56.673 -52.568  1.00  0.00    -0.133 NA
ENDROOT
BRANCH   3   6
HETATM    6  N   UNL     1     -44.317  56.972 -55.962  1.00  0.00    -0.301 N 
HETATM    7  C   UNL     1     -43.547  57.688 -56.844  1.00  0.00     0.247 C 
HETATM    8  O   UNL     1     -42.367  57.991 -56.722  1.00  0.00    -0.268 OA
HETATM    9  H   UNL     1     -45.276  56.744 -56.185  1.00  0.00     0.171 HD
BRANCH   7  10
HETATM   10  C   UNL     1     -44.320  58.110 -58.049  1.00  0.00     0.075 C 
HETATM   11  C   UNL     1     -45.475  57.487 -58.332  1.00  0.00     0.017 C 
BRANCH  11  12
HETATM   12  C   UNL     1     -46.330  57.765 -59.497  1.00  0.00    -0.033 A 
HETATM   13  C   UNL     1     -46.723  56.766 -60.400  1.00  0.00     0.051 A 
HETATM   14  C   UNL     1     -47.582  57.114 -61.423  1.00  0.00     0.105 A 
HETATM   15  C   UNL     1     -48.059  58.395 -61.571  1.00  0.00     0.105 A 
HETATM   16  O   UNL     1     -48.066  56.269 -62.373  1.00  0.00    -0.323 OA
HETATM   17  O   UNL     1     -48.899  58.518 -62.631  1.00  0.00    -0.323 OA
HETATM   18  C   UNL     1     -47.702  59.402 -60.703  1.00  0.00     0.040 A 
HETATM   19  C   UNL     1     -48.912  57.163 -63.126  1.00  0.00     0.352 A 
HETATM   20  C   UNL     1     -46.832  59.078 -59.655  1.00  0.00     0.014 A 
ENDBRANCH  11  12
ENDBRANCH   7  10
ENDBRANCH   3   6
BRANCH   1  21
HETATM   21  S   UNL     1     -42.574  54.270 -51.590  1.00  0.00    -0.096 SA
BRANCH  21  22
HETATM   22  C   UNL     1     -40.807  54.213 -52.015  1.00  0.00     0.123 C 
BRANCH  22  23
HETATM   23  C   UNL     1     -40.371  52.797 -52.317  1.00  0.00    -0.005 A 
HETATM   24  C   UNL     1     -40.143  51.866 -51.283  1.00  0.00     0.042 A 
HETATM   25  C   UNL     1     -39.707  50.564 -51.560  1.00  0.00     0.024 A 
HETATM   26 CL   UNL     1     -40.371  52.267 -49.614  1.00  0.00    -0.084 Cl
HETATM   27  C   UNL     1     -39.481  50.164 -52.873  1.00  0.00     0.003 A 
HETATM   28  C   UNL     1     -39.689  51.067 -53.910  1.00  0.00     0.024 A 
HETATM   29  C   UNL     1     -40.127  52.369 -53.638  1.00  0.00     0.042 A 
HETATM   30 CL   UNL     1     -40.338  53.418 -54.998  1.00  0.00    -0.084 Cl
ENDBRANCH  22  23
ENDBRANCH  21  22
ENDBRANCH   1  21
TORSDOF 6
ENDMDL
MODEL 8
REMARK VINA RESULT:      -7.6      6.090     11.528
REMARK  6 active torsions:
REMARK  status: ('A' for Active; 'I' for Inactive)
REMARK    1  A    between atoms: C_5  and  C_6 
REMARK    2  A    between atoms: C_6  and  S_7 
REMARK    3  A    between atoms: S_7  and  C_8 
REMARK    4  A    between atoms: C_10  and  N_11 
REMARK       I    between atoms: N_11  and  C_12 
REMARK    5  A    between atoms: C_12  and  C_13 
REMARK    6  A    between atoms: C_14  and  C_15 
ROOT
HETATM    1  C   UNL     1     -42.858  55.786 -53.552  1.00  0.00     0.160 A 
HETATM    2  S   UNL     1     -41.618  56.913 -53.891  1.00  0.00    -0.022 SA
HETATM    3  C   UNL     1     -42.659  57.608 -55.047  1.00  0.00     0.197 A 
HETATM    4  N   UNL     1     -43.823  57.004 -55.159  1.00  0.00    -0.122 NA
HETATM    5  N   UNL     1     -43.940  55.936 -54.288  1.00  0.00    -0.133 NA
ENDROOT
BRANCH   3   6
HETATM    6  N   UNL     1     -42.339  58.722 -55.786  1.00  0.00    -0.301 N 
HETATM    7  C   UNL     1     -42.678  60.018 -55.486  1.00  0.00     0.247 C 
HETATM    8  O   UNL     1     -43.254  60.422 -54.485  1.00  0.00    -0.268 OA
HETATM    9  H   UNL     1     -41.825  58.507 -56.628  1.00  0.00     0.171 HD
BRANCH   7  10
HETATM   10  C   UNL     1     -42.268  60.968 -56.562  1.00  0.00     0.075 C 
HETATM   11  C   UNL     1     -41.704  60.481 -57.679  1.00  0.00     0.017 C 
BRANCH  11  12
HETATM   12  C   UNL     1     -41.218  61.288 -58.810  1.00  0.00    -0.033 A 
HETATM   13  C   UNL     1     -40.193  62.235 -58.675  1.00  0.00     0.051 A 
HETATM   14  C   UNL     1     -39.761  62.893 -59.810  1.00  0.00     0.105 A 
HETATM   15  C   UNL     1     -40.299  62.640 -61.049  1.00  0.00     0.105 A 
HETATM   16  O   UNL     1     -38.774  63.829 -59.855  1.00  0.00    -0.323 OA
HETATM   17  O   UNL     1     -39.722  63.385 -62.028  1.00  0.00    -0.323 OA
HETATM   18  C   UNL     1     -41.302  61.715 -61.224  1.00  0.00     0.040 A 
HETATM   19  C   UNL     1     -38.745  64.125 -61.267  1.00  0.00     0.352 A 
HETATM   20  C   UNL     1     -41.759  61.031 -60.091  1.00  0.00     0.014 A 
ENDBRANCH  11  12
ENDBRANCH   7  10
ENDBRANCH   3   6
BRANCH   1  21
HETATM   21  S   UNL     1     -42.695  54.563 -52.317  1.00  0.00    -0.096 SA
BRANCH  21  22
HETATM   22  C   UNL     1     -40.887  54.495 -52.136  1.00  0.00     0.123 C 
BRANCH  22  23
HETATM   23  C   UNL     1     -40.376  53.089 -52.360  1.00  0.00    -0.005 A 
HETATM   24  C   UNL     1     -40.167  52.585 -53.660  1.00  0.00     0.042 A 
HETATM   25  C   UNL     1     -39.725  51.273 -53.869  1.00  0.00     0.024 A 
HETATM   26 CL   UNL     1     -40.450  53.542 -55.076  1.00  0.00    -0.084 Cl
HETATM   27  C   UNL     1     -39.491  50.431 -52.787  1.00  0.00     0.003 A 
HETATM   28  C   UNL     1     -39.700  50.901 -51.494  1.00  0.00     0.024 A 
HETATM   29  C   UNL     1     -40.140  52.214 -51.281  1.00  0.00     0.042 A 
HETATM   30 CL   UNL     1     -40.384  52.693 -49.636  1.00  0.00    -0.084 Cl
ENDBRANCH  22  23
ENDBRANCH  21  22
ENDBRANCH   1  21
TORSDOF 6
ENDMDL
MODEL 9
REMARK VINA RESULT:      -7.6      8.116     12.117
REMARK  6 active torsions:
REMARK  status: ('A' for Active; 'I' for Inactive)
REMARK    1  A    between atoms: C_5  and  C_6 
REMARK    2  A    between atoms: C_6  and  S_7 
REMARK    3  A    between atoms: S_7  and  C_8 
REMARK    4  A    between atoms: C_10  and  N_11 
REMARK       I    between atoms: N_11  and  C_12 
REMARK    5  A    between atoms: C_12  and  C_13 
REMARK    6  A    between atoms: C_14  and  C_15 
ROOT
HETATM    1  C   UNL     1     -41.819  54.217 -50.415  1.00  0.00     0.160 A 
HETATM    2  S   UNL     1     -41.445  55.824 -49.964  1.00  0.00    -0.022 SA
HETATM    3  C   UNL     1     -42.819  56.318 -50.842  1.00  0.00     0.197 A 
HETATM    4  N   UNL     1     -43.467  55.335 -51.431  1.00  0.00    -0.122 NA
HETATM    5  N   UNL     1     -42.881  54.107 -51.185  1.00  0.00    -0.133 NA
ENDROOT
BRANCH   3   6
HETATM    6  N   UNL     1     -43.247  57.622 -50.913  1.00  0.00    -0.301 N 
HETATM    7  C   UNL     1     -42.874  58.548 -51.855  1.00  0.00     0.247 C 
HETATM    8  O   UNL     1     -42.160  58.365 -52.833  1.00  0.00    -0.268 OA
HETATM    9  H   UNL     1     -43.876  57.876 -50.164  1.00  0.00     0.171 HD
BRANCH   7  10
HETATM   10  C   UNL     1     -43.438  59.899 -51.567  1.00  0.00     0.075 C 
HETATM   11  C   UNL     1     -44.292  60.043 -50.541  1.00  0.00     0.017 C 
BRANCH  11  12
HETATM   12  C   UNL     1     -44.955  61.298 -50.154  1.00  0.00    -0.033 A 
HETATM   13  C   UNL     1     -46.203  61.681 -50.667  1.00  0.00     0.051 A 
HETATM   14  C   UNL     1     -46.775  62.844 -50.190  1.00  0.00     0.105 A 
HETATM   15  C   UNL     1     -46.162  63.619 -49.235  1.00  0.00     0.105 A 
HETATM   16  O   UNL     1     -47.979  63.349 -50.573  1.00  0.00    -0.323 OA
HETATM   17  O   UNL     1     -46.899  64.709 -48.897  1.00  0.00    -0.323 OA
HETATM   18  C   UNL     1     -44.941  63.275 -48.702  1.00  0.00     0.040 A 
HETATM   19  C   UNL     1     -48.057  64.524 -49.738  1.00  0.00     0.352 A 
HETATM   20  C   UNL     1     -44.338  62.100 -49.166  1.00  0.00     0.014 A 
ENDBRANCH  11  12
ENDBRANCH   7  10
ENDBRANCH   3   6
BRANCH   1  21
HETATM   21  S   UNL     1     -40.875  52.852 -49.874  1.00  0.00    -0.096 SA
BRANCH  21  22
HETATM   22  C   UNL     1     -39.507  52.883 -51.071  1.00  0.00     0.123 C 
BRANCH  22  23
HETATM   23  C   UNL     1     -39.790  51.962 -52.236  1.00  0.00    -0.005 A 
HETATM   24  C   UNL     1     -39.611  50.568 -52.127  1.00  0.00     0.042 A 
HETATM   25  C   UNL     1     -39.841  49.717 -53.215  1.00  0.00     0.024 A 
HETATM   26 CL   UNL     1     -39.086  49.819 -50.656  1.00  0.00    -0.084 Cl
HETATM   27  C   UNL     1     -40.248  50.238 -54.439  1.00  0.00     0.003 A 
HETATM   28  C   UNL     1     -40.421  51.611 -54.576  1.00  0.00     0.024 A 
HETATM   29  C   UNL     1     -40.194  52.466 -53.489  1.00  0.00     0.042 A 
HETATM   30 CL   UNL     1     -40.423  54.158 -53.770  1.00  0.00    -0.084 Cl
ENDBRANCH  22  23
ENDBRANCH  21  22
ENDBRANCH   1  21
TORSDOF 6
ENDMDL
MODEL 10
REMARK VINA RESULT:      -7.6      4.426     11.622
REMARK  6 active torsions:
REMARK  status: ('A' for Active; 'I' for Inactive)
REMARK    1  A    between atoms: C_5  and  C_6 
REMARK    2  A    between atoms: C_6  and  S_7 
REMARK    3  A    between atoms: S_7  and  C_8 
REMARK    4  A    between atoms: C_10  and  N_11 
REMARK       I    between atoms: N_11  and  C_12 
REMARK    5  A    between atoms: C_12  and  C_13 
REMARK    6  A    between atoms: C_14  and  C_15 
ROOT
HETATM    1  C   UNL     1     -42.185  56.952 -54.688  1.00  0.00     0.160 A 
HETATM    2  S   UNL     1     -43.199  55.919 -55.599  1.00  0.00    -0.022 SA
HETATM    3  C   UNL     1     -43.427  57.212 -56.685  1.00  0.00     0.197 A 
HETATM    4  N   UNL     1     -42.798  58.318 -56.348  1.00  0.00    -0.122 NA
HETATM    5  N   UNL     1     -42.075  58.168 -55.179  1.00  0.00    -0.133 NA
ENDROOT
BRANCH   3   6
HETATM    6  N   UNL     1     -44.174  57.116 -57.835  1.00  0.00    -0.301 N 
HETATM    7  C   UNL     1     -43.701  56.808 -59.086  1.00  0.00     0.247 C 
HETATM    8  O   UNL     1     -42.557  56.495 -59.390  1.00  0.00    -0.268 OA
HETATM    9  H   UNL     1     -45.152  57.322 -57.692  1.00  0.00     0.171 HD
BRANCH   7  10
HETATM   10  C   UNL     1     -44.765  56.903 -60.127  1.00  0.00     0.075 C 
HETATM   11  C   UNL     1     -45.913  57.532 -59.828  1.00  0.00     0.017 C 
BRANCH  11  12
HETATM   12  C   UNL     1     -47.065  57.678 -60.732  1.00  0.00    -0.033 A 
HETATM   13  C   UNL     1     -47.593  58.928 -61.085  1.00  0.00     0.051 A 
HETATM   14  C   UNL     1     -48.633  58.964 -61.993  1.00  0.00     0.105 A 
HETATM   15  C   UNL     1     -49.148  57.821 -62.556  1.00  0.00     0.105 A 
HETATM   16  O   UNL     1     -49.249  60.089 -62.448  1.00  0.00    -0.323 OA
HETATM   17  O   UNL     1     -50.154  58.081 -63.432  1.00  0.00    -0.323 OA
HETATM   18  C   UNL     1     -48.655  56.576 -62.241  1.00  0.00     0.040 A 
HETATM   19  C   UNL     1     -50.202  59.522 -63.371  1.00  0.00     0.352 A 
HETATM   20  C   UNL     1     -47.600  56.510 -61.323  1.00  0.00     0.014 A 
ENDBRANCH  11  12
ENDBRANCH   7  10
ENDBRANCH   3   6
BRANCH   1  21
HETATM   21  S   UNL     1     -41.358  56.415 -53.248  1.00  0.00    -0.096 SA
BRANCH  21  22
HETATM   22  C   UNL     1     -42.290  54.902 -52.859  1.00  0.00     0.123 C 
BRANCH  22  23
HETATM   23  C   UNL     1     -41.369  53.822 -52.339  1.00  0.00    -0.005 A 
HETATM   24  C   UNL     1     -40.633  53.001 -53.218  1.00  0.00     0.042 A 
HETATM   25  C   UNL     1     -39.806  51.979 -52.737  1.00  0.00     0.024 A 
HETATM   26 CL   UNL     1     -40.711  53.190 -54.937  1.00  0.00    -0.084 Cl
HETATM   27  C   UNL     1     -39.700  51.746 -51.370  1.00  0.00     0.003 A 
HETATM   28  C   UNL     1     -40.423  52.536 -50.482  1.00  0.00     0.024 A 
HETATM   29  C   UNL     1     -41.251  53.561 -50.958  1.00  0.00     0.042 A 
HETATM   30 CL   UNL     1     -42.119  54.473 -49.771  1.00  0.00    -0.084 Cl
ENDBRANCH  22  23
ENDBRANCH  21  22
ENDBRANCH   1  21
TORSDOF 6
ENDMDL
