MODEL 1
REMARK VINA RESULT:      -8.5      0.000      0.000
REMARK  3 active torsions:
REMARK  status: ('A' for Active; 'I' for Inactive)
REMARK    1  A    between atoms: C_3  and  N_4 
REMARK    2  A    between atoms: C_10  and  O_11 
REMARK    3  A    between atoms: C_14  and  C_15 
ROOT
HETATM    1  N   UNL     1     -40.490  53.831 -53.522  1.00  0.00    -0.212 N 
HETATM    2  N   UNL     1     -40.100  54.468 -54.659  1.00  0.00    -0.177 NA
HETATM    3  C   UNL     1     -40.585  55.696 -54.535  1.00  0.00     0.152 C 
HETATM    4  C   UNL     1     -41.253  55.924 -53.308  1.00  0.00     0.027 C 
HETATM    5  C   UNL     1     -41.091  54.724 -52.617  1.00  0.00     0.163 C 
HETATM    6  N   UNL     1     -41.307  54.373 -51.322  1.00  0.00    -0.208 NA
HETATM    7  C   UNL     1     -42.401  54.756 -50.759  1.00  0.00     0.149 C 
HETATM    8  C   UNL     1     -43.504  55.598 -51.322  1.00  0.00     0.161 C 
HETATM    9  S   UNL     1     -42.925  57.311 -51.418  1.00  0.00    -0.146 SA
HETATM   10  C   UNL     1     -41.832  57.255 -52.898  1.00  0.00     0.124 C 
ENDROOT
BRANCH  10  11
HETATM   11  C   UNL     1     -42.570  57.936 -54.038  1.00  0.00     0.028 A 
HETATM   12  C   UNL     1     -41.969  59.210 -54.552  1.00  0.00     0.253 A 
HETATM   13  O   UNL     1     -40.919  59.665 -54.111  1.00  0.00    -0.268 OA
HETATM   14  N   UNL     1     -42.645  59.836 -55.572  1.00  0.00    -0.333 N 
HETATM   15  C   UNL     1     -43.793  59.358 -56.143  1.00  0.00     0.091 A 
HETATM   16  H   UNL     1     -42.232  60.700 -55.904  1.00  0.00     0.168 HD
HETATM   17  C   UNL     1     -44.325  58.210 -55.713  1.00  0.00     0.018 A 
HETATM   18  C   UNL     1     -43.691  57.483 -54.638  1.00  0.00     0.015 A 
ENDBRANCH  10  11
BRANCH   1  19
HETATM   19  C   UNL     1     -40.227  52.439 -53.391  1.00  0.00     0.099 A 
HETATM   20  C   UNL     1     -40.715  51.559 -54.374  1.00  0.00     0.035 A 
HETATM   21  C   UNL     1     -40.461  50.187 -54.289  1.00  0.00     0.002 A 
HETATM   22  C   UNL     1     -39.737  49.677 -53.215  1.00  0.00     0.003 A 
HETATM   23  C   UNL     1     -39.281  50.537 -52.218  1.00  0.00     0.045 A 
HETATM   24  C   UNL     1     -39.532  51.908 -52.303  1.00  0.00     0.145 A 
HETATM   25  F   UNL     1     -39.178  52.653 -51.247  1.00  0.00    -0.204 F 
ENDBRANCH   1  19
BRANCH   7  26
HETATM   26  O   UNL     1     -42.595  54.366 -49.488  1.00  0.00    -0.347 OA
HETATM   27  H   UNL     1     -43.551  54.411 -49.319  1.00  0.00     0.219 HD
ENDBRANCH   7  26
TORSDOF 3
ENDMDL
MODEL 2
REMARK VINA RESULT:      -8.4      3.322      4.813
REMARK  3 active torsions:
REMARK  status: ('A' for Active; 'I' for Inactive)
REMARK    1  A    between atoms: C_3  and  N_4 
REMARK    2  A    between atoms: C_10  and  O_11 
REMARK    3  A    between atoms: C_14  and  C_15 
ROOT
HETATM    1  N   UNL     1     -42.402  55.186 -54.668  1.00  0.00    -0.212 N 
HETATM    2  N   UNL     1     -42.848  54.308 -55.605  1.00  0.00    -0.177 NA
HETATM    3  C   UNL     1     -42.976  55.033 -56.708  1.00  0.00     0.152 C 
HETATM    4  C   UNL     1     -42.571  56.381 -56.553  1.00  0.00     0.027 C 
HETATM    5  C   UNL     1     -42.103  56.435 -55.241  1.00  0.00     0.163 C 
HETATM    6  N   UNL     1     -41.391  57.370 -54.558  1.00  0.00    -0.208 NA
HETATM    7  C   UNL     1     -41.734  58.606 -54.675  1.00  0.00     0.149 C 
HETATM    8  C   UNL     1     -42.820  59.205 -55.516  1.00  0.00     0.161 C 
HETATM    9  S   UNL     1     -42.293  59.161 -57.248  1.00  0.00    -0.146 SA
HETATM   10  C   UNL     1     -42.554  57.390 -57.674  1.00  0.00     0.124 C 
ENDROOT
BRANCH  10  11
HETATM   11  C   UNL     1     -43.799  57.306 -58.540  1.00  0.00     0.028 A 
HETATM   12  C   UNL     1     -43.612  56.752 -59.921  1.00  0.00     0.253 A 
HETATM   13  O   UNL     1     -42.526  56.349 -60.325  1.00  0.00    -0.268 OA
HETATM   14  N   UNL     1     -44.735  56.692 -60.713  1.00  0.00    -0.333 N 
HETATM   15  C   UNL     1     -45.984  57.078 -60.308  1.00  0.00     0.091 A 
HETATM   16  H   UNL     1     -44.593  56.323 -61.646  1.00  0.00     0.168 HD
HETATM   17  C   UNL     1     -46.170  57.548 -59.072  1.00  0.00     0.018 A 
HETATM   18  C   UNL     1     -45.048  57.657 -58.168  1.00  0.00     0.015 A 
ENDBRANCH  10  11
BRANCH   1  19
HETATM   19  C   UNL     1     -42.272  54.746 -53.321  1.00  0.00     0.099 A 
HETATM   20  C   UNL     1     -43.235  55.149 -52.379  1.00  0.00     0.035 A 
HETATM   21  C   UNL     1     -43.151  54.722 -51.050  1.00  0.00     0.002 A 
HETATM   22  C   UNL     1     -42.097  53.907 -50.644  1.00  0.00     0.003 A 
HETATM   23  C   UNL     1     -41.118  53.535 -51.564  1.00  0.00     0.045 A 
HETATM   24  C   UNL     1     -41.202  53.959 -52.891  1.00  0.00     0.145 A 
HETATM   25  F   UNL     1     -40.161  53.670 -53.684  1.00  0.00    -0.204 F 
ENDBRANCH   1  19
BRANCH   7  26
HETATM   26  O   UNL     1     -41.029  59.500 -53.962  1.00  0.00    -0.347 OA
HETATM   27  H   UNL     1     -40.307  59.013 -53.530  1.00  0.00     0.219 HD
ENDBRANCH   7  26
TORSDOF 3
ENDMDL
MODEL 3
REMARK VINA RESULT:      -8.1      2.811      3.938
REMARK  3 active torsions:
REMARK  status: ('A' for Active; 'I' for Inactive)
REMARK    1  A    between atoms: C_3  and  N_4 
REMARK    2  A    between atoms: C_10  and  O_11 
REMARK    3  A    between atoms: C_14  and  C_15 
ROOT
HETATM    1  N   UNL     1     -42.073  54.545 -52.553  1.00  0.00    -0.212 N 
HETATM    2  N   UNL     1     -42.537  54.719 -51.287  1.00  0.00    -0.177 NA
HETATM    3  C   UNL     1     -43.201  55.866 -51.329  1.00  0.00     0.152 C 
HETATM    4  C   UNL     1     -43.245  56.451 -52.618  1.00  0.00     0.027 C 
HETATM    5  C   UNL     1     -42.589  55.522 -53.424  1.00  0.00     0.163 C 
HETATM    6  N   UNL     1     -42.485  55.387 -54.773  1.00  0.00    -0.208 NA
HETATM    7  C   UNL     1     -42.236  56.438 -55.475  1.00  0.00     0.149 C 
HETATM    8  C   UNL     1     -42.074  57.856 -55.020  1.00  0.00     0.161 C 
HETATM    9  S   UNL     1     -43.706  58.506 -54.582  1.00  0.00    -0.146 SA
HETATM   10  C   UNL     1     -43.995  57.718 -52.943  1.00  0.00     0.124 C 
ENDROOT
BRANCH  10  11
HETATM   11  C   UNL     1     -43.803  58.787 -51.881  1.00  0.00     0.028 A 
HETATM   12  C   UNL     1     -44.916  58.945 -50.888  1.00  0.00     0.253 A 
HETATM   13  O   UNL     1     -45.912  58.231 -50.899  1.00  0.00    -0.268 OA
HETATM   14  N   UNL     1     -44.751  59.925 -49.937  1.00  0.00    -0.333 N 
HETATM   15  C   UNL     1     -43.645  60.724 -49.837  1.00  0.00     0.091 A 
HETATM   16  H   UNL     1     -45.514  60.026 -49.278  1.00  0.00     0.168 HD
HETATM   17  C   UNL     1     -42.634  60.576 -50.699  1.00  0.00     0.018 A 
HETATM   18  C   UNL     1     -42.718  59.578 -51.740  1.00  0.00     0.015 A 
ENDBRANCH  10  11
BRANCH   1  19
HETATM   19  C   UNL     1     -41.207  53.449 -52.823  1.00  0.00     0.099 A 
HETATM   20  C   UNL     1     -41.360  52.743 -54.029  1.00  0.00     0.035 A 
HETATM   21  C   UNL     1     -40.515  51.672 -54.338  1.00  0.00     0.002 A 
HETATM   22  C   UNL     1     -39.527  51.281 -53.438  1.00  0.00     0.003 A 
HETATM   23  C   UNL     1     -39.394  51.952 -52.224  1.00  0.00     0.045 A 
HETATM   24  C   UNL     1     -40.234  53.024 -51.916  1.00  0.00     0.145 A 
HETATM   25  F   UNL     1     -40.134  53.534 -50.681  1.00  0.00    -0.204 F 
ENDBRANCH   1  19
BRANCH   7  26
HETATM   26  O   UNL     1     -42.109  56.263 -56.800  1.00  0.00    -0.347 OA
HETATM   27  H   UNL     1     -42.801  56.797 -57.226  1.00  0.00     0.219 HD
ENDBRANCH   7  26
TORSDOF 3
ENDMDL
MODEL 4
REMARK VINA RESULT:      -7.9      3.466      4.724
REMARK  3 active torsions:
REMARK  status: ('A' for Active; 'I' for Inactive)
REMARK    1  A    between atoms: C_3  and  N_4 
REMARK    2  A    between atoms: C_10  and  O_11 
REMARK    3  A    between atoms: C_14  and  C_15 
ROOT
HETATM    1  N   UNL     1     -42.457  55.542 -52.755  1.00  0.00    -0.212 N 
HETATM    2  N   UNL     1     -42.430  55.666 -51.401  1.00  0.00    -0.177 NA
HETATM    3  C   UNL     1     -43.217  56.703 -51.145  1.00  0.00     0.152 C 
HETATM    4  C   UNL     1     -43.824  57.255 -52.300  1.00  0.00     0.027 C 
HETATM    5  C   UNL     1     -43.395  56.419 -53.329  1.00  0.00     0.163 C 
HETATM    6  N   UNL     1     -43.788  56.279 -54.623  1.00  0.00    -0.208 NA
HETATM    7  C   UNL     1     -43.972  57.344 -55.324  1.00  0.00     0.149 C 
HETATM    8  C   UNL     1     -43.854  58.778 -54.906  1.00  0.00     0.161 C 
HETATM    9  S   UNL     1     -45.275  59.189 -53.863  1.00  0.00    -0.146 SA
HETATM   10  C   UNL     1     -44.812  58.394 -52.269  1.00  0.00     0.124 C 
ENDROOT
BRANCH  10  11
HETATM   11  C   UNL     1     -44.388  59.496 -51.313  1.00  0.00     0.028 A 
HETATM   12  C   UNL     1     -45.259  59.705 -50.111  1.00  0.00     0.253 A 
HETATM   13  O   UNL     1     -46.240  59.005 -49.880  1.00  0.00    -0.268 OA
HETATM   14  N   UNL     1     -44.887  60.714 -49.254  1.00  0.00    -0.333 N 
HETATM   15  C   UNL     1     -43.779  61.500 -49.425  1.00  0.00     0.091 A 
HETATM   16  H   UNL     1     -45.488  60.849 -48.450  1.00  0.00     0.168 HD
HETATM   17  C   UNL     1     -42.979  61.307 -50.477  1.00  0.00     0.018 A 
HETATM   18  C   UNL     1     -43.293  60.275 -51.439  1.00  0.00     0.015 A 
ENDBRANCH  10  11
BRANCH   1  19
HETATM   19  C   UNL     1     -41.610  54.580 -53.373  1.00  0.00     0.099 A 
HETATM   20  C   UNL     1     -41.547  53.284 -52.833  1.00  0.00     0.035 A 
HETATM   21  C   UNL     1     -40.741  52.306 -53.423  1.00  0.00     0.002 A 
HETATM   22  C   UNL     1     -39.974  52.617 -54.543  1.00  0.00     0.003 A 
HETATM   23  C   UNL     1     -40.002  53.910 -55.062  1.00  0.00     0.045 A 
HETATM   24  C   UNL     1     -40.809  54.886 -54.475  1.00  0.00     0.145 A 
HETATM   25  F   UNL     1     -40.687  56.135 -54.946  1.00  0.00    -0.204 F 
ENDBRANCH   1  19
BRANCH   7  26
HETATM   26  O   UNL     1     -44.330  57.169 -56.607  1.00  0.00    -0.347 OA
HETATM   27  H   UNL     1     -43.983  56.303 -56.884  1.00  0.00     0.219 HD
ENDBRANCH   7  26
TORSDOF 3
ENDMDL
MODEL 5
REMARK VINA RESULT:      -7.6      2.492      3.728
REMARK  3 active torsions:
REMARK  status: ('A' for Active; 'I' for Inactive)
REMARK    1  A    between atoms: C_3  and  N_4 
REMARK    2  A    between atoms: C_10  and  O_11 
REMARK    3  A    between atoms: C_14  and  C_15 
ROOT
HETATM    1  N   UNL     1     -41.836  54.934 -54.245  1.00  0.00    -0.212 N 
HETATM    2  N   UNL     1     -42.570  54.300 -55.198  1.00  0.00    -0.177 NA
HETATM    3  C   UNL     1     -42.966  55.269 -56.013  1.00  0.00     0.152 C 
HETATM    4  C   UNL     1     -42.467  56.547 -55.662  1.00  0.00     0.027 C 
HETATM    5  C   UNL     1     -41.648  56.291 -54.564  1.00  0.00     0.163 C 
HETATM    6  N   UNL     1     -40.728  57.046 -53.908  1.00  0.00    -0.208 NA
HETATM    7  C   UNL     1     -41.029  58.266 -53.625  1.00  0.00     0.149 C 
HETATM    8  C   UNL     1     -42.275  59.029 -53.954  1.00  0.00     0.161 C 
HETATM    9  S   UNL     1     -42.258  59.418 -55.723  1.00  0.00    -0.146 SA
HETATM   10  C   UNL     1     -42.716  57.798 -56.467  1.00  0.00     0.124 C 
ENDROOT
BRANCH  10  11
HETATM   11  C   UNL     1     -44.156  57.901 -56.938  1.00  0.00     0.028 A 
HETATM   12  C   UNL     1     -45.208  57.871 -55.870  1.00  0.00     0.253 A 
HETATM   13  O   UNL     1     -44.932  57.807 -54.677  1.00  0.00    -0.268 OA
HETATM   14  N   UNL     1     -46.514  57.947 -56.297  1.00  0.00    -0.333 N 
HETATM   15  C   UNL     1     -46.890  58.070 -57.607  1.00  0.00     0.091 A 
HETATM   16  H   UNL     1     -47.215  57.918 -55.566  1.00  0.00     0.168 HD
HETATM   17  C   UNL     1     -45.962  58.125 -58.566  1.00  0.00     0.018 A 
HETATM   18  C   UNL     1     -44.563  58.044 -58.217  1.00  0.00     0.015 A 
ENDBRANCH  10  11
BRANCH   1  19
HETATM   19  C   UNL     1     -41.355  54.182 -53.136  1.00  0.00     0.099 A 
HETATM   20  C   UNL     1     -41.841  54.481 -51.851  1.00  0.00     0.035 A 
HETATM   21  C   UNL     1     -41.407  53.753 -50.740  1.00  0.00     0.002 A 
HETATM   22  C   UNL     1     -40.470  52.735 -50.896  1.00  0.00     0.003 A 
HETATM   23  C   UNL     1     -39.955  52.458 -52.161  1.00  0.00     0.045 A 
HETATM   24  C   UNL     1     -40.390  53.183 -53.272  1.00  0.00     0.145 A 
HETATM   25  F   UNL     1     -39.758  52.950 -54.430  1.00  0.00    -0.204 F 
ENDBRANCH   1  19
BRANCH   7  26
HETATM   26  O   UNL     1     -40.109  58.974 -52.950  1.00  0.00    -0.347 OA
HETATM   27  H   UNL     1     -40.474  59.867 -52.820  1.00  0.00     0.219 HD
ENDBRANCH   7  26
TORSDOF 3
ENDMDL
MODEL 6
REMARK VINA RESULT:      -7.5     14.989     16.693
REMARK  3 active torsions:
REMARK  status: ('A' for Active; 'I' for Inactive)
REMARK    1  A    between atoms: C_3  and  N_4 
REMARK    2  A    between atoms: C_10  and  O_11 
REMARK    3  A    between atoms: C_14  and  C_15 
ROOT
HETATM    1  N   UNL     1     -33.577  40.270 -54.580  1.00  0.00    -0.212 N 
HETATM    2  N   UNL     1     -32.915  39.983 -55.733  1.00  0.00    -0.177 NA
HETATM    3  C   UNL     1     -33.726  40.403 -56.695  1.00  0.00     0.152 C 
HETATM    4  C   UNL     1     -34.906  41.021 -56.216  1.00  0.00     0.027 C 
HETATM    5  C   UNL     1     -34.742  41.016 -54.832  1.00  0.00     0.163 C 
HETATM    6  N   UNL     1     -35.407  41.643 -53.825  1.00  0.00    -0.208 NA
HETATM    7  C   UNL     1     -36.694  41.645 -53.851  1.00  0.00     0.149 C 
HETATM    8  C   UNL     1     -37.615  41.072 -54.885  1.00  0.00     0.161 C 
HETATM    9  S   UNL     1     -37.560  42.131 -56.352  1.00  0.00    -0.146 SA
HETATM   10  C   UNL     1     -35.953  41.641 -57.106  1.00  0.00     0.124 C 
ENDROOT
BRANCH  10  11
HETATM   11  C   UNL     1     -36.261  40.779 -58.318  1.00  0.00     0.028 A 
HETATM   12  C   UNL     1     -36.888  41.476 -59.488  1.00  0.00     0.253 A 
HETATM   13  O   UNL     1     -37.110  42.682 -59.493  1.00  0.00    -0.268 OA
HETATM   14  N   UNL     1     -37.183  40.693 -60.580  1.00  0.00    -0.333 N 
HETATM   15  C   UNL     1     -36.918  39.352 -60.660  1.00  0.00     0.091 A 
HETATM   16  H   UNL     1     -37.614  41.175 -61.360  1.00  0.00     0.168 HD
HETATM   17  C   UNL     1     -36.335  38.724 -59.636  1.00  0.00     0.018 A 
HETATM   18  C   UNL     1     -35.995  39.461 -58.441  1.00  0.00     0.015 A 
ENDBRANCH  10  11
BRANCH   1  19
HETATM   19  C   UNL     1     -33.022  39.834 -53.344  1.00  0.00     0.099 A 
HETATM   20  C   UNL     1     -32.268  40.742 -52.580  1.00  0.00     0.035 A 
HETATM   21  C   UNL     1     -31.723  40.356 -51.351  1.00  0.00     0.002 A 
HETATM   22  C   UNL     1     -31.906  39.057 -50.884  1.00  0.00     0.003 A 
HETATM   23  C   UNL     1     -32.620  38.140 -51.654  1.00  0.00     0.045 A 
HETATM   24  C   UNL     1     -33.167  38.526 -52.879  1.00  0.00     0.145 A 
HETATM   25  F   UNL     1     -33.727  37.560 -53.620  1.00  0.00    -0.204 F 
ENDBRANCH   1  19
BRANCH   7  26
HETATM   26  O   UNL     1     -37.319  42.247 -52.826  1.00  0.00    -0.347 OA
HETATM   27  H   UNL     1     -37.265  41.644 -52.065  1.00  0.00     0.219 HD
ENDBRANCH   7  26
TORSDOF 3
ENDMDL
MODEL 7
REMARK VINA RESULT:      -7.5      3.050      4.037
REMARK  3 active torsions:
REMARK  status: ('A' for Active; 'I' for Inactive)
REMARK    1  A    between atoms: C_3  and  N_4 
REMARK    2  A    between atoms: C_10  and  O_11 
REMARK    3  A    between atoms: C_14  and  C_15 
ROOT
HETATM    1  N   UNL     1     -42.571  56.026 -53.720  1.00  0.00    -0.212 N 
HETATM    2  N   UNL     1     -43.889  55.907 -54.031  1.00  0.00    -0.177 NA
HETATM    3  C   UNL     1     -44.333  57.156 -54.087  1.00  0.00     0.152 C 
HETATM    4  C   UNL     1     -43.325  58.128 -53.874  1.00  0.00     0.027 C 
HETATM    5  C   UNL     1     -42.162  57.372 -53.738  1.00  0.00     0.163 C 
HETATM    6  N   UNL     1     -40.845  57.707 -53.729  1.00  0.00    -0.208 NA
HETATM    7  C   UNL     1     -40.478  58.725 -53.031  1.00  0.00     0.149 C 
HETATM    8  C   UNL     1     -41.320  59.664 -52.222  1.00  0.00     0.161 C 
HETATM    9  S   UNL     1     -42.231  60.740 -53.359  1.00  0.00    -0.146 SA
HETATM   10  C   UNL     1     -43.560  59.615 -53.954  1.00  0.00     0.124 C 
ENDROOT
BRANCH  10  11
HETATM   11  C   UNL     1     -44.851  60.031 -53.272  1.00  0.00     0.028 A 
HETATM   12  C   UNL     1     -45.785  60.883 -54.078  1.00  0.00     0.253 A 
HETATM   13  O   UNL     1     -45.548  61.201 -55.239  1.00  0.00    -0.268 OA
HETATM   14  N   UNL     1     -46.947  61.275 -53.456  1.00  0.00    -0.333 N 
HETATM   15  C   UNL     1     -47.297  60.917 -52.182  1.00  0.00     0.091 A 
HETATM   16  H   UNL     1     -47.565  61.857 -54.009  1.00  0.00     0.168 HD
HETATM   17  C   UNL     1     -46.487  60.135 -51.461  1.00  0.00     0.018 A 
HETATM   18  C   UNL     1     -45.238  59.680 -52.027  1.00  0.00     0.015 A 
ENDBRANCH  10  11
BRANCH   1  19
HETATM   19  C   UNL     1     -41.816  54.847 -53.467  1.00  0.00     0.099 A 
HETATM   20  C   UNL     1     -41.683  53.892 -54.491  1.00  0.00     0.035 A 
HETATM   21  C   UNL     1     -40.933  52.730 -54.285  1.00  0.00     0.002 A 
HETATM   22  C   UNL     1     -40.329  52.498 -53.053  1.00  0.00     0.003 A 
HETATM   23  C   UNL     1     -40.489  53.421 -52.021  1.00  0.00     0.045 A 
HETATM   24  C   UNL     1     -41.234  54.584 -52.226  1.00  0.00     0.145 A 
HETATM   25  F   UNL     1     -41.451  55.358 -51.154  1.00  0.00    -0.204 F 
ENDBRANCH   1  19
BRANCH   7  26
HETATM   26  O   UNL     1     -39.165  59.009 -53.021  1.00  0.00    -0.347 OA
HETATM   27  H   UNL     1     -38.788  58.584 -52.231  1.00  0.00     0.219 HD
ENDBRANCH   7  26
TORSDOF 3
ENDMDL
MODEL 8
REMARK VINA RESULT:      -7.4     15.470     17.547
REMARK  3 active torsions:
REMARK  status: ('A' for Active; 'I' for Inactive)
REMARK    1  A    between atoms: C_3  and  N_4 
REMARK    2  A    between atoms: C_10  and  O_11 
REMARK    3  A    between atoms: C_14  and  C_15 
ROOT
HETATM    1  N   UNL     1     -35.960  40.897 -56.303  1.00  0.00    -0.212 N 
HETATM    2  N   UNL     1     -36.880  41.109 -55.324  1.00  0.00    -0.177 NA
HETATM    3  C   UNL     1     -36.205  40.953 -54.193  1.00  0.00     0.152 C 
HETATM    4  C   UNL     1     -34.827  40.692 -54.384  1.00  0.00     0.027 C 
HETATM    5  C   UNL     1     -34.667  40.761 -55.767  1.00  0.00     0.163 C 
HETATM    6  N   UNL     1     -33.567  40.816 -56.563  1.00  0.00    -0.208 NA
HETATM    7  C   UNL     1     -32.589  40.016 -56.311  1.00  0.00     0.149 C 
HETATM    8  C   UNL     1     -32.453  39.017 -55.203  1.00  0.00     0.161 C 
HETATM    9  S   UNL     1     -32.152  39.911 -53.658  1.00  0.00    -0.146 SA
HETATM   10  C   UNL     1     -33.834  40.544 -53.259  1.00  0.00     0.124 C 
ENDROOT
BRANCH  10  11
HETATM   11  C   UNL     1     -34.380  39.704 -52.117  1.00  0.00     0.028 A 
HETATM   12  C   UNL     1     -34.851  40.453 -50.907  1.00  0.00     0.253 A 
HETATM   13  O   UNL     1     -34.837  41.678 -50.845  1.00  0.00    -0.268 OA
HETATM   14  N   UNL     1     -35.329  39.693 -49.865  1.00  0.00    -0.333 N 
HETATM   15  C   UNL     1     -35.418  38.327 -49.886  1.00  0.00     0.091 A 
HETATM   16  H   UNL     1     -35.636  40.211 -49.051  1.00  0.00     0.168 HD
HETATM   17  C   UNL     1     -35.028  37.649 -50.969  1.00  0.00     0.018 A 
HETATM   18  C   UNL     1     -34.502  38.360 -52.111  1.00  0.00     0.015 A 
ENDBRANCH  10  11
BRANCH   1  19
HETATM   19  C   UNL     1     -36.393  40.875 -57.658  1.00  0.00     0.099 A 
HETATM   20  C   UNL     1     -36.919  42.050 -58.223  1.00  0.00     0.035 A 
HETATM   21  C   UNL     1     -37.337  42.073 -59.557  1.00  0.00     0.002 A 
HETATM   22  C   UNL     1     -37.255  40.919 -60.333  1.00  0.00     0.003 A 
HETATM   23  C   UNL     1     -36.771  39.740 -59.769  1.00  0.00     0.045 A 
HETATM   24  C   UNL     1     -36.350  39.718 -58.438  1.00  0.00     0.145 A 
HETATM   25  F   UNL     1     -36.019  38.523 -57.930  1.00  0.00    -0.204 F 
ENDBRANCH   1  19
BRANCH   7  26
HETATM   26  O   UNL     1     -31.530  40.077 -57.135  1.00  0.00    -0.347 OA
HETATM   27  H   UNL     1     -31.641  39.369 -57.793  1.00  0.00     0.219 HD
ENDBRANCH   7  26
TORSDOF 3
ENDMDL
MODEL 9
REMARK VINA RESULT:      -7.2      3.866      5.236
REMARK  3 active torsions:
REMARK  status: ('A' for Active; 'I' for Inactive)
REMARK    1  A    between atoms: C_3  and  N_4 
REMARK    2  A    between atoms: C_10  and  O_11 
REMARK    3  A    between atoms: C_14  and  C_15 
ROOT
HETATM    1  N   UNL     1     -42.994  56.458 -51.028  1.00  0.00    -0.212 N 
HETATM    2  N   UNL     1     -44.302  56.449 -50.656  1.00  0.00    -0.177 NA
HETATM    3  C   UNL     1     -44.766  57.631 -51.040  1.00  0.00     0.152 C 
HETATM    4  C   UNL     1     -43.810  58.425 -51.718  1.00  0.00     0.027 C 
HETATM    5  C   UNL     1     -42.688  57.601 -51.790  1.00  0.00     0.163 C 
HETATM    6  N   UNL     1     -41.529  57.687 -52.494  1.00  0.00    -0.208 NA
HETATM    7  C   UNL     1     -40.918  58.820 -52.530  1.00  0.00     0.149 C 
HETATM    8  C   UNL     1     -41.325  60.128 -51.922  1.00  0.00     0.161 C 
HETATM    9  S   UNL     1     -42.696  60.807 -52.891  1.00  0.00    -0.146 SA
HETATM   10  C   UNL     1     -44.109  59.778 -52.313  1.00  0.00     0.124 C 
ENDROOT
BRANCH  10  11
HETATM   11  C   UNL     1     -44.954  60.638 -51.390  1.00  0.00     0.028 A 
HETATM   12  C   UNL     1     -46.175  61.263 -51.996  1.00  0.00     0.253 A 
HETATM   13  O   UNL     1     -46.504  61.066 -53.161  1.00  0.00    -0.268 OA
HETATM   14  N   UNL     1     -46.931  62.056 -51.165  1.00  0.00    -0.333 N 
HETATM   15  C   UNL     1     -46.649  62.279 -49.845  1.00  0.00     0.091 A 
HETATM   16  H   UNL     1     -47.749  62.478 -51.589  1.00  0.00     0.168 HD
HETATM   17  C   UNL     1     -45.579  61.706 -49.285  1.00  0.00     0.018 A 
HETATM   18  C   UNL     1     -44.718  60.862 -50.080  1.00  0.00     0.015 A 
ENDBRANCH  10  11
BRANCH   1  19
HETATM   19  C   UNL     1     -42.165  55.365 -50.651  1.00  0.00     0.099 A 
HETATM   20  C   UNL     1     -41.411  55.462 -49.468  1.00  0.00     0.035 A 
HETATM   21  C   UNL     1     -40.599  54.401 -49.054  1.00  0.00     0.002 A 
HETATM   22  C   UNL     1     -40.515  53.244 -49.825  1.00  0.00     0.003 A 
HETATM   23  C   UNL     1     -41.231  53.156 -51.018  1.00  0.00     0.045 A 
HETATM   24  C   UNL     1     -42.044  54.214 -51.431  1.00  0.00     0.145 A 
HETATM   25  F   UNL     1     -42.597  54.111 -52.647  1.00  0.00    -0.204 F 
ENDBRANCH   1  19
BRANCH   7  26
HETATM   26  O   UNL     1     -39.760  58.862 -53.209  1.00  0.00    -0.347 OA
HETATM   27  H   UNL     1     -39.101  58.380 -52.679  1.00  0.00     0.219 HD
ENDBRANCH   7  26
TORSDOF 3
ENDMDL
MODEL 10
REMARK VINA RESULT:      -7.1      4.029      6.289
REMARK  3 active torsions:
REMARK  status: ('A' for Active; 'I' for Inactive)
REMARK    1  A    between atoms: C_3  and  N_4 
REMARK    2  A    between atoms: C_10  and  O_11 
REMARK    3  A    between atoms: C_14  and  C_15 
ROOT
HETATM    1  N   UNL     1     -43.496  57.336 -57.301  1.00  0.00    -0.212 N 
HETATM    2  N   UNL     1     -43.178  58.644 -57.106  1.00  0.00    -0.177 NA
HETATM    3  C   UNL     1     -42.571  58.667 -55.927  1.00  0.00     0.152 C 
HETATM    4  C   UNL     1     -42.421  57.388 -55.339  1.00  0.00     0.027 C 
HETATM    5  C   UNL     1     -42.940  56.521 -56.299  1.00  0.00     0.163 C 
HETATM    6  N   UNL     1     -42.894  55.169 -56.437  1.00  0.00    -0.208 NA
HETATM    7  C   UNL     1     -43.120  54.441 -55.400  1.00  0.00     0.149 C 
HETATM    8  C   UNL     1     -43.400  54.870 -53.992  1.00  0.00     0.161 C 
HETATM    9  S   UNL     1     -41.858  55.476 -53.260  1.00  0.00    -0.146 SA
HETATM   10  C   UNL     1     -41.706  57.139 -54.035  1.00  0.00     0.124 C 
ENDROOT
BRANCH  10  11
HETATM   11  C   UNL     1     -42.062  58.170 -52.978  1.00  0.00     0.028 A 
HETATM   12  C   UNL     1     -40.977  59.130 -52.593  1.00  0.00     0.253 A 
HETATM   13  O   UNL     1     -39.870  59.118 -53.123  1.00  0.00    -0.268 OA
HETATM   14  N   UNL     1     -41.293  60.053 -51.624  1.00  0.00    -0.333 N 
HETATM   15  C   UNL     1     -42.520  60.154 -51.027  1.00  0.00     0.091 A 
HETATM   16  H   UNL     1     -40.548  60.690 -51.367  1.00  0.00     0.168 HD
HETATM   17  C   UNL     1     -43.505  59.323 -51.380  1.00  0.00     0.018 A 
HETATM   18  C   UNL     1     -43.266  58.312 -52.384  1.00  0.00     0.015 A 
ENDBRANCH  10  11
BRANCH   1  19
HETATM   19  C   UNL     1     -44.272  56.981 -58.440  1.00  0.00     0.099 A 
HETATM   20  C   UNL     1     -45.639  57.312 -58.460  1.00  0.00     0.035 A 
HETATM   21  C   UNL     1     -46.430  56.996 -59.568  1.00  0.00     0.002 A 
HETATM   22  C   UNL     1     -45.873  56.330 -60.656  1.00  0.00     0.003 A 
HETATM   23  C   UNL     1     -44.528  55.966 -60.628  1.00  0.00     0.045 A 
HETATM   24  C   UNL     1     -43.736  56.283 -59.523  1.00  0.00     0.145 A 
HETATM   25  F   UNL     1     -42.490  55.789 -59.511  1.00  0.00    -0.204 F 
ENDBRANCH   1  19
BRANCH   7  26
HETATM   26  O   UNL     1     -43.096  53.110 -55.579  1.00  0.00    -0.347 OA
HETATM   27  H   UNL     1     -43.637  52.717 -54.872  1.00  0.00     0.219 HD
ENDBRANCH   7  26
TORSDOF 3
ENDMDL
