MODEL 1
REMARK VINA RESULT:      -9.2      0.000      0.000
REMARK  6 active torsions:
REMARK  status: ('A' for Active; 'I' for Inactive)
REMARK    1  A    between atoms: C_5  and  C_6 
REMARK    2  A    between atoms: C_6  and  S_7 
REMARK    3  A    between atoms: S_7  and  C_8 
REMARK    4  A    between atoms: C_10  and  N_11 
REMARK    5  A    between atoms: C_12  and  N_13 
REMARK       I    between atoms: N_13  and  C_14 
REMARK    6  A    between atoms: C_14  and  C_15 
ROOT
HETATM    1  C   UNL     1     -42.795  56.049 -53.215  1.00  0.00     0.171 C 
HETATM    2  N   UNL     1     -41.999  57.057 -53.091  1.00  0.00    -0.210 NA
HETATM    3  C   UNL     1     -42.373  58.055 -52.218  1.00  0.00     0.136 C 
HETATM    4  C   UNL     1     -43.457  57.954 -51.408  1.00  0.00     0.144 C 
HETATM    5  C   UNL     1     -44.104  56.611 -51.366  1.00  0.00     0.277 C 
HETATM    6  O   UNL     1     -44.626  56.134 -50.364  1.00  0.00    -0.266 OA
HETATM    7  N   UNL     1     -43.922  55.865 -52.488  1.00  0.00    -0.300 N 
HETATM    8  H   UNL     1     -44.341  54.948 -52.499  1.00  0.00     0.171 HD
ENDROOT
BRANCH   1   9
HETATM    9  S   UNL     1     -42.545  54.736 -54.317  1.00  0.00    -0.087 SA
BRANCH   9  10
HETATM   10  C   UNL     1     -40.763  54.454 -54.143  1.00  0.00     0.121 C 
BRANCH  10  11
HETATM   11  C   UNL     1     -40.476  53.557 -52.954  1.00  0.00    -0.037 A 
HETATM   12  C   UNL     1     -40.166  52.172 -53.087  1.00  0.00    -0.019 A 
HETATM   13  C   UNL     1     -39.938  51.409 -51.911  1.00  0.00    -0.025 A 
HETATM   14  C   UNL     1     -40.074  51.494 -54.326  1.00  0.00     0.013 A 
HETATM   15  C   UNL     1     -39.622  50.043 -52.004  1.00  0.00     0.012 A 
HETATM   16  C   UNL     1     -40.033  52.015 -50.651  1.00  0.00     0.012 A 
HETATM   17  C   UNL     1     -39.531  49.409 -53.242  1.00  0.00     0.001 A 
HETATM   18  C   UNL     1     -39.760  50.134 -54.402  1.00  0.00     0.001 A 
HETATM   19  C   UNL     1     -40.351  53.363 -50.528  1.00  0.00     0.001 A 
HETATM   20  C   UNL     1     -40.571  54.127 -51.669  1.00  0.00     0.009 A 
ENDBRANCH  10  11
ENDBRANCH   9  10
ENDBRANCH   1   9
BRANCH   3  21
HETATM   21  N   UNL     1     -41.608  59.215 -52.221  1.00  0.00    -0.285 NA
HETATM   22  H   UNL     1     -42.252  60.004 -52.164  1.00  0.00     0.125 HD
HETATM   23  H   UNL     1     -41.075  59.290 -53.086  1.00  0.00     0.125 HD
ENDBRANCH   3  21
BRANCH   4  24
HETATM   24  N   UNL     1     -43.902  59.026 -50.657  1.00  0.00    -0.314 N 
HETATM   25  C   UNL     1     -44.954  59.868 -50.971  1.00  0.00     0.280 C 
HETATM   26  O   UNL     1     -45.620  59.802 -51.998  1.00  0.00    -0.265 OA
HETATM   27  H   UNL     1     -43.269  59.367 -49.941  1.00  0.00     0.169 HD
BRANCH  25  28
HETATM   28  C   UNL     1     -45.160  60.924 -49.999  1.00  0.00     0.144 A 
HETATM   29  O   UNL     1     -45.991  60.714 -48.929  1.00  0.00    -0.298 OA
HETATM   30  C   UNL     1     -45.957  61.845 -48.171  1.00  0.00     0.122 A 
HETATM   31 BR   UNL     1     -46.894  62.062 -46.573  1.00  0.00    -0.023 Br
HETATM   32  C   UNL     1     -45.136  62.788 -48.746  1.00  0.00     0.048 A 
HETATM   33  C   UNL     1     -44.620  62.195 -49.923  1.00  0.00     0.046 A 
ENDBRANCH  25  28
ENDBRANCH   4  24
TORSDOF 6
ENDMDL
MODEL 2
REMARK VINA RESULT:      -9.1      1.435      2.578
REMARK  6 active torsions:
REMARK  status: ('A' for Active; 'I' for Inactive)
REMARK    1  A    between atoms: C_5  and  C_6 
REMARK    2  A    between atoms: C_6  and  S_7 
REMARK    3  A    between atoms: S_7  and  C_8 
REMARK    4  A    between atoms: C_10  and  N_11 
REMARK    5  A    between atoms: C_12  and  N_13 
REMARK       I    between atoms: N_13  and  C_14 
REMARK    6  A    between atoms: C_14  and  C_15 
ROOT
HETATM    1  C   UNL     1     -43.231  57.216 -53.384  1.00  0.00     0.171 C 
HETATM    2  N   UNL     1     -42.412  58.170 -53.096  1.00  0.00    -0.210 NA
HETATM    3  C   UNL     1     -42.746  58.995 -52.044  1.00  0.00     0.136 C 
HETATM    4  C   UNL     1     -43.814  58.763 -51.239  1.00  0.00     0.144 C 
HETATM    5  C   UNL     1     -44.488  57.446 -51.431  1.00  0.00     0.277 C 
HETATM    6  O   UNL     1     -44.998  56.801 -50.522  1.00  0.00    -0.266 OA
HETATM    7  N   UNL     1     -44.346  56.920 -52.676  1.00  0.00    -0.300 N 
HETATM    8  H   UNL     1     -44.784  56.027 -52.845  1.00  0.00     0.171 HD
ENDROOT
BRANCH   1   9
HETATM    9  S   UNL     1     -43.034  56.128 -54.717  1.00  0.00    -0.087 SA
BRANCH   9  10
HETATM   10  C   UNL     1     -43.474  54.543 -53.954  1.00  0.00     0.121 C 
BRANCH  10  11
HETATM   11  C   UNL     1     -42.228  53.777 -53.551  1.00  0.00    -0.037 A 
HETATM   12  C   UNL     1     -41.721  53.769 -52.218  1.00  0.00    -0.019 A 
HETATM   13  C   UNL     1     -40.532  53.043 -51.946  1.00  0.00    -0.025 A 
HETATM   14  C   UNL     1     -42.327  54.450 -51.134  1.00  0.00     0.013 A 
HETATM   15  C   UNL     1     -40.008  53.006 -50.642  1.00  0.00     0.012 A 
HETATM   16  C   UNL     1     -39.872  52.364 -52.978  1.00  0.00     0.012 A 
HETATM   17  C   UNL     1     -40.636  53.681 -49.596  1.00  0.00     0.001 A 
HETATM   18  C   UNL     1     -41.793  54.404 -49.844  1.00  0.00     0.001 A 
HETATM   19  C   UNL     1     -40.363  52.388 -54.279  1.00  0.00     0.001 A 
HETATM   20  C   UNL     1     -41.530  53.088 -54.563  1.00  0.00     0.009 A 
ENDBRANCH  10  11
ENDBRANCH   9  10
ENDBRANCH   1   9
BRANCH   3  21
HETATM   21  N   UNL     1     -41.957  60.122 -51.850  1.00  0.00    -0.285 NA
HETATM   22  H   UNL     1     -41.186  59.852 -51.241  1.00  0.00     0.125 HD
HETATM   23  H   UNL     1     -42.491  60.859 -51.393  1.00  0.00     0.125 HD
ENDBRANCH   3  21
BRANCH   4  24
HETATM   24  N   UNL     1     -44.220  59.685 -50.292  1.00  0.00    -0.314 N 
HETATM   25  C   UNL     1     -45.494  60.203 -50.144  1.00  0.00     0.280 C 
HETATM   26  O   UNL     1     -46.444  59.943 -50.875  1.00  0.00    -0.265 OA
HETATM   27  H   UNL     1     -43.484  60.195 -49.817  1.00  0.00     0.169 HD
BRANCH  25  28
HETATM   28  C   UNL     1     -45.602  61.177 -49.076  1.00  0.00     0.144 A 
HETATM   29  O   UNL     1     -46.683  62.019 -49.026  1.00  0.00    -0.298 OA
HETATM   30  C   UNL     1     -46.542  62.782 -47.907  1.00  0.00     0.122 A 
HETATM   31 BR   UNL     1     -47.773  64.072 -47.358  1.00  0.00    -0.023 Br
HETATM   32  C   UNL     1     -45.379  62.462 -47.247  1.00  0.00     0.048 A 
HETATM   33  C   UNL     1     -44.773  61.426 -47.997  1.00  0.00     0.046 A 
ENDBRANCH  25  28
ENDBRANCH   4  24
TORSDOF 6
ENDMDL
MODEL 3
REMARK VINA RESULT:      -9.0      5.804      6.882
REMARK  6 active torsions:
REMARK  status: ('A' for Active; 'I' for Inactive)
REMARK    1  A    between atoms: C_5  and  C_6 
REMARK    2  A    between atoms: C_6  and  S_7 
REMARK    3  A    between atoms: S_7  and  C_8 
REMARK    4  A    between atoms: C_10  and  N_11 
REMARK    5  A    between atoms: C_12  and  N_13 
REMARK       I    between atoms: N_13  and  C_14 
REMARK    6  A    between atoms: C_14  and  C_15 
ROOT
HETATM    1  C   UNL     1     -42.567  56.618 -55.625  1.00  0.00     0.171 C 
HETATM    2  N   UNL     1     -42.417  57.785 -55.095  1.00  0.00    -0.210 NA
HETATM    3  C   UNL     1     -42.065  58.820 -55.933  1.00  0.00     0.136 C 
HETATM    4  C   UNL     1     -42.001  58.683 -57.282  1.00  0.00     0.144 C 
HETATM    5  C   UNL     1     -42.536  57.400 -57.823  1.00  0.00     0.277 C 
HETATM    6  O   UNL     1     -43.117  57.301 -58.898  1.00  0.00    -0.266 OA
HETATM    7  N   UNL     1     -42.485  56.359 -56.951  1.00  0.00    -0.300 N 
HETATM    8  H   UNL     1     -42.841  55.474 -57.277  1.00  0.00     0.171 HD
ENDROOT
BRANCH   1   9
HETATM    9  S   UNL     1     -42.925  55.178 -54.731  1.00  0.00    -0.087 SA
BRANCH   9  10
HETATM   10  C   UNL     1     -41.397  54.228 -54.953  1.00  0.00     0.121 C 
BRANCH  10  11
HETATM   11  C   UNL     1     -40.890  53.708 -53.621  1.00  0.00    -0.037 A 
HETATM   12  C   UNL     1     -40.435  52.369 -53.436  1.00  0.00    -0.019 A 
HETATM   13  C   UNL     1     -40.003  51.970 -52.144  1.00  0.00    -0.025 A 
HETATM   14  C   UNL     1     -40.388  51.396 -54.464  1.00  0.00     0.013 A 
HETATM   15  C   UNL     1     -39.541  50.660 -51.925  1.00  0.00     0.012 A 
HETATM   16  C   UNL     1     -40.043  52.878 -51.078  1.00  0.00     0.012 A 
HETATM   17  C   UNL     1     -39.500  49.731 -52.962  1.00  0.00     0.001 A 
HETATM   18  C   UNL     1     -39.926  50.099 -54.230  1.00  0.00     0.001 A 
HETATM   19  C   UNL     1     -40.503  54.178 -51.262  1.00  0.00     0.001 A 
HETATM   20  C   UNL     1     -40.922  54.589 -52.522  1.00  0.00     0.009 A 
ENDBRANCH  10  11
ENDBRANCH   9  10
ENDBRANCH   1   9
BRANCH   3  21
HETATM   21  N   UNL     1     -41.732  60.030 -55.337  1.00  0.00    -0.285 NA
HETATM   22  H   UNL     1     -42.577  60.393 -54.895  1.00  0.00     0.125 HD
HETATM   23  H   UNL     1     -41.417  60.699 -56.036  1.00  0.00     0.125 HD
ENDBRANCH   3  21
BRANCH   4  24
HETATM   24  N   UNL     1     -41.496  59.687 -58.088  1.00  0.00    -0.314 N 
HETATM   25  C   UNL     1     -42.229  60.657 -58.747  1.00  0.00     0.280 C 
HETATM   26  O   UNL     1     -43.453  60.735 -58.739  1.00  0.00    -0.265 OA
HETATM   27  H   UNL     1     -40.542  59.566 -58.411  1.00  0.00     0.169 HD
BRANCH  25  28
HETATM   28  C   UNL     1     -41.416  61.554 -59.544  1.00  0.00     0.144 A 
HETATM   29  O   UNL     1     -40.493  62.364 -58.934  1.00  0.00    -0.298 OA
HETATM   30  C   UNL     1     -39.855  63.054 -59.919  1.00  0.00     0.122 A 
HETATM   31 BR   UNL     1     -38.476  64.273 -59.618  1.00  0.00    -0.023 Br
HETATM   32  C   UNL     1     -40.366  62.720 -61.152  1.00  0.00     0.048 A 
HETATM   33  C   UNL     1     -41.370  61.751 -60.912  1.00  0.00     0.046 A 
ENDBRANCH  25  28
ENDBRANCH   4  24
TORSDOF 6
ENDMDL
MODEL 4
REMARK VINA RESULT:      -8.9      1.365      2.774
REMARK  6 active torsions:
REMARK  status: ('A' for Active; 'I' for Inactive)
REMARK    1  A    between atoms: C_5  and  C_6 
REMARK    2  A    between atoms: C_6  and  S_7 
REMARK    3  A    between atoms: S_7  and  C_8 
REMARK    4  A    between atoms: C_10  and  N_11 
REMARK    5  A    between atoms: C_12  and  N_13 
REMARK       I    between atoms: N_13  and  C_14 
REMARK    6  A    between atoms: C_14  and  C_15 
ROOT
HETATM    1  C   UNL     1     -43.235  56.695 -53.596  1.00  0.00     0.171 C 
HETATM    2  N   UNL     1     -43.974  56.321 -52.606  1.00  0.00    -0.210 NA
HETATM    3  C   UNL     1     -44.319  57.279 -51.678  1.00  0.00     0.136 C 
HETATM    4  C   UNL     1     -44.025  58.594 -51.835  1.00  0.00     0.144 C 
HETATM    5  C   UNL     1     -43.488  58.976 -53.173  1.00  0.00     0.277 C 
HETATM    6  O   UNL     1     -43.721  60.047 -53.723  1.00  0.00    -0.266 OA
HETATM    7  N   UNL     1     -42.849  57.972 -53.828  1.00  0.00    -0.300 N 
HETATM    8  H   UNL     1     -42.474  58.188 -54.739  1.00  0.00     0.171 HD
ENDROOT
BRANCH   1   9
HETATM    9  S   UNL     1     -42.627  55.629 -54.819  1.00  0.00    -0.087 SA
BRANCH   9  10
HETATM   10  C   UNL     1     -40.875  55.524 -54.365  1.00  0.00     0.121 C 
BRANCH  10  11
HETATM   11  C   UNL     1     -40.568  54.184 -53.723  1.00  0.00    -0.037 A 
HETATM   12  C   UNL     1     -40.575  53.982 -52.312  1.00  0.00    -0.019 A 
HETATM   13  C   UNL     1     -40.248  52.696 -51.806  1.00  0.00    -0.025 A 
HETATM   14  C   UNL     1     -40.884  54.990 -51.367  1.00  0.00     0.013 A 
HETATM   15  C   UNL     1     -40.253  52.458 -50.421  1.00  0.00     0.012 A 
HETATM   16  C   UNL     1     -39.913  51.659 -52.687  1.00  0.00     0.012 A 
HETATM   17  C   UNL     1     -40.570  53.472 -49.519  1.00  0.00     0.001 A 
HETATM   18  C   UNL     1     -40.884  54.738 -49.992  1.00  0.00     0.001 A 
HETATM   19  C   UNL     1     -39.893  51.867 -54.062  1.00  0.00     0.001 A 
HETATM   20  C   UNL     1     -40.217  53.118 -54.575  1.00  0.00     0.009 A 
ENDBRANCH  10  11
ENDBRANCH   9  10
ENDBRANCH   1   9
BRANCH   3  21
HETATM   21  N   UNL     1     -44.961  56.838 -50.526  1.00  0.00    -0.285 NA
HETATM   22  H   UNL     1     -44.427  56.048 -50.164  1.00  0.00     0.125 HD
HETATM   23  H   UNL     1     -45.905  56.522 -50.742  1.00  0.00     0.125 HD
ENDBRANCH   3  21
BRANCH   4  24
HETATM   24  N   UNL     1     -44.241  59.510 -50.822  1.00  0.00    -0.314 N 
HETATM   25  C   UNL     1     -45.462  60.030 -50.432  1.00  0.00     0.280 C 
HETATM   26  O   UNL     1     -46.535  59.775 -50.969  1.00  0.00    -0.265 OA
HETATM   27  H   UNL     1     -43.426  60.017 -50.493  1.00  0.00     0.169 HD
BRANCH  25  28
HETATM   28  C   UNL     1     -45.363  60.997 -49.356  1.00  0.00     0.144 A 
HETATM   29  O   UNL     1     -46.383  61.116 -48.448  1.00  0.00    -0.298 OA
HETATM   30  C   UNL     1     -46.000  62.055 -47.540  1.00  0.00     0.122 A 
HETATM   31 BR   UNL     1     -47.024  62.566 -46.067  1.00  0.00    -0.023 Br
HETATM   32  C   UNL     1     -44.761  62.560 -47.860  1.00  0.00     0.048 A 
HETATM   33  C   UNL     1     -44.348  61.877 -49.029  1.00  0.00     0.046 A 
ENDBRANCH  25  28
ENDBRANCH   4  24
TORSDOF 6
ENDMDL
MODEL 5
REMARK VINA RESULT:      -8.8      1.594      2.047
REMARK  6 active torsions:
REMARK  status: ('A' for Active; 'I' for Inactive)
REMARK    1  A    between atoms: C_5  and  C_6 
REMARK    2  A    between atoms: C_6  and  S_7 
REMARK    3  A    between atoms: S_7  and  C_8 
REMARK    4  A    between atoms: C_10  and  N_11 
REMARK    5  A    between atoms: C_12  and  N_13 
REMARK       I    between atoms: N_13  and  C_14 
REMARK    6  A    between atoms: C_14  and  C_15 
ROOT
HETATM    1  C   UNL     1     -43.213  56.200 -53.410  1.00  0.00     0.171 C 
HETATM    2  N   UNL     1     -43.981  56.217 -52.374  1.00  0.00    -0.210 NA
HETATM    3  C   UNL     1     -44.203  57.436 -51.772  1.00  0.00     0.136 C 
HETATM    4  C   UNL     1     -43.759  58.606 -52.296  1.00  0.00     0.144 C 
HETATM    5  C   UNL     1     -43.193  58.518 -53.673  1.00  0.00     0.277 C 
HETATM    6  O   UNL     1     -43.304  59.402 -54.516  1.00  0.00    -0.266 OA
HETATM    7  N   UNL     1     -42.682  57.300 -53.993  1.00  0.00    -0.300 N 
HETATM    8  H   UNL     1     -42.292  57.198 -54.918  1.00  0.00     0.171 HD
ENDROOT
BRANCH   1   9
HETATM    9  S   UNL     1     -42.746  54.762 -54.256  1.00  0.00    -0.087 SA
BRANCH   9  10
HETATM   10  C   UNL     1     -40.954  54.746 -53.976  1.00  0.00     0.121 C 
BRANCH  10  11
HETATM   11  C   UNL     1     -40.601  53.833 -52.817  1.00  0.00    -0.037 A 
HETATM   12  C   UNL     1     -40.264  52.458 -52.991  1.00  0.00    -0.019 A 
HETATM   13  C   UNL     1     -39.973  51.678 -51.841  1.00  0.00    -0.025 A 
HETATM   14  C   UNL     1     -40.204  51.807 -54.247  1.00  0.00     0.013 A 
HETATM   15  C   UNL     1     -39.629  50.322 -51.975  1.00  0.00     0.012 A 
HETATM   16  C   UNL     1     -40.034  52.256 -50.566  1.00  0.00     0.012 A 
HETATM   17  C   UNL     1     -39.571  49.715 -53.227  1.00  0.00     0.001 A 
HETATM   18  C   UNL     1     -39.861  50.458 -54.363  1.00  0.00     0.001 A 
HETATM   19  C   UNL     1     -40.378  53.594 -50.403  1.00  0.00     0.001 A 
HETATM   20  C   UNL     1     -40.659  54.375 -51.518  1.00  0.00     0.009 A 
ENDBRANCH  10  11
ENDBRANCH   9  10
ENDBRANCH   1   9
BRANCH   3  21
HETATM   21  N   UNL     1     -44.882  57.427 -50.559  1.00  0.00    -0.285 NA
HETATM   22  H   UNL     1     -44.427  58.107 -49.951  1.00  0.00     0.125 HD
HETATM   23  H   UNL     1     -44.822  56.509 -50.123  1.00  0.00     0.125 HD
ENDBRANCH   3  21
BRANCH   4  24
HETATM   24  N   UNL     1     -43.857  59.796 -51.598  1.00  0.00    -0.314 N 
HETATM   25  C   UNL     1     -42.839  60.429 -50.909  1.00  0.00     0.280 C 
HETATM   26  O   UNL     1     -41.700  59.992 -50.786  1.00  0.00    -0.265 OA
HETATM   27  H   UNL     1     -44.795  60.111 -51.378  1.00  0.00     0.169 HD
BRANCH  25  28
HETATM   28  C   UNL     1     -43.259  61.650 -50.249  1.00  0.00     0.144 A 
HETATM   29  O   UNL     1     -44.164  61.593 -49.220  1.00  0.00    -0.298 OA
HETATM   30  C   UNL     1     -44.334  62.867 -48.769  1.00  0.00     0.122 A 
HETATM   31 BR   UNL     1     -45.445  63.332 -47.345  1.00  0.00    -0.023 Br
HETATM   32  C   UNL     1     -43.572  63.746 -49.504  1.00  0.00     0.048 A 
HETATM   33  C   UNL     1     -42.877  62.963 -50.456  1.00  0.00     0.046 A 
ENDBRANCH  25  28
ENDBRANCH   4  24
TORSDOF 6
ENDMDL
MODEL 6
REMARK VINA RESULT:      -8.8      4.607      6.040
REMARK  6 active torsions:
REMARK  status: ('A' for Active; 'I' for Inactive)
REMARK    1  A    between atoms: C_5  and  C_6 
REMARK    2  A    between atoms: C_6  and  S_7 
REMARK    3  A    between atoms: S_7  and  C_8 
REMARK    4  A    between atoms: C_10  and  N_11 
REMARK    5  A    between atoms: C_12  and  N_13 
REMARK       I    between atoms: N_13  and  C_14 
REMARK    6  A    between atoms: C_14  and  C_15 
ROOT
HETATM    1  C   UNL     1     -42.806  55.246 -52.738  1.00  0.00     0.171 C 
HETATM    2  N   UNL     1     -42.171  55.031 -53.840  1.00  0.00    -0.210 NA
HETATM    3  C   UNL     1     -42.697  55.576 -54.990  1.00  0.00     0.136 C 
HETATM    4  C   UNL     1     -43.761  56.418 -54.984  1.00  0.00     0.144 C 
HETATM    5  C   UNL     1     -44.200  56.887 -53.637  1.00  0.00     0.277 C 
HETATM    6  O   UNL     1     -44.654  58.004 -53.417  1.00  0.00    -0.266 OA
HETATM    7  N   UNL     1     -43.900  56.035 -52.622  1.00  0.00    -0.300 N 
HETATM    8  H   UNL     1     -44.176  56.317 -51.694  1.00  0.00     0.171 HD
ENDROOT
BRANCH   1   9
HETATM    9  S   UNL     1     -42.353  54.581 -51.203  1.00  0.00    -0.087 SA
BRANCH   9  10
HETATM   10  C   UNL     1     -40.606  54.187 -51.484  1.00  0.00     0.121 C 
BRANCH  10  11
HETATM   11  C   UNL     1     -40.349  52.708 -51.266  1.00  0.00    -0.037 A 
HETATM   12  C   UNL     1     -40.078  51.805 -52.336  1.00  0.00    -0.019 A 
HETATM   13  C   UNL     1     -39.875  50.432 -52.034  1.00  0.00    -0.025 A 
HETATM   14  C   UNL     1     -40.001  52.186 -53.698  1.00  0.00     0.013 A 
HETATM   15  C   UNL     1     -39.599  49.514 -53.062  1.00  0.00     0.012 A 
HETATM   16  C   UNL     1     -39.958  49.986 -50.708  1.00  0.00     0.012 A 
HETATM   17  C   UNL     1     -39.522  49.926 -54.391  1.00  0.00     0.001 A 
HETATM   18  C   UNL     1     -39.725  51.261 -54.708  1.00  0.00     0.001 A 
HETATM   19  C   UNL     1     -40.237  50.869 -49.672  1.00  0.00     0.001 A 
HETATM   20  C   UNL     1     -40.431  52.218 -49.948  1.00  0.00     0.009 A 
ENDBRANCH  10  11
ENDBRANCH   9  10
ENDBRANCH   1   9
BRANCH   3  21
HETATM   21  N   UNL     1     -42.114  55.196 -56.193  1.00  0.00    -0.285 NA
HETATM   22  H   UNL     1     -42.418  55.863 -56.902  1.00  0.00     0.125 HD
HETATM   23  H   UNL     1     -42.428  54.266 -56.465  1.00  0.00     0.125 HD
ENDBRANCH   3  21
BRANCH   4  24
HETATM   24  N   UNL     1     -44.368  56.827 -56.157  1.00  0.00    -0.314 N 
HETATM   25  C   UNL     1     -43.843  57.702 -57.091  1.00  0.00     0.280 C 
HETATM   26  O   UNL     1     -42.765  58.276 -56.983  1.00  0.00    -0.265 OA
HETATM   27  H   UNL     1     -45.366  56.660 -56.228  1.00  0.00     0.169 HD
BRANCH  25  28
HETATM   28  C   UNL     1     -44.733  57.961 -58.205  1.00  0.00     0.144 A 
HETATM   29  O   UNL     1     -45.272  56.914 -58.908  1.00  0.00    -0.298 OA
HETATM   30  C   UNL     1     -46.093  57.449 -59.854  1.00  0.00     0.122 A 
HETATM   31 BR   UNL     1     -47.100  56.440 -61.057  1.00  0.00    -0.023 Br
HETATM   32  C   UNL     1     -46.075  58.823 -59.788  1.00  0.00     0.048 A 
HETATM   33  C   UNL     1     -45.202  59.155 -58.724  1.00  0.00     0.046 A 
ENDBRANCH  25  28
ENDBRANCH   4  24
TORSDOF 6
ENDMDL
MODEL 7
REMARK VINA RESULT:      -8.7      5.882      7.359
REMARK  6 active torsions:
REMARK  status: ('A' for Active; 'I' for Inactive)
REMARK    1  A    between atoms: C_5  and  C_6 
REMARK    2  A    between atoms: C_6  and  S_7 
REMARK    3  A    between atoms: S_7  and  C_8 
REMARK    4  A    between atoms: C_10  and  N_11 
REMARK    5  A    between atoms: C_12  and  N_13 
REMARK       I    between atoms: N_13  and  C_14 
REMARK    6  A    between atoms: C_14  and  C_15 
ROOT
HETATM    1  C   UNL     1     -42.574  56.957 -55.320  1.00  0.00     0.171 C 
HETATM    2  N   UNL     1     -42.111  56.707 -56.498  1.00  0.00    -0.210 NA
HETATM    3  C   UNL     1     -43.000  56.755 -57.549  1.00  0.00     0.136 C 
HETATM    4  C   UNL     1     -44.283  57.173 -57.408  1.00  0.00     0.144 C 
HETATM    5  C   UNL     1     -44.619  57.778 -56.087  1.00  0.00     0.277 C 
HETATM    6  O   UNL     1     -45.414  58.700 -55.939  1.00  0.00    -0.266 OA
HETATM    7  N   UNL     1     -43.845  57.343 -55.058  1.00  0.00    -0.300 N 
HETATM    8  H   UNL     1     -44.038  57.730 -54.147  1.00  0.00     0.171 HD
ENDROOT
BRANCH   1   9
HETATM    9  S   UNL     1     -41.639  56.867 -53.863  1.00  0.00    -0.087 SA
BRANCH   9  10
HETATM   10  C   UNL     1     -42.515  55.565 -52.955  1.00  0.00     0.121 C 
BRANCH  10  11
HETATM   11  C   UNL     1     -41.547  54.752 -52.116  1.00  0.00    -0.037 A 
HETATM   12  C   UNL     1     -40.932  53.555 -52.587  1.00  0.00    -0.019 A 
HETATM   13  C   UNL     1     -40.059  52.850 -51.717  1.00  0.00    -0.025 A 
HETATM   14  C   UNL     1     -41.139  53.010 -53.878  1.00  0.00     0.013 A 
HETATM   15  C   UNL     1     -39.428  51.671 -52.150  1.00  0.00     0.012 A 
HETATM   16  C   UNL     1     -39.827  53.325 -50.419  1.00  0.00     0.012 A 
HETATM   17  C   UNL     1     -39.648  51.167 -53.431  1.00  0.00     0.001 A 
HETATM   18  C   UNL     1     -40.505  51.836 -54.293  1.00  0.00     0.001 A 
HETATM   19  C   UNL     1     -40.442  54.485 -49.961  1.00  0.00     0.001 A 
HETATM   20  C   UNL     1     -41.294  55.192 -50.802  1.00  0.00     0.009 A 
ENDBRANCH  10  11
ENDBRANCH   9  10
ENDBRANCH   1   9
BRANCH   3  21
HETATM   21  N   UNL     1     -42.540  56.314 -58.784  1.00  0.00    -0.285 NA
HETATM   22  H   UNL     1     -43.125  55.525 -59.062  1.00  0.00     0.125 HD
HETATM   23  H   UNL     1     -41.575  55.996 -58.714  1.00  0.00     0.125 HD
ENDBRANCH   3  21
BRANCH   4  24
HETATM   24  N   UNL     1     -45.197  57.065 -58.440  1.00  0.00    -0.314 N 
HETATM   25  C   UNL     1     -45.544  58.060 -59.337  1.00  0.00     0.280 C 
HETATM   26  O   UNL     1     -45.111  59.206 -59.312  1.00  0.00    -0.265 OA
HETATM   27  H   UNL     1     -45.833  56.276 -58.396  1.00  0.00     0.169 HD
BRANCH  25  28
HETATM   28  C   UNL     1     -46.559  57.652 -60.288  1.00  0.00     0.144 A 
HETATM   29  O   UNL     1     -47.285  58.601 -60.961  1.00  0.00    -0.298 OA
HETATM   30  C   UNL     1     -48.120  57.938 -61.808  1.00  0.00     0.122 A 
HETATM   31 BR   UNL     1     -49.302  58.776 -62.982  1.00  0.00    -0.023 Br
HETATM   32  C   UNL     1     -47.960  56.577 -61.677  1.00  0.00     0.048 A 
HETATM   33  C   UNL     1     -46.953  56.392 -60.700  1.00  0.00     0.046 A 
ENDBRANCH  25  28
ENDBRANCH   4  24
TORSDOF 6
ENDMDL
MODEL 8
REMARK VINA RESULT:      -8.5      5.919      7.396
REMARK  6 active torsions:
REMARK  status: ('A' for Active; 'I' for Inactive)
REMARK    1  A    between atoms: C_5  and  C_6 
REMARK    2  A    between atoms: C_6  and  S_7 
REMARK    3  A    between atoms: S_7  and  C_8 
REMARK    4  A    between atoms: C_10  and  N_11 
REMARK    5  A    between atoms: C_12  and  N_13 
REMARK       I    between atoms: N_13  and  C_14 
REMARK    6  A    between atoms: C_14  and  C_15 
ROOT
HETATM    1  C   UNL     1     -42.735  55.971 -56.248  1.00  0.00     0.171 C 
HETATM    2  N   UNL     1     -42.573  57.086 -55.619  1.00  0.00    -0.210 NA
HETATM    3  C   UNL     1     -42.231  58.191 -56.369  1.00  0.00     0.136 C 
HETATM    4  C   UNL     1     -42.189  58.174 -57.725  1.00  0.00     0.144 C 
HETATM    5  C   UNL     1     -42.738  56.946 -58.369  1.00  0.00     0.277 C 
HETATM    6  O   UNL     1     -43.337  56.944 -59.439  1.00  0.00    -0.266 OA
HETATM    7  N   UNL     1     -42.677  55.831 -57.594  1.00  0.00    -0.300 N 
HETATM    8  H   UNL     1     -43.041  54.979 -57.991  1.00  0.00     0.171 HD
ENDROOT
BRANCH   1   9
HETATM    9  S   UNL     1     -43.084  54.458 -55.480  1.00  0.00    -0.087 SA
BRANCH   9  10
HETATM   10  C   UNL     1     -42.882  54.888 -53.730  1.00  0.00     0.121 C 
BRANCH  10  11
HETATM   11  C   UNL     1     -41.821  54.019 -53.083  1.00  0.00    -0.037 A 
HETATM   12  C   UNL     1     -41.401  54.188 -51.731  1.00  0.00    -0.019 A 
HETATM   13  C   UNL     1     -40.382  53.340 -51.224  1.00  0.00    -0.025 A 
HETATM   14  C   UNL     1     -41.932  55.161 -50.850  1.00  0.00     0.013 A 
HETATM   15  C   UNL     1     -39.947  53.474 -49.893  1.00  0.00     0.012 A 
HETATM   16  C   UNL     1     -39.799  52.370 -52.050  1.00  0.00     0.012 A 
HETATM   17  C   UNL     1     -40.499  54.436 -49.051  1.00  0.00     0.001 A 
HETATM   18  C   UNL     1     -41.489  55.281 -49.530  1.00  0.00     0.001 A 
HETATM   19  C   UNL     1     -40.204  52.220 -53.372  1.00  0.00     0.001 A 
HETATM   20  C   UNL     1     -41.205  53.037 -53.884  1.00  0.00     0.009 A 
ENDBRANCH  10  11
ENDBRANCH   9  10
ENDBRANCH   1   9
BRANCH   3  21
HETATM   21  N   UNL     1     -41.884  59.342 -55.672  1.00  0.00    -0.285 NA
HETATM   22  H   UNL     1     -41.350  59.933 -56.310  1.00  0.00     0.125 HD
HETATM   23  H   UNL     1     -41.297  59.113 -54.872  1.00  0.00     0.125 HD
ENDBRANCH   3  21
BRANCH   4  24
HETATM   24  N   UNL     1     -41.694  59.244 -58.447  1.00  0.00    -0.314 N 
HETATM   25  C   UNL     1     -42.436  60.258 -59.026  1.00  0.00     0.280 C 
HETATM   26  O   UNL     1     -43.661  60.323 -59.012  1.00  0.00    -0.265 OA
HETATM   27  H   UNL     1     -40.739  59.159 -58.778  1.00  0.00     0.169 HD
BRANCH  25  28
HETATM   28  C   UNL     1     -41.632  61.224 -59.748  1.00  0.00     0.144 A 
HETATM   29  O   UNL     1     -40.756  62.029 -59.066  1.00  0.00    -0.298 OA
HETATM   30  C   UNL     1     -40.114  62.793 -59.992  1.00  0.00     0.122 A 
HETATM   31 BR   UNL     1     -38.787  64.038 -59.583  1.00  0.00    -0.023 Br
HETATM   32  C   UNL     1     -40.576  62.511 -61.256  1.00  0.00     0.048 A 
HETATM   33  C   UNL     1     -41.553  61.498 -61.101  1.00  0.00     0.046 A 
ENDBRANCH  25  28
ENDBRANCH   4  24
TORSDOF 6
ENDMDL
MODEL 9
REMARK VINA RESULT:      -8.5      5.635      8.873
REMARK  6 active torsions:
REMARK  status: ('A' for Active; 'I' for Inactive)
REMARK    1  A    between atoms: C_5  and  C_6 
REMARK    2  A    between atoms: C_6  and  S_7 
REMARK    3  A    between atoms: S_7  and  C_8 
REMARK    4  A    between atoms: C_10  and  N_11 
REMARK    5  A    between atoms: C_12  and  N_13 
REMARK       I    between atoms: N_13  and  C_14 
REMARK    6  A    between atoms: C_14  and  C_15 
ROOT
HETATM    1  C   UNL     1     -43.508  58.335 -55.279  1.00  0.00     0.171 C 
HETATM    2  N   UNL     1     -44.246  57.319 -54.983  1.00  0.00    -0.210 NA
HETATM    3  C   UNL     1     -43.615  56.205 -54.474  1.00  0.00     0.136 C 
HETATM    4  C   UNL     1     -42.295  56.189 -54.159  1.00  0.00     0.144 C 
HETATM    5  C   UNL     1     -41.609  57.513 -54.201  1.00  0.00     0.277 C 
HETATM    6  O   UNL     1     -40.706  57.840 -53.438  1.00  0.00    -0.266 OA
HETATM    7  N   UNL     1     -42.177  58.413 -55.047  1.00  0.00    -0.300 N 
HETATM    8  H   UNL     1     -41.745  59.322 -55.101  1.00  0.00     0.171 HD
ENDROOT
BRANCH   1   9
HETATM    9  S   UNL     1     -44.099  59.793 -56.005  1.00  0.00    -0.087 SA
BRANCH   9  10
HETATM   10  C   UNL     1     -43.710  59.507 -57.752  1.00  0.00     0.121 C 
BRANCH  10  11
HETATM   11  C   UNL     1     -44.824  58.732 -58.429  1.00  0.00    -0.037 A 
HETATM   12  C   UNL     1     -44.641  57.423 -58.965  1.00  0.00    -0.019 A 
HETATM   13  C   UNL     1     -45.739  56.789 -59.604  1.00  0.00    -0.025 A 
HETATM   14  C   UNL     1     -43.422  56.706 -58.910  1.00  0.00     0.013 A 
HETATM   15  C   UNL     1     -45.598  55.496 -60.137  1.00  0.00     0.012 A 
HETATM   16  C   UNL     1     -46.969  57.453 -59.711  1.00  0.00     0.012 A 
HETATM   17  C   UNL     1     -44.385  54.815 -60.057  1.00  0.00     0.001 A 
HETATM   18  C   UNL     1     -43.297  55.421 -59.446  1.00  0.00     0.001 A 
HETATM   19  C   UNL     1     -47.136  58.735 -59.199  1.00  0.00     0.001 A 
HETATM   20  C   UNL     1     -46.074  59.369 -58.564  1.00  0.00     0.009 A 
ENDBRANCH  10  11
ENDBRANCH   9  10
ENDBRANCH   1   9
BRANCH   3  21
HETATM   21  N   UNL     1     -44.383  55.057 -54.325  1.00  0.00    -0.285 NA
HETATM   22  H   UNL     1     -44.976  54.979 -55.151  1.00  0.00     0.125 HD
HETATM   23  H   UNL     1     -44.978  55.130 -53.502  1.00  0.00     0.125 HD
ENDBRANCH   3  21
BRANCH   4  24
HETATM   24  N   UNL     1     -41.651  55.020 -53.799  1.00  0.00    -0.314 N 
HETATM   25  C   UNL     1     -41.344  54.614 -52.513  1.00  0.00     0.280 C 
HETATM   26  O   UNL     1     -41.568  55.269 -51.501  1.00  0.00    -0.265 OA
HETATM   27  H   UNL     1     -41.158  54.532 -54.540  1.00  0.00     0.169 HD
BRANCH  25  28
HETATM   28  C   UNL     1     -40.635  53.351 -52.458  1.00  0.00     0.144 A 
HETATM   29  O   UNL     1     -40.692  52.489 -53.523  1.00  0.00    -0.298 OA
HETATM   30  C   UNL     1     -39.907  51.420 -53.214  1.00  0.00     0.122 A 
HETATM   31 BR   UNL     1     -39.615  49.972 -54.351  1.00  0.00    -0.023 Br
HETATM   32  C   UNL     1     -39.363  51.568 -51.959  1.00  0.00     0.048 A 
HETATM   33  C   UNL     1     -39.829  52.813 -51.472  1.00  0.00     0.046 A 
ENDBRANCH  25  28
ENDBRANCH   4  24
TORSDOF 6
ENDMDL
MODEL 10
REMARK VINA RESULT:      -8.5      5.917      7.053
REMARK  6 active torsions:
REMARK  status: ('A' for Active; 'I' for Inactive)
REMARK    1  A    between atoms: C_5  and  C_6 
REMARK    2  A    between atoms: C_6  and  S_7 
REMARK    3  A    between atoms: S_7  and  C_8 
REMARK    4  A    between atoms: C_10  and  N_11 
REMARK    5  A    between atoms: C_12  and  N_13 
REMARK       I    between atoms: N_13  and  C_14 
REMARK    6  A    between atoms: C_14  and  C_15 
ROOT
HETATM    1  C   UNL     1     -43.007  55.844 -55.612  1.00  0.00     0.171 C 
HETATM    2  N   UNL     1     -43.546  56.998 -55.402  1.00  0.00    -0.210 NA
HETATM    3  C   UNL     1     -43.519  57.906 -56.438  1.00  0.00     0.136 C 
HETATM    4  C   UNL     1     -43.075  57.590 -57.680  1.00  0.00     0.144 C 
HETATM    5  C   UNL     1     -42.810  56.142 -57.918  1.00  0.00     0.277 C 
HETATM    6  O   UNL     1     -43.000  55.579 -58.991  1.00  0.00    -0.266 OA
HETATM    7  N   UNL     1     -42.498  55.438 -56.799  1.00  0.00    -0.300 N 
HETATM    8  H   UNL     1     -42.315  54.453 -56.916  1.00  0.00     0.171 HD
ENDROOT
BRANCH   1   9
HETATM    9  S   UNL     1     -42.865  54.599 -54.416  1.00  0.00    -0.087 SA
BRANCH   9  10
HETATM   10  C   UNL     1     -41.070  54.350 -54.368  1.00  0.00     0.121 C 
BRANCH  10  11
HETATM   11  C   UNL     1     -40.669  53.582 -53.123  1.00  0.00    -0.037 A 
HETATM   12  C   UNL     1     -40.279  52.210 -53.153  1.00  0.00    -0.019 A 
HETATM   13  C   UNL     1     -39.945  51.571 -51.930  1.00  0.00    -0.025 A 
HETATM   14  C   UNL     1     -40.206  51.430 -54.332  1.00  0.00     0.013 A 
HETATM   15  C   UNL     1     -39.549  50.222 -51.921  1.00  0.00     0.012 A 
HETATM   16  C   UNL     1     -40.016  52.281 -50.724  1.00  0.00     0.012 A 
HETATM   17  C   UNL     1     -39.480  49.487 -53.102  1.00  0.00     0.001 A 
HETATM   18  C   UNL     1     -39.811  50.090 -54.307  1.00  0.00     0.001 A 
HETATM   19  C   UNL     1     -40.411  53.614 -50.701  1.00  0.00     0.001 A 
HETATM   20  C   UNL     1     -40.735  54.258 -51.889  1.00  0.00     0.009 A 
ENDBRANCH  10  11
ENDBRANCH   9  10
ENDBRANCH   1   9
BRANCH   3  21
HETATM   21  N   UNL     1     -43.937  59.200 -56.152  1.00  0.00    -0.285 NA
HETATM   22  H   UNL     1     -43.173  59.828 -56.401  1.00  0.00     0.125 HD
HETATM   23  H   UNL     1     -44.132  59.302 -55.158  1.00  0.00     0.125 HD
ENDBRANCH   3  21
BRANCH   4  24
HETATM   24  N   UNL     1     -42.912  58.555 -58.657  1.00  0.00    -0.314 N 
HETATM   25  C   UNL     1     -42.009  59.602 -58.634  1.00  0.00     0.280 C 
HETATM   26  O   UNL     1     -41.245  59.846 -57.706  1.00  0.00    -0.265 OA
HETATM   27  H   UNL     1     -43.664  58.642 -59.333  1.00  0.00     0.169 HD
BRANCH  25  28
HETATM   28  C   UNL     1     -42.097  60.469 -59.793  1.00  0.00     0.144 A 
HETATM   29  O   UNL     1     -41.141  61.429 -60.003  1.00  0.00    -0.298 OA
HETATM   30  C   UNL     1     -41.451  62.052 -61.173  1.00  0.00     0.122 A 
HETATM   31 BR   UNL     1     -40.437  63.421 -61.931  1.00  0.00    -0.023 Br
HETATM   32  C   UNL     1     -42.604  61.525 -61.709  1.00  0.00     0.048 A 
HETATM   33  C   UNL     1     -43.020  60.503 -60.822  1.00  0.00     0.046 A 
ENDBRANCH  25  28
ENDBRANCH   4  24
TORSDOF 6
ENDMDL
