MODEL 1
REMARK VINA RESULT:      -8.2      0.000      0.000
REMARK  10 active torsions:
REMARK  status: ('A' for Active; 'I' for Inactive)
REMARK    1  A    between atoms: O_2  and  C_3 
REMARK    2  A    between atoms: C_3  and  C_4 
REMARK    3  A    between atoms: C_8  and  N_9 
REMARK       I    between atoms: N_9  and  C_10 
REMARK    4  A    between atoms: C_10  and  C_11 
REMARK    5  A    between atoms: C_12  and  C_13 
REMARK    6  A    between atoms: C_22  and  C_23 
REMARK    7  A    between atoms: C_23  and  N_24 
REMARK    8  A    between atoms: C_26  and  C_27 
REMARK    9  A    between atoms: C_27  and  C_28 
REMARK   10  A    between atoms: C_28  and  O_29 
ROOT
HETATM    1  C   UNL     1     -44.135  57.897 -56.026  1.00  0.00     0.110 C 
HETATM    2  S   UNL     1     -45.104  59.302 -55.889  1.00  0.00    -0.061 SA
HETATM    3  C   UNL     1     -45.044  59.270 -54.195  1.00  0.00     0.111 A 
HETATM    4  C   UNL     1     -44.316  58.191 -53.702  1.00  0.00     0.028 A 
HETATM    5  C   UNL     1     -43.697  57.447 -54.782  1.00  0.00     0.071 C 
HETATM    6  N   UNL     1     -45.695  60.216 -53.476  1.00  0.00    -0.243 NA
HETATM    7  C   UNL     1     -45.636  60.039 -52.134  1.00  0.00     0.061 A 
HETATM    8  C   UNL     1     -44.999  58.978 -51.511  1.00  0.00     0.030 A 
HETATM    9  C   UNL     1     -44.348  58.034 -52.298  1.00  0.00     0.019 A 
ENDROOT
BRANCH   5  10
HETATM   10  N   UNL     1     -42.800  56.370 -54.695  1.00  0.00    -0.321 N 
HETATM   11  C   UNL     1     -41.506  56.437 -54.224  1.00  0.00     0.245 C 
HETATM   12  O   UNL     1     -40.916  57.449 -53.868  1.00  0.00    -0.268 OA
HETATM   13  H   UNL     1     -43.064  55.535 -55.218  1.00  0.00     0.169 HD
BRANCH  11  14
HETATM   14  C   UNL     1     -40.822  55.112 -54.237  1.00  0.00     0.075 C 
HETATM   15  C   UNL     1     -41.169  54.197 -53.317  1.00  0.00     0.017 C 
BRANCH  15  16
HETATM   16  C   UNL     1     -40.619  52.837 -53.172  1.00  0.00    -0.036 A 
HETATM   17  C   UNL     1     -40.015  52.365 -51.997  1.00  0.00     0.014 A 
HETATM   18  C   UNL     1     -39.495  51.067 -51.936  1.00  0.00     0.043 A 
HETATM   19  C   UNL     1     -39.571  50.241 -53.051  1.00  0.00     0.116 A 
HETATM   20  F   UNL     1     -39.068  49.002 -52.990  1.00  0.00    -0.206 F 
HETATM   21  C   UNL     1     -40.156  50.687 -54.226  1.00  0.00     0.043 A 
HETATM   22  C   UNL     1     -40.677  51.982 -54.286  1.00  0.00     0.014 A 
ENDBRANCH  15  16
ENDBRANCH  11  14
ENDBRANCH   5  10
BRANCH   1  23
HETATM   23  C   UNL     1     -43.801  57.315 -57.319  1.00  0.00     0.302 C 
HETATM   24  O   UNL     1     -42.758  56.705 -57.536  1.00  0.00    -0.259 OA
BRANCH  23  25
HETATM   25  O   UNL     1     -44.782  57.512 -58.243  1.00  0.00    -0.322 OA
HETATM   26  C   UNL     1     -44.734  56.613 -59.354  1.00  0.00     0.213 C 
ENDBRANCH  23  25
ENDBRANCH   1  23
BRANCH   7  27
HETATM   27  C   UNL     1     -46.261  61.120 -51.279  1.00  0.00     0.294 C 
BRANCH  27  28
HETATM   28  N   UNL     1     -45.325  62.268 -50.913  1.00  0.00    -0.061 N 
HETATM   29  H   UNL     1     -45.840  63.089 -51.270  1.00  0.00     0.280 HD
HETATM   30  C   UNL     1     -45.169  62.535 -49.411  1.00  0.00     0.190 C 
HETATM   31  C   UNL     1     -44.307  63.797 -49.251  1.00  0.00     0.033 C 
HETATM   32  C   UNL     1     -42.965  63.690 -49.967  1.00  0.00     0.004 C 
HETATM   33  C   UNL     1     -43.172  63.395 -51.445  1.00  0.00     0.028 C 
HETATM   34  C   UNL     1     -44.025  62.159 -51.669  1.00  0.00     0.235 C 
BRANCH  30  35
HETATM   35  C   UNL     1     -44.642  61.299 -48.671  1.00  0.00     0.059 C 
BRANCH  35  36
HETATM   36  C   UNL     1     -45.623  60.742 -47.644  1.00  0.00     0.166 C 
BRANCH  36  37
HETATM   37  O   UNL     1     -46.047  59.471 -48.106  1.00  0.00    -0.401 OA
HETATM   38  H   UNL     1     -46.842  59.601 -48.657  1.00  0.00     0.209 HD
ENDBRANCH  36  37
ENDBRANCH  35  36
ENDBRANCH  30  35
ENDBRANCH  27  28
ENDBRANCH   7  27
TORSDOF 10
ENDMDL
MODEL 2
REMARK VINA RESULT:      -8.1      1.553      2.372
REMARK  10 active torsions:
REMARK  status: ('A' for Active; 'I' for Inactive)
REMARK    1  A    between atoms: O_2  and  C_3 
REMARK    2  A    between atoms: C_3  and  C_4 
REMARK    3  A    between atoms: C_8  and  N_9 
REMARK       I    between atoms: N_9  and  C_10 
REMARK    4  A    between atoms: C_10  and  C_11 
REMARK    5  A    between atoms: C_12  and  C_13 
REMARK    6  A    between atoms: C_22  and  C_23 
REMARK    7  A    between atoms: C_23  and  N_24 
REMARK    8  A    between atoms: C_26  and  C_27 
REMARK    9  A    between atoms: C_27  and  C_28 
REMARK   10  A    between atoms: C_28  and  O_29 
ROOT
HETATM    1  C   UNL     1     -43.121  58.139 -56.583  1.00  0.00     0.110 C 
HETATM    2  S   UNL     1     -43.933  59.643 -56.475  1.00  0.00    -0.061 SA
HETATM    3  C   UNL     1     -44.283  59.421 -54.830  1.00  0.00     0.111 A 
HETATM    4  C   UNL     1     -43.818  58.205 -54.340  1.00  0.00     0.028 A 
HETATM    5  C   UNL     1     -43.046  57.502 -55.346  1.00  0.00     0.071 C 
HETATM    6  N   UNL     1     -44.978  60.367 -54.152  1.00  0.00    -0.243 NA
HETATM    7  C   UNL     1     -45.262  60.040 -52.868  1.00  0.00     0.061 A 
HETATM    8  C   UNL     1     -44.914  58.839 -52.270  1.00  0.00     0.030 A 
HETATM    9  C   UNL     1     -44.202  57.903 -53.014  1.00  0.00     0.019 A 
ENDROOT
BRANCH   5  10
HETATM   10  N   UNL     1     -42.320  56.307 -55.210  1.00  0.00    -0.321 N 
HETATM   11  C   UNL     1     -41.169  56.145 -54.469  1.00  0.00     0.245 C 
HETATM   12  O   UNL     1     -40.565  57.024 -53.868  1.00  0.00    -0.268 OA
HETATM   13  H   UNL     1     -42.552  55.573 -55.880  1.00  0.00     0.169 HD
BRANCH  11  14
HETATM   14  C   UNL     1     -40.655  54.746 -54.507  1.00  0.00     0.075 C 
HETATM   15  C   UNL     1     -40.797  53.976 -53.416  1.00  0.00     0.017 C 
BRANCH  15  16
HETATM   16  C   UNL     1     -40.366  52.575 -53.260  1.00  0.00    -0.036 A 
HETATM   17  C   UNL     1     -40.423  51.625 -54.290  1.00  0.00     0.014 A 
HETATM   18  C   UNL     1     -40.016  50.306 -54.065  1.00  0.00     0.043 A 
HETATM   19  C   UNL     1     -39.557  49.931 -52.809  1.00  0.00     0.116 A 
HETATM   20  F   UNL     1     -39.172  48.666 -52.597  1.00  0.00    -0.206 F 
HETATM   21  C   UNL     1     -39.498  50.849 -51.771  1.00  0.00     0.043 A 
HETATM   22  C   UNL     1     -39.902  52.167 -51.997  1.00  0.00     0.014 A 
ENDBRANCH  15  16
ENDBRANCH  11  14
ENDBRANCH   5  10
BRANCH   1  23
HETATM   23  C   UNL     1     -42.554  57.659 -57.836  1.00  0.00     0.302 C 
HETATM   24  O   UNL     1     -41.724  58.286 -58.486  1.00  0.00    -0.259 OA
BRANCH  23  25
HETATM   25  O   UNL     1     -43.037  56.434 -58.185  1.00  0.00    -0.322 OA
HETATM   26  C   UNL     1     -44.299  56.468 -58.857  1.00  0.00     0.213 C 
ENDBRANCH  23  25
ENDBRANCH   1  23
BRANCH   7  27
HETATM   27  C   UNL     1     -45.949  61.099 -52.034  1.00  0.00     0.294 C 
BRANCH  27  28
HETATM   28  N   UNL     1     -45.072  61.736 -50.959  1.00  0.00    -0.061 N 
HETATM   29  H   UNL     1     -44.701  60.907 -50.465  1.00  0.00     0.280 HD
HETATM   30  C   UNL     1     -43.826  62.465 -51.475  1.00  0.00     0.190 C 
HETATM   31  C   UNL     1     -43.012  62.913 -50.252  1.00  0.00     0.033 C 
HETATM   32  C   UNL     1     -43.824  63.762 -49.280  1.00  0.00     0.004 C 
HETATM   33  C   UNL     1     -45.063  63.007 -48.821  1.00  0.00     0.028 C 
HETATM   34  C   UNL     1     -45.908  62.530 -49.989  1.00  0.00     0.235 C 
BRANCH  30  35
HETATM   35  C   UNL     1     -44.196  63.592 -52.449  1.00  0.00     0.059 C 
BRANCH  35  36
HETATM   36  C   UNL     1     -43.279  63.669 -53.665  1.00  0.00     0.166 C 
BRANCH  36  37
HETATM   37  O   UNL     1     -42.675  62.396 -53.823  1.00  0.00    -0.401 OA
HETATM   38  H   UNL     1     -41.841  62.394 -53.316  1.00  0.00     0.209 HD
ENDBRANCH  36  37
ENDBRANCH  35  36
ENDBRANCH  30  35
ENDBRANCH  27  28
ENDBRANCH   7  27
TORSDOF 10
ENDMDL
MODEL 3
REMARK VINA RESULT:      -7.9      3.608      7.044
REMARK  10 active torsions:
REMARK  status: ('A' for Active; 'I' for Inactive)
REMARK    1  A    between atoms: O_2  and  C_3 
REMARK    2  A    between atoms: C_3  and  C_4 
REMARK    3  A    between atoms: C_8  and  N_9 
REMARK       I    between atoms: N_9  and  C_10 
REMARK    4  A    between atoms: C_10  and  C_11 
REMARK    5  A    between atoms: C_12  and  C_13 
REMARK    6  A    between atoms: C_22  and  C_23 
REMARK    7  A    between atoms: C_23  and  N_24 
REMARK    8  A    between atoms: C_26  and  C_27 
REMARK    9  A    between atoms: C_27  and  C_28 
REMARK   10  A    between atoms: C_28  and  O_29 
ROOT
HETATM    1  C   UNL     1     -41.537  58.765 -54.067  1.00  0.00     0.110 C 
HETATM    2  S   UNL     1     -42.109  60.144 -54.907  1.00  0.00    -0.061 SA
HETATM    3  C   UNL     1     -42.979  59.200 -56.016  1.00  0.00     0.111 A 
HETATM    4  C   UNL     1     -42.836  57.835 -55.790  1.00  0.00     0.028 A 
HETATM    5  C   UNL     1     -42.073  57.586 -54.582  1.00  0.00     0.071 C 
HETATM    6  N   UNL     1     -43.683  59.798 -57.007  1.00  0.00    -0.243 NA
HETATM    7  C   UNL     1     -44.272  58.938 -57.873  1.00  0.00     0.061 A 
HETATM    8  C   UNL     1     -44.162  57.558 -57.803  1.00  0.00     0.030 A 
HETATM    9  C   UNL     1     -43.424  56.998 -56.765  1.00  0.00     0.019 A 
ENDROOT
BRANCH   5  10
HETATM   10  N   UNL     1     -41.810  56.358 -53.955  1.00  0.00    -0.321 N 
HETATM   11  C   UNL     1     -42.612  55.744 -53.018  1.00  0.00     0.245 C 
HETATM   12  O   UNL     1     -43.643  56.198 -52.538  1.00  0.00    -0.268 OA
HETATM   13  H   UNL     1     -40.855  56.011 -54.051  1.00  0.00     0.169 HD
BRANCH  11  14
HETATM   14  C   UNL     1     -42.065  54.433 -52.564  1.00  0.00     0.075 C 
HETATM   15  C   UNL     1     -41.294  53.728 -53.407  1.00  0.00     0.017 C 
BRANCH  15  16
HETATM   16  C   UNL     1     -40.657  52.425 -53.144  1.00  0.00    -0.036 A 
HETATM   17  C   UNL     1     -40.085  52.075 -51.912  1.00  0.00     0.014 A 
HETATM   18  C   UNL     1     -39.478  50.826 -51.738  1.00  0.00     0.043 A 
HETATM   19  C   UNL     1     -39.436  49.927 -52.796  1.00  0.00     0.116 A 
HETATM   20  F   UNL     1     -38.850  48.735 -52.627  1.00  0.00    -0.206 F 
HETATM   21  C   UNL     1     -39.987  50.252 -54.026  1.00  0.00     0.043 A 
HETATM   22  C   UNL     1     -40.595  51.498 -54.199  1.00  0.00     0.014 A 
ENDBRANCH  15  16
ENDBRANCH  11  14
ENDBRANCH   5  10
BRANCH   1  23
HETATM   23  C   UNL     1     -40.638  58.877 -52.927  1.00  0.00     0.302 C 
HETATM   24  O   UNL     1     -39.446  59.150 -53.029  1.00  0.00    -0.259 OA
BRANCH  23  25
HETATM   25  O   UNL     1     -41.277  58.661 -51.743  1.00  0.00    -0.322 OA
HETATM   26  C   UNL     1     -40.614  59.218 -50.605  1.00  0.00     0.213 C 
ENDBRANCH  23  25
ENDBRANCH   1  23
BRANCH   7  27
HETATM   27  C   UNL     1     -45.153  59.547 -58.941  1.00  0.00     0.294 C 
BRANCH  27  28
HETATM   28  N   UNL     1     -44.412  60.374 -59.988  1.00  0.00    -0.061 N 
HETATM   29  H   UNL     1     -44.340  61.295 -59.525  1.00  0.00     0.280 HD
HETATM   30  C   UNL     1     -42.958  59.959 -60.244  1.00  0.00     0.190 C 
HETATM   31  C   UNL     1     -42.348  60.981 -61.215  1.00  0.00     0.033 C 
HETATM   32  C   UNL     1     -43.150  61.124 -62.504  1.00  0.00     0.004 C 
HETATM   33  C   UNL     1     -44.590  61.507 -62.196  1.00  0.00     0.028 C 
HETATM   34  C   UNL     1     -45.248  60.535 -61.232  1.00  0.00     0.235 C 
BRANCH  30  35
HETATM   35  C   UNL     1     -42.864  58.498 -60.705  1.00  0.00     0.059 C 
BRANCH  35  36
HETATM   36  C   UNL     1     -41.552  57.823 -60.318  1.00  0.00     0.166 C 
BRANCH  36  37
HETATM   37  O   UNL     1     -41.757  56.422 -60.391  1.00  0.00    -0.401 OA
HETATM   38  H   UNL     1     -42.121  56.217 -61.272  1.00  0.00     0.209 HD
ENDBRANCH  36  37
ENDBRANCH  35  36
ENDBRANCH  30  35
ENDBRANCH  27  28
ENDBRANCH   7  27
TORSDOF 10
ENDMDL
MODEL 4
REMARK VINA RESULT:      -7.8      2.440      3.608
REMARK  10 active torsions:
REMARK  status: ('A' for Active; 'I' for Inactive)
REMARK    1  A    between atoms: O_2  and  C_3 
REMARK    2  A    between atoms: C_3  and  C_4 
REMARK    3  A    between atoms: C_8  and  N_9 
REMARK       I    between atoms: N_9  and  C_10 
REMARK    4  A    between atoms: C_10  and  C_11 
REMARK    5  A    between atoms: C_12  and  C_13 
REMARK    6  A    between atoms: C_22  and  C_23 
REMARK    7  A    between atoms: C_23  and  N_24 
REMARK    8  A    between atoms: C_26  and  C_27 
REMARK    9  A    between atoms: C_27  and  C_28 
REMARK   10  A    between atoms: C_28  and  O_29 
ROOT
HETATM    1  C   UNL     1     -43.659  56.908 -58.301  1.00  0.00     0.110 C 
HETATM    2  S   UNL     1     -44.181  58.485 -58.715  1.00  0.00    -0.061 SA
HETATM    3  C   UNL     1     -44.503  58.884 -57.098  1.00  0.00     0.111 A 
HETATM    4  C   UNL     1     -44.247  57.834 -56.223  1.00  0.00     0.028 A 
HETATM    5  C   UNL     1     -43.653  56.710 -56.921  1.00  0.00     0.071 C 
HETATM    6  N   UNL     1     -44.990  60.110 -56.788  1.00  0.00    -0.243 NA
HETATM    7  C   UNL     1     -45.280  60.282 -55.475  1.00  0.00     0.061 A 
HETATM    8  C   UNL     1     -45.132  59.302 -54.506  1.00  0.00     0.030 A 
HETATM    9  C   UNL     1     -44.630  58.061 -54.881  1.00  0.00     0.019 A 
ENDROOT
BRANCH   5  10
HETATM   10  N   UNL     1     -43.151  55.516 -56.380  1.00  0.00    -0.321 N 
HETATM   11  C   UNL     1     -42.098  55.413 -55.496  1.00  0.00     0.245 C 
HETATM   12  O   UNL     1     -41.398  56.333 -55.093  1.00  0.00    -0.268 OA
HETATM   13  H   UNL     1     -43.455  54.660 -56.846  1.00  0.00     0.169 HD
BRANCH  11  14
HETATM   14  C   UNL     1     -41.826  54.004 -55.090  1.00  0.00     0.075 C 
HETATM   15  C   UNL     1     -40.808  53.761 -54.248  1.00  0.00     0.017 C 
BRANCH  15  16
HETATM   16  C   UNL     1     -40.387  52.448 -53.726  1.00  0.00    -0.036 A 
HETATM   17  C   UNL     1     -40.411  51.267 -54.482  1.00  0.00     0.014 A 
HETATM   18  C   UNL     1     -40.017  50.050 -53.915  1.00  0.00     0.043 A 
HETATM   19  C   UNL     1     -39.604  50.010 -52.589  1.00  0.00     0.116 A 
HETATM   20  F   UNL     1     -39.231  48.843 -52.049  1.00  0.00    -0.206 F 
HETATM   21  C   UNL     1     -39.578  51.162 -51.818  1.00  0.00     0.043 A 
HETATM   22  C   UNL     1     -39.970  52.377 -52.385  1.00  0.00     0.014 A 
ENDBRANCH  15  16
ENDBRANCH  11  14
ENDBRANCH   5  10
BRANCH   1  23
HETATM   23  C   UNL     1     -43.236  55.947 -59.310  1.00  0.00     0.302 C 
HETATM   24  O   UNL     1     -42.315  56.153 -60.095  1.00  0.00    -0.259 OA
BRANCH  23  25
HETATM   25  O   UNL     1     -43.964  54.797 -59.266  1.00  0.00    -0.322 OA
HETATM   26  C   UNL     1     -45.046  54.748 -60.200  1.00  0.00     0.213 C 
ENDBRANCH  23  25
ENDBRANCH   1  23
BRANCH   7  27
HETATM   27  C   UNL     1     -45.732  61.663 -55.055  1.00  0.00     0.294 C 
BRANCH  27  28
HETATM   28  N   UNL     1     -47.208  61.767 -54.682  1.00  0.00    -0.061 N 
HETATM   29  H   UNL     1     -47.519  60.785 -54.755  1.00  0.00     0.280 HD
HETATM   30  C   UNL     1     -47.492  62.153 -53.225  1.00  0.00     0.190 C 
HETATM   31  C   UNL     1     -49.011  62.073 -53.012  1.00  0.00     0.033 C 
HETATM   32  C   UNL     1     -49.793  62.927 -54.004  1.00  0.00     0.004 C 
HETATM   33  C   UNL     1     -49.455  62.527 -55.433  1.00  0.00     0.028 C 
HETATM   34  C   UNL     1     -47.962  62.579 -55.705  1.00  0.00     0.235 C 
BRANCH  30  35
HETATM   35  C   UNL     1     -46.863  63.506 -52.869  1.00  0.00     0.059 C 
BRANCH  35  36
HETATM   36  C   UNL     1     -46.082  63.487 -51.559  1.00  0.00     0.166 C 
BRANCH  36  37
HETATM   37  O   UNL     1     -45.256  62.334 -51.573  1.00  0.00    -0.401 OA
HETATM   38  H   UNL     1     -44.373  62.594 -51.250  1.00  0.00     0.209 HD
ENDBRANCH  36  37
ENDBRANCH  35  36
ENDBRANCH  30  35
ENDBRANCH  27  28
ENDBRANCH   7  27
TORSDOF 10
ENDMDL
MODEL 5
REMARK VINA RESULT:      -7.7      5.371      8.630
REMARK  10 active torsions:
REMARK  status: ('A' for Active; 'I' for Inactive)
REMARK    1  A    between atoms: O_2  and  C_3 
REMARK    2  A    between atoms: C_3  and  C_4 
REMARK    3  A    between atoms: C_8  and  N_9 
REMARK       I    between atoms: N_9  and  C_10 
REMARK    4  A    between atoms: C_10  and  C_11 
REMARK    5  A    between atoms: C_12  and  C_13 
REMARK    6  A    between atoms: C_22  and  C_23 
REMARK    7  A    between atoms: C_23  and  N_24 
REMARK    8  A    between atoms: C_26  and  C_27 
REMARK    9  A    between atoms: C_27  and  C_28 
REMARK   10  A    between atoms: C_28  and  O_29 
ROOT
HETATM    1  C   UNL     1     -43.116  58.448 -56.204  1.00  0.00     0.110 C 
HETATM    2  S   UNL     1     -41.994  58.349 -54.914  1.00  0.00    -0.061 SA
HETATM    3  C   UNL     1     -42.099  56.657 -54.853  1.00  0.00     0.111 A 
HETATM    4  C   UNL     1     -42.996  56.139 -55.783  1.00  0.00     0.028 A 
HETATM    5  C   UNL     1     -43.511  57.186 -56.644  1.00  0.00     0.071 C 
HETATM    6  N   UNL     1     -41.376  55.966 -53.939  1.00  0.00    -0.243 NA
HETATM    7  C   UNL     1     -41.604  54.630 -53.938  1.00  0.00     0.061 A 
HETATM    8  C   UNL     1     -42.513  53.991 -54.766  1.00  0.00     0.030 A 
HETATM    9  C   UNL     1     -43.230  54.749 -55.685  1.00  0.00     0.019 A 
ENDROOT
BRANCH   5  10
HETATM   10  N   UNL     1     -44.344  57.058 -57.767  1.00  0.00    -0.321 N 
HETATM   11  C   UNL     1     -44.036  56.375 -58.924  1.00  0.00     0.245 C 
HETATM   12  O   UNL     1     -42.970  55.828 -59.180  1.00  0.00    -0.268 OA
HETATM   13  H   UNL     1     -45.139  57.697 -57.800  1.00  0.00     0.169 HD
BRANCH  11  14
HETATM   14  C   UNL     1     -45.144  56.405 -59.921  1.00  0.00     0.075 C 
HETATM   15  C   UNL     1     -45.964  57.469 -59.944  1.00  0.00     0.017 C 
BRANCH  15  16
HETATM   16  C   UNL     1     -47.103  57.687 -60.854  1.00  0.00    -0.036 A 
HETATM   17  C   UNL     1     -47.676  58.945 -61.093  1.00  0.00     0.014 A 
HETATM   18  C   UNL     1     -48.771  59.076 -61.954  1.00  0.00     0.043 A 
HETATM   19  C   UNL     1     -49.299  57.950 -62.573  1.00  0.00     0.116 A 
HETATM   20  F   UNL     1     -50.350  58.079 -63.393  1.00  0.00    -0.206 F 
HETATM   21  C   UNL     1     -48.756  56.694 -62.347  1.00  0.00     0.043 A 
HETATM   22  C   UNL     1     -47.661  56.564 -61.489  1.00  0.00     0.014 A 
ENDBRANCH  15  16
ENDBRANCH  11  14
ENDBRANCH   5  10
BRANCH   1  23
HETATM   23  C   UNL     1     -43.531  59.725 -56.766  1.00  0.00     0.302 C 
HETATM   24  O   UNL     1     -44.092  60.601 -56.115  1.00  0.00    -0.259 OA
BRANCH  23  25
HETATM   25  O   UNL     1     -43.208  59.838 -58.085  1.00  0.00    -0.322 OA
HETATM   26  C   UNL     1     -41.803  59.881 -58.347  1.00  0.00     0.213 C 
ENDBRANCH  23  25
ENDBRANCH   1  23
BRANCH   7  27
HETATM   27  C   UNL     1     -40.751  53.797 -53.006  1.00  0.00     0.294 C 
BRANCH  27  28
HETATM   28  N   UNL     1     -40.611  54.357 -51.594  1.00  0.00    -0.061 N 
HETATM   29  H   UNL     1     -39.936  55.127 -51.733  1.00  0.00     0.280 HD
HETATM   30  C   UNL     1     -41.863  55.042 -51.032  1.00  0.00     0.190 C 
HETATM   31  C   UNL     1     -41.487  55.653 -49.674  1.00  0.00     0.033 C 
HETATM   32  C   UNL     1     -40.898  54.631 -48.708  1.00  0.00     0.004 C 
HETATM   33  C   UNL     1     -39.678  53.959 -49.322  1.00  0.00     0.028 C 
HETATM   34  C   UNL     1     -39.986  53.340 -50.674  1.00  0.00     0.235 C 
BRANCH  30  35
HETATM   35  C   UNL     1     -43.060  54.084 -50.996  1.00  0.00     0.059 C 
BRANCH  35  36
HETATM   36  C   UNL     1     -44.234  54.609 -50.176  1.00  0.00     0.166 C 
BRANCH  36  37
HETATM   37  O   UNL     1     -44.675  55.811 -50.785  1.00  0.00    -0.401 OA
HETATM   38  H   UNL     1     -44.210  55.904 -51.637  1.00  0.00     0.209 HD
ENDBRANCH  36  37
ENDBRANCH  35  36
ENDBRANCH  30  35
ENDBRANCH  27  28
ENDBRANCH   7  27
TORSDOF 10
ENDMDL
MODEL 6
REMARK VINA RESULT:      -7.6      3.512      7.062
REMARK  10 active torsions:
REMARK  status: ('A' for Active; 'I' for Inactive)
REMARK    1  A    between atoms: O_2  and  C_3 
REMARK    2  A    between atoms: C_3  and  C_4 
REMARK    3  A    between atoms: C_8  and  N_9 
REMARK       I    between atoms: N_9  and  C_10 
REMARK    4  A    between atoms: C_10  and  C_11 
REMARK    5  A    between atoms: C_12  and  C_13 
REMARK    6  A    between atoms: C_22  and  C_23 
REMARK    7  A    between atoms: C_23  and  N_24 
REMARK    8  A    between atoms: C_26  and  C_27 
REMARK    9  A    between atoms: C_27  and  C_28 
REMARK   10  A    between atoms: C_28  and  O_29 
ROOT
HETATM    1  C   UNL     1     -41.773  58.791 -54.745  1.00  0.00     0.110 C 
HETATM    2  S   UNL     1     -42.174  60.048 -55.835  1.00  0.00    -0.061 SA
HETATM    3  C   UNL     1     -42.742  58.957 -57.003  1.00  0.00     0.111 A 
HETATM    4  C   UNL     1     -42.618  57.630 -56.605  1.00  0.00     0.028 A 
HETATM    5  C   UNL     1     -42.146  57.541 -55.236  1.00  0.00     0.071 C 
HETATM    6  N   UNL     1     -43.217  59.418 -58.185  1.00  0.00    -0.243 NA
HETATM    7  C   UNL     1     -43.568  58.447 -59.064  1.00  0.00     0.061 A 
HETATM    8  C   UNL     1     -43.440  57.089 -58.822  1.00  0.00     0.030 A 
HETATM    9  C   UNL     1     -42.945  56.672 -57.591  1.00  0.00     0.019 A 
ENDROOT
BRANCH   5  10
HETATM   10  N   UNL     1     -42.000  56.395 -54.438  1.00  0.00    -0.321 N 
HETATM   11  C   UNL     1     -43.011  55.760 -53.749  1.00  0.00     0.245 C 
HETATM   12  O   UNL     1     -44.176  56.127 -53.672  1.00  0.00    -0.268 OA
HETATM   13  H   UNL     1     -41.040  56.152 -54.189  1.00  0.00     0.169 HD
BRANCH  11  14
HETATM   14  C   UNL     1     -42.534  54.553 -53.014  1.00  0.00     0.075 C 
HETATM   15  C   UNL     1     -41.317  54.063 -53.298  1.00  0.00     0.017 C 
BRANCH  15  16
HETATM   16  C   UNL     1     -40.669  52.892 -52.680  1.00  0.00    -0.036 A 
HETATM   17  C   UNL     1     -40.090  51.847 -53.413  1.00  0.00     0.014 A 
HETATM   18  C   UNL     1     -39.509  50.754 -52.759  1.00  0.00     0.043 A 
HETATM   19  C   UNL     1     -39.512  50.702 -51.371  1.00  0.00     0.116 A 
HETATM   20  F   UNL     1     -38.959  49.653 -50.749  1.00  0.00    -0.206 F 
HETATM   21  C   UNL     1     -40.084  51.719 -50.623  1.00  0.00     0.043 A 
HETATM   22  C   UNL     1     -40.662  52.811 -51.276  1.00  0.00     0.014 A 
ENDBRANCH  15  16
ENDBRANCH  11  14
ENDBRANCH   5  10
BRANCH   1  23
HETATM   23  C   UNL     1     -41.163  59.059 -53.450  1.00  0.00     0.302 C 
HETATM   24  O   UNL     1     -39.967  59.289 -53.301  1.00  0.00    -0.259 OA
BRANCH  23  25
HETATM   25  O   UNL     1     -42.073  59.044 -52.437  1.00  0.00    -0.322 OA
HETATM   26  C   UNL     1     -41.587  59.570 -51.199  1.00  0.00     0.213 C 
ENDBRANCH  23  25
ENDBRANCH   1  23
BRANCH   7  27
HETATM   27  C   UNL     1     -44.197  58.903 -60.362  1.00  0.00     0.294 C 
BRANCH  27  28
HETATM   28  N   UNL     1     -45.579  59.534 -60.217  1.00  0.00    -0.061 N 
HETATM   29  H   UNL     1     -45.559  60.267 -60.944  1.00  0.00     0.280 HD
HETATM   30  C   UNL     1     -46.757  58.634 -60.611  1.00  0.00     0.190 C 
HETATM   31  C   UNL     1     -48.035  59.481 -60.528  1.00  0.00     0.033 C 
HETATM   32  C   UNL     1     -48.227  60.128 -59.161  1.00  0.00     0.004 C 
HETATM   33  C   UNL     1     -47.022  60.984 -58.802  1.00  0.00     0.028 C 
HETATM   34  C   UNL     1     -45.722  60.202 -58.874  1.00  0.00     0.235 C 
BRANCH  30  35
HETATM   35  C   UNL     1     -46.783  57.345 -59.779  1.00  0.00     0.059 C 
BRANCH  35  36
HETATM   36  C   UNL     1     -47.185  56.112 -60.581  1.00  0.00     0.166 C 
BRANCH  36  37
HETATM   37  O   UNL     1     -46.771  56.323 -61.921  1.00  0.00    -0.401 OA
HETATM   38  H   UNL     1     -46.782  57.283 -62.092  1.00  0.00     0.209 HD
ENDBRANCH  36  37
ENDBRANCH  35  36
ENDBRANCH  30  35
ENDBRANCH  27  28
ENDBRANCH   7  27
TORSDOF 10
ENDMDL
MODEL 7
REMARK VINA RESULT:      -7.6      3.315      6.592
REMARK  10 active torsions:
REMARK  status: ('A' for Active; 'I' for Inactive)
REMARK    1  A    between atoms: O_2  and  C_3 
REMARK    2  A    between atoms: C_3  and  C_4 
REMARK    3  A    between atoms: C_8  and  N_9 
REMARK       I    between atoms: N_9  and  C_10 
REMARK    4  A    between atoms: C_10  and  C_11 
REMARK    5  A    between atoms: C_12  and  C_13 
REMARK    6  A    between atoms: C_22  and  C_23 
REMARK    7  A    between atoms: C_23  and  N_24 
REMARK    8  A    between atoms: C_26  and  C_27 
REMARK    9  A    between atoms: C_27  and  C_28 
REMARK   10  A    between atoms: C_28  and  O_29 
ROOT
HETATM    1  C   UNL     1     -41.525  58.960 -53.468  1.00  0.00     0.110 C 
HETATM    2  S   UNL     1     -42.234  60.401 -54.063  1.00  0.00    -0.061 SA
HETATM    3  C   UNL     1     -43.363  59.549 -54.998  1.00  0.00     0.111 A 
HETATM    4  C   UNL     1     -43.212  58.169 -54.899  1.00  0.00     0.028 A 
HETATM    5  C   UNL     1     -42.200  57.827 -53.919  1.00  0.00     0.071 C 
HETATM    6  N   UNL     1     -44.258  60.224 -55.759  1.00  0.00    -0.243 NA
HETATM    7  C   UNL     1     -45.055  59.433 -56.519  1.00  0.00     0.061 A 
HETATM    8  C   UNL     1     -44.973  58.051 -56.564  1.00  0.00     0.030 A 
HETATM    9  C   UNL     1     -44.033  57.410 -55.764  1.00  0.00     0.019 A 
ENDROOT
BRANCH   5  10
HETATM   10  N   UNL     1     -41.836  56.555 -53.450  1.00  0.00    -0.321 N 
HETATM   11  C   UNL     1     -42.529  55.812 -52.519  1.00  0.00     0.245 C 
HETATM   12  O   UNL     1     -43.530  56.165 -51.909  1.00  0.00    -0.268 OA
HETATM   13  H   UNL     1     -40.881  56.265 -53.662  1.00  0.00     0.169 HD
BRANCH  11  14
HETATM   14  C   UNL     1     -41.895  54.488 -52.253  1.00  0.00     0.075 C 
HETATM   15  C   UNL     1     -41.390  53.795 -53.287  1.00  0.00     0.017 C 
BRANCH  15  16
HETATM   16  C   UNL     1     -40.721  52.483 -53.229  1.00  0.00    -0.036 A 
HETATM   17  C   UNL     1     -40.649  51.599 -54.316  1.00  0.00     0.014 A 
HETATM   18  C   UNL     1     -40.015  50.358 -54.183  1.00  0.00     0.043 A 
HETATM   19  C   UNL     1     -39.458  49.996 -52.963  1.00  0.00     0.116 A 
HETATM   20  F   UNL     1     -38.857  48.806 -52.840  1.00  0.00    -0.206 F 
HETATM   21  C   UNL     1     -39.523  50.849 -51.872  1.00  0.00     0.043 A 
HETATM   22  C   UNL     1     -40.154  52.088 -52.005  1.00  0.00     0.014 A 
ENDBRANCH  15  16
ENDBRANCH  11  14
ENDBRANCH   5  10
BRANCH   1  23
HETATM   23  C   UNL     1     -40.386  58.980 -52.562  1.00  0.00     0.302 C 
HETATM   24  O   UNL     1     -39.249  59.286 -52.910  1.00  0.00    -0.259 OA
BRANCH  23  25
HETATM   25  O   UNL     1     -40.732  58.640 -51.289  1.00  0.00    -0.322 OA
HETATM   26  C   UNL     1     -40.445  59.643 -50.311  1.00  0.00     0.213 C 
ENDBRANCH  23  25
ENDBRANCH   1  23
BRANCH   7  27
HETATM   27  C   UNL     1     -46.140  60.127 -57.313  1.00  0.00     0.294 C 
BRANCH  27  28
HETATM   28  N   UNL     1     -45.730  60.557 -58.718  1.00  0.00    -0.061 N 
HETATM   29  H   UNL     1     -44.741  60.823 -58.582  1.00  0.00     0.280 HD
HETATM   30  C   UNL     1     -45.685  59.435 -59.762  1.00  0.00     0.190 C 
HETATM   31  C   UNL     1     -45.126  60.032 -61.062  1.00  0.00     0.033 C 
HETATM   32  C   UNL     1     -45.915  61.245 -61.542  1.00  0.00     0.004 C 
HETATM   33  C   UNL     1     -45.955  62.316 -60.463  1.00  0.00     0.028 C 
HETATM   34  C   UNL     1     -46.495  61.783 -59.147  1.00  0.00     0.235 C 
BRANCH  30  35
HETATM   35  C   UNL     1     -47.049  58.746 -59.906  1.00  0.00     0.059 C 
BRANCH  35  36
HETATM   36  C   UNL     1     -46.948  57.275 -60.298  1.00  0.00     0.166 C 
BRANCH  36  37
HETATM   37  O   UNL     1     -46.783  56.527 -59.105  1.00  0.00    -0.401 OA
HETATM   38  H   UNL     1     -47.664  56.399 -58.706  1.00  0.00     0.209 HD
ENDBRANCH  36  37
ENDBRANCH  35  36
ENDBRANCH  30  35
ENDBRANCH  27  28
ENDBRANCH   7  27
TORSDOF 10
ENDMDL
MODEL 8
REMARK VINA RESULT:      -7.6      4.547      9.857
REMARK  10 active torsions:
REMARK  status: ('A' for Active; 'I' for Inactive)
REMARK    1  A    between atoms: O_2  and  C_3 
REMARK    2  A    between atoms: C_3  and  C_4 
REMARK    3  A    between atoms: C_8  and  N_9 
REMARK       I    between atoms: N_9  and  C_10 
REMARK    4  A    between atoms: C_10  and  C_11 
REMARK    5  A    between atoms: C_12  and  C_13 
REMARK    6  A    between atoms: C_22  and  C_23 
REMARK    7  A    between atoms: C_23  and  N_24 
REMARK    8  A    between atoms: C_26  and  C_27 
REMARK    9  A    between atoms: C_27  and  C_28 
REMARK   10  A    between atoms: C_28  and  O_29 
ROOT
HETATM    1  C   UNL     1     -45.191  60.603 -52.105  1.00  0.00     0.110 C 
HETATM    2  S   UNL     1     -45.097  59.446 -53.364  1.00  0.00    -0.061 SA
HETATM    3  C   UNL     1     -43.788  58.651 -52.637  1.00  0.00     0.111 A 
HETATM    4  C   UNL     1     -43.383  59.253 -51.449  1.00  0.00     0.028 A 
HETATM    5  C   UNL     1     -44.277  60.337 -51.088  1.00  0.00     0.071 C 
HETATM    6  N   UNL     1     -43.234  57.570 -53.238  1.00  0.00    -0.243 NA
HETATM    7  C   UNL     1     -42.147  57.070 -52.600  1.00  0.00     0.061 A 
HETATM    8  C   UNL     1     -41.602  57.606 -51.445  1.00  0.00     0.030 A 
HETATM    9  C   UNL     1     -42.210  58.718 -50.872  1.00  0.00     0.019 A 
ENDROOT
BRANCH   5  10
HETATM   10  N   UNL     1     -44.277  61.111 -49.916  1.00  0.00    -0.321 N 
HETATM   11  C   UNL     1     -45.096  60.917 -48.825  1.00  0.00     0.245 C 
HETATM   12  O   UNL     1     -45.990  60.086 -48.728  1.00  0.00    -0.268 OA
HETATM   13  H   UNL     1     -43.783  62.002 -49.978  1.00  0.00     0.169 HD
BRANCH  11  14
HETATM   14  C   UNL     1     -44.832  61.894 -47.729  1.00  0.00     0.075 C 
HETATM   15  C   UNL     1     -45.021  61.504 -46.457  1.00  0.00     0.017 C 
BRANCH  15  16
HETATM   16  C   UNL     1     -44.808  62.313 -45.244  1.00  0.00    -0.036 A 
HETATM   17  C   UNL     1     -45.273  63.628 -45.095  1.00  0.00     0.014 A 
HETATM   18  C   UNL     1     -45.016  64.345 -43.922  1.00  0.00     0.043 A 
HETATM   19  C   UNL     1     -44.289  63.753 -42.897  1.00  0.00     0.116 A 
HETATM   20  F   UNL     1     -44.042  64.445 -41.777  1.00  0.00    -0.206 F 
HETATM   21  C   UNL     1     -43.812  62.457 -43.023  1.00  0.00     0.043 A 
HETATM   22  C   UNL     1     -44.070  61.740 -44.193  1.00  0.00     0.014 A 
ENDBRANCH  15  16
ENDBRANCH  11  14
ENDBRANCH   5  10
BRANCH   1  23
HETATM   23  C   UNL     1     -46.165  61.685 -52.125  1.00  0.00     0.302 C 
HETATM   24  O   UNL     1     -45.866  62.868 -51.991  1.00  0.00    -0.259 OA
BRANCH  23  25
HETATM   25  O   UNL     1     -47.435  61.234 -52.328  1.00  0.00    -0.322 OA
HETATM   26  C   UNL     1     -48.315  62.193 -52.920  1.00  0.00     0.213 C 
ENDBRANCH  23  25
ENDBRANCH   1  23
BRANCH   7  27
HETATM   27  C   UNL     1     -41.548  55.803 -53.172  1.00  0.00     0.294 C 
BRANCH  27  28
HETATM   28  N   UNL     1     -40.963  54.848 -52.136  1.00  0.00    -0.061 N 
HETATM   29  H   UNL     1     -40.151  55.381 -51.785  1.00  0.00     0.280 HD
HETATM   30  C   UNL     1     -41.833  54.611 -50.895  1.00  0.00     0.190 C 
HETATM   31  C   UNL     1     -41.024  53.742 -49.921  1.00  0.00     0.033 C 
HETATM   32  C   UNL     1     -40.541  52.441 -50.551  1.00  0.00     0.004 C 
HETATM   33  C   UNL     1     -39.709  52.727 -51.793  1.00  0.00     0.028 C 
HETATM   34  C   UNL     1     -40.454  53.591 -52.795  1.00  0.00     0.235 C 
BRANCH  30  35
HETATM   35  C   UNL     1     -43.208  54.045 -51.272  1.00  0.00     0.059 C 
BRANCH  35  36
HETATM   36  C   UNL     1     -44.314  54.435 -50.296  1.00  0.00     0.166 C 
BRANCH  36  37
HETATM   37  O   UNL     1     -44.721  55.755 -50.620  1.00  0.00    -0.401 OA
HETATM   38  H   UNL     1     -45.246  55.714 -51.441  1.00  0.00     0.209 HD
ENDBRANCH  36  37
ENDBRANCH  35  36
ENDBRANCH  30  35
ENDBRANCH  27  28
ENDBRANCH   7  27
TORSDOF 10
ENDMDL
MODEL 9
REMARK VINA RESULT:      -7.5      3.349      5.888
REMARK  10 active torsions:
REMARK  status: ('A' for Active; 'I' for Inactive)
REMARK    1  A    between atoms: O_2  and  C_3 
REMARK    2  A    between atoms: C_3  and  C_4 
REMARK    3  A    between atoms: C_8  and  N_9 
REMARK       I    between atoms: N_9  and  C_10 
REMARK    4  A    between atoms: C_10  and  C_11 
REMARK    5  A    between atoms: C_12  and  C_13 
REMARK    6  A    between atoms: C_22  and  C_23 
REMARK    7  A    between atoms: C_23  and  N_24 
REMARK    8  A    between atoms: C_26  and  C_27 
REMARK    9  A    between atoms: C_27  and  C_28 
REMARK   10  A    between atoms: C_28  and  O_29 
ROOT
HETATM    1  C   UNL     1     -44.467  58.034 -52.941  1.00  0.00     0.110 C 
HETATM    2  S   UNL     1     -45.269  59.514 -53.254  1.00  0.00    -0.061 SA
HETATM    3  C   UNL     1     -45.153  59.309 -54.933  1.00  0.00     0.111 A 
HETATM    4  C   UNL     1     -44.489  58.138 -55.289  1.00  0.00     0.028 A 
HETATM    5  C   UNL     1     -44.181  57.342 -54.117  1.00  0.00     0.071 C 
HETATM    6  N   UNL     1     -45.651  60.254 -55.767  1.00  0.00    -0.243 NA
HETATM    7  C   UNL     1     -45.429  60.014 -57.082  1.00  0.00     0.061 A 
HETATM    8  C   UNL     1     -44.731  58.922 -57.572  1.00  0.00     0.030 A 
HETATM    9  C   UNL     1     -44.240  57.983 -56.671  1.00  0.00     0.019 A 
ENDROOT
BRANCH   5  10
HETATM   10  N   UNL     1     -43.623  56.054 -54.061  1.00  0.00    -0.321 N 
HETATM   11  C   UNL     1     -42.316  55.731 -54.356  1.00  0.00     0.245 C 
HETATM   12  O   UNL     1     -41.455  56.497 -54.772  1.00  0.00    -0.268 OA
HETATM   13  H   UNL     1     -44.293  55.287 -54.004  1.00  0.00     0.169 HD
BRANCH  11  14
HETATM   14  C   UNL     1     -42.029  54.278 -54.175  1.00  0.00     0.075 C 
HETATM   15  C   UNL     1     -40.887  53.916 -53.569  1.00  0.00     0.017 C 
BRANCH  15  16
HETATM   16  C   UNL     1     -40.431  52.543 -53.290  1.00  0.00    -0.036 A 
HETATM   17  C   UNL     1     -39.906  52.133 -52.056  1.00  0.00     0.014 A 
HETATM   18  C   UNL     1     -39.472  50.816 -51.868  1.00  0.00     0.043 A 
HETATM   19  C   UNL     1     -39.556  49.907 -52.915  1.00  0.00     0.116 A 
HETATM   20  F   UNL     1     -39.136  48.649 -52.733  1.00  0.00    -0.206 F 
HETATM   21  C   UNL     1     -40.064  50.289 -54.148  1.00  0.00     0.043 A 
HETATM   22  C   UNL     1     -40.499  51.604 -54.335  1.00  0.00     0.014 A 
ENDBRANCH  15  16
ENDBRANCH  11  14
ENDBRANCH   5  10
BRANCH   1  23
HETATM   23  C   UNL     1     -44.189  57.580 -51.586  1.00  0.00     0.302 C 
HETATM   24  O   UNL     1     -45.064  57.330 -50.763  1.00  0.00    -0.259 OA
BRANCH  23  25
HETATM   25  O   UNL     1     -42.853  57.450 -51.349  1.00  0.00    -0.322 OA
HETATM   26  C   UNL     1     -42.490  56.247 -50.667  1.00  0.00     0.213 C 
ENDBRANCH  23  25
ENDBRANCH   1  23
BRANCH   7  27
HETATM   27  C   UNL     1     -46.050  60.984 -58.063  1.00  0.00     0.294 C 
BRANCH  27  28
HETATM   28  N   UNL     1     -47.497  60.678 -58.438  1.00  0.00    -0.061 N 
HETATM   29  H   UNL     1     -47.526  59.648 -58.363  1.00  0.00     0.280 HD
HETATM   30  C   UNL     1     -48.552  61.166 -57.438  1.00  0.00     0.190 C 
HETATM   31  C   UNL     1     -49.918  60.649 -57.915  1.00  0.00     0.033 C 
HETATM   32  C   UNL     1     -50.237  61.061 -59.348  1.00  0.00     0.004 C 
HETATM   33  C   UNL     1     -49.148  60.581 -60.296  1.00  0.00     0.028 C 
HETATM   34  C   UNL     1     -47.770  61.055 -59.872  1.00  0.00     0.235 C 
BRANCH  30  35
HETATM   35  C   UNL     1     -48.474  62.685 -57.234  1.00  0.00     0.059 C 
BRANCH  35  36
HETATM   36  C   UNL     1     -48.283  63.093 -55.777  1.00  0.00     0.166 C 
BRANCH  36  37
HETATM   37  O   UNL     1     -47.978  61.919 -55.043  1.00  0.00    -0.401 OA
HETATM   38  H   UNL     1     -48.528  61.194 -55.393  1.00  0.00     0.209 HD
ENDBRANCH  36  37
ENDBRANCH  35  36
ENDBRANCH  30  35
ENDBRANCH  27  28
ENDBRANCH   7  27
TORSDOF 10
ENDMDL
MODEL 10
REMARK VINA RESULT:      -7.5      4.827      9.912
REMARK  10 active torsions:
REMARK  status: ('A' for Active; 'I' for Inactive)
REMARK    1  A    between atoms: O_2  and  C_3 
REMARK    2  A    between atoms: C_3  and  C_4 
REMARK    3  A    between atoms: C_8  and  N_9 
REMARK       I    between atoms: N_9  and  C_10 
REMARK    4  A    between atoms: C_10  and  C_11 
REMARK    5  A    between atoms: C_12  and  C_13 
REMARK    6  A    between atoms: C_22  and  C_23 
REMARK    7  A    between atoms: C_23  and  N_24 
REMARK    8  A    between atoms: C_26  and  C_27 
REMARK    9  A    between atoms: C_27  and  C_28 
REMARK   10  A    between atoms: C_28  and  O_29 
ROOT
HETATM    1  C   UNL     1     -42.042  57.799 -51.821  1.00  0.00     0.110 C 
HETATM    2  S   UNL     1     -41.746  56.793 -53.174  1.00  0.00    -0.061 SA
HETATM    3  C   UNL     1     -42.945  57.557 -54.100  1.00  0.00     0.111 A 
HETATM    4  C   UNL     1     -43.603  58.565 -53.402  1.00  0.00     0.028 A 
HETATM    5  C   UNL     1     -42.999  58.773 -52.100  1.00  0.00     0.071 C 
HETATM    6  N   UNL     1     -43.191  57.141 -55.366  1.00  0.00    -0.243 NA
HETATM    7  C   UNL     1     -44.221  57.777 -55.974  1.00  0.00     0.061 A 
HETATM    8  C   UNL     1     -45.000  58.754 -55.376  1.00  0.00     0.030 A 
HETATM    9  C   UNL     1     -44.704  59.142 -54.073  1.00  0.00     0.019 A 
ENDROOT
BRANCH   5  10
HETATM   10  N   UNL     1     -43.297  59.763 -51.150  1.00  0.00    -0.321 N 
HETATM   11  C   UNL     1     -43.245  61.124 -51.363  1.00  0.00     0.245 C 
HETATM   12  O   UNL     1     -42.873  61.684 -52.387  1.00  0.00    -0.268 OA
HETATM   13  H   UNL     1     -43.346  59.443 -50.182  1.00  0.00     0.169 HD
BRANCH  11  14
HETATM   14  C   UNL     1     -43.646  61.909 -50.160  1.00  0.00     0.075 C 
HETATM   15  C   UNL     1     -44.179  61.259 -49.112  1.00  0.00     0.017 C 
BRANCH  15  16
HETATM   16  C   UNL     1     -44.626  61.851 -47.839  1.00  0.00    -0.036 A 
HETATM   17  C   UNL     1     -44.888  61.101 -46.683  1.00  0.00     0.014 A 
HETATM   18  C   UNL     1     -45.331  61.728 -45.513  1.00  0.00     0.043 A 
HETATM   19  C   UNL     1     -45.519  63.104 -45.497  1.00  0.00     0.116 A 
HETATM   20  F   UNL     1     -45.946  63.700 -44.377  1.00  0.00    -0.206 F 
HETATM   21  C   UNL     1     -45.274  63.867 -46.629  1.00  0.00     0.043 A 
HETATM   22  C   UNL     1     -44.830  63.241 -47.797  1.00  0.00     0.014 A 
ENDBRANCH  15  16
ENDBRANCH  11  14
ENDBRANCH   5  10
BRANCH   1  23
HETATM   23  C   UNL     1     -41.312  57.642 -50.571  1.00  0.00     0.302 C 
HETATM   24  O   UNL     1     -41.195  56.569 -49.987  1.00  0.00    -0.259 OA
BRANCH  23  25
HETATM   25  O   UNL     1     -40.765  58.813 -50.141  1.00  0.00    -0.322 OA
HETATM   26  C   UNL     1     -39.586  59.207 -50.847  1.00  0.00     0.213 C 
ENDBRANCH  23  25
ENDBRANCH   1  23
BRANCH   7  27
HETATM   27  C   UNL     1     -44.477  57.423 -57.423  1.00  0.00     0.294 C 
BRANCH  27  28
HETATM   28  N   UNL     1     -43.350  57.795 -58.381  1.00  0.00    -0.061 N 
HETATM   29  H   UNL     1     -42.516  57.715 -57.775  1.00  0.00     0.280 HD
HETATM   30  C   UNL     1     -43.096  56.796 -59.516  1.00  0.00     0.190 C 
HETATM   31  C   UNL     1     -41.851  57.269 -60.282  1.00  0.00     0.033 C 
HETATM   32  C   UNL     1     -41.977  58.703 -60.784  1.00  0.00     0.004 C 
HETATM   33  C   UNL     1     -42.257  59.651 -59.627  1.00  0.00     0.028 C 
HETATM   34  C   UNL     1     -43.476  59.230 -58.824  1.00  0.00     0.235 C 
BRANCH  30  35
HETATM   35  C   UNL     1     -44.347  56.598 -60.382  1.00  0.00     0.059 C 
BRANCH  35  36
HETATM   36  C   UNL     1     -44.716  55.133 -60.591  1.00  0.00     0.166 C 
BRANCH  36  37
HETATM   37  O   UNL     1     -44.924  54.941 -61.980  1.00  0.00    -0.401 OA
HETATM   38  H   UNL     1     -45.871  55.086 -62.165  1.00  0.00     0.209 HD
ENDBRANCH  36  37
ENDBRANCH  35  36
ENDBRANCH  30  35
ENDBRANCH  27  28
ENDBRANCH   7  27
TORSDOF 10
ENDMDL
