MODEL 1
REMARK VINA RESULT:      -8.2      0.000      0.000
REMARK  9 active torsions:
REMARK  status: ('A' for Active; 'I' for Inactive)
REMARK    1  A    between atoms: O_2  and  C_3 
REMARK    2  A    between atoms: C_6  and  N_7 
REMARK    3  A    between atoms: N_10  and  C_11 
REMARK    4  A    between atoms: C_11  and  C_12 
REMARK    5  A    between atoms: C_14  and  O_15 
REMARK    6  A    between atoms: C_17  and  O_18 
REMARK    7  A    between atoms: C_22  and  C_23 
REMARK    8  A    between atoms: C_23  and  C_24 
REMARK       I    between atoms: C_24  and  N_25 
REMARK    9  A    between atoms: N_25  and  C_26 
ROOT
HETATM    1  N   UNL     1     -44.655  57.373 -57.946  1.00  0.00    -0.232 N 
HETATM    2  C   UNL     1     -44.681  57.889 -56.669  1.00  0.00     0.333 C 
HETATM    3  O   UNL     1     -45.441  58.722 -56.195  1.00  0.00    -0.246 OA
HETATM    4  N   UNL     1     -43.576  57.410 -55.950  1.00  0.00    -0.315 N 
HETATM    5  C   UNL     1     -42.758  56.539 -56.772  1.00  0.00     0.191 C 
HETATM    6  C   UNL     1     -43.488  56.667 -58.107  1.00  0.00     0.256 C 
HETATM    7  O   UNL     1     -43.022  56.148 -59.120  1.00  0.00    -0.270 OA
ENDROOT
BRANCH   4   8
HETATM    8  C   UNL     1     -42.993  58.348 -55.004  1.00  0.00     0.167 C 
BRANCH   8   9
HETATM    9  C   UNL     1     -42.768  57.852 -53.603  1.00  0.00    -0.037 A 
HETATM   10  C   UNL     1     -41.708  58.359 -52.834  1.00  0.00     0.048 A 
HETATM   11  C   UNL     1     -41.371  57.773 -51.606  1.00  0.00     0.102 A 
HETATM   12  C   UNL     1     -42.120  56.680 -51.137  1.00  0.00     0.101 A 
HETATM   13  C   UNL     1     -43.217  56.217 -51.869  1.00  0.00     0.040 A 
HETATM   14  C   UNL     1     -43.533  56.794 -53.098  1.00  0.00     0.012 A 
BRANCH  11  15
HETATM   15  O   UNL     1     -40.323  58.172 -50.817  1.00  0.00    -0.353 OA
HETATM   16  C   UNL     1     -40.346  59.504 -50.327  1.00  0.00     0.210 C 
ENDBRANCH  11  15
BRANCH  12  17
HETATM   17  O   UNL     1     -41.744  56.119 -49.941  1.00  0.00    -0.353 OA
HETATM   18  C   UNL     1     -42.249  54.804 -49.725  1.00  0.00     0.210 C 
ENDBRANCH  12  17
ENDBRANCH   8   9
ENDBRANCH   4   8
BRANCH   5  19
HETATM   19  C   UNL     1     -42.822  55.074 -56.344  1.00  0.00     0.138 C 
BRANCH  19  20
HETATM   20  C   UNL     1     -41.702  54.662 -55.397  1.00  0.00     0.224 C 
HETATM   21  N   UNL     1     -41.868  53.430 -54.794  1.00  0.00    -0.327 N 
HETATM   22  H   UNL     1     -42.671  52.863 -55.061  1.00  0.00     0.169 HD
HETATM   23  O   UNL     1     -40.769  55.437 -55.196  1.00  0.00    -0.273 OA
BRANCH  21  24
HETATM   24  C   UNL     1     -41.021  52.822 -53.841  1.00  0.00     0.034 A 
HETATM   25  C   UNL     1     -40.793  53.326 -52.560  1.00  0.00     0.029 A 
HETATM   26  C   UNL     1     -39.948  52.649 -51.673  1.00  0.00     0.002 A 
HETATM   27  C   UNL     1     -39.313  51.472 -52.065  1.00  0.00     0.000 A 
HETATM   28  C   UNL     1     -39.532  50.962 -53.341  1.00  0.00     0.002 A 
HETATM   29  C   UNL     1     -40.393  51.627 -54.219  1.00  0.00     0.029 A 
ENDBRANCH  21  24
ENDBRANCH  19  20
ENDBRANCH   5  19
BRANCH   1  30
HETATM   30  C   UNL     1     -45.593  57.688 -58.984  1.00  0.00     0.047 A 
HETATM   31  C   UNL     1     -45.712  58.989 -59.504  1.00  0.00     0.033 A 
HETATM   32  C   UNL     1     -46.580  59.295 -60.565  1.00  0.00     0.039 A 
HETATM   33  C   UNL     1     -47.370  58.305 -61.132  1.00  0.00     0.068 A 
HETATM   34  C   UNL     1     -47.312  57.021 -60.598  1.00  0.00     0.039 A 
HETATM   35  C   UNL     1     -46.439  56.718 -59.542  1.00  0.00     0.033 A 
BRANCH  33  36
HETATM   36  O   UNL     1     -48.231  58.467 -62.179  1.00  0.00    -0.356 OA
HETATM   37  C   UNL     1     -48.842  57.285 -62.684  1.00  0.00     0.210 C 
ENDBRANCH  33  36
ENDBRANCH   1  30
TORSDOF 9
ENDMDL
MODEL 2
REMARK VINA RESULT:      -7.9      3.508      7.271
REMARK  9 active torsions:
REMARK  status: ('A' for Active; 'I' for Inactive)
REMARK    1  A    between atoms: O_2  and  C_3 
REMARK    2  A    between atoms: C_6  and  N_7 
REMARK    3  A    between atoms: N_10  and  C_11 
REMARK    4  A    between atoms: C_11  and  C_12 
REMARK    5  A    between atoms: C_14  and  O_15 
REMARK    6  A    between atoms: C_17  and  O_18 
REMARK    7  A    between atoms: C_22  and  C_23 
REMARK    8  A    between atoms: C_23  and  C_24 
REMARK       I    between atoms: C_24  and  N_25 
REMARK    9  A    between atoms: N_25  and  C_26 
ROOT
HETATM    1  N   UNL     1     -43.779  59.248 -51.098  1.00  0.00    -0.232 N 
HETATM    2  C   UNL     1     -42.475  59.290 -51.541  1.00  0.00     0.333 C 
HETATM    3  O   UNL     1     -41.741  60.260 -51.666  1.00  0.00    -0.246 OA
HETATM    4  N   UNL     1     -42.092  58.017 -51.985  1.00  0.00    -0.315 N 
HETATM    5  C   UNL     1     -43.181  57.068 -51.848  1.00  0.00     0.191 C 
HETATM    6  C   UNL     1     -44.288  57.999 -51.361  1.00  0.00     0.256 C 
HETATM    7  O   UNL     1     -45.437  57.581 -51.231  1.00  0.00    -0.270 OA
ENDROOT
BRANCH   4   8
HETATM    8  C   UNL     1     -41.193  57.998 -53.128  1.00  0.00     0.167 C 
BRANCH   8   9
HETATM    9  C   UNL     1     -41.797  57.677 -54.466  1.00  0.00    -0.037 A 
HETATM   10  C   UNL     1     -42.524  58.651 -55.168  1.00  0.00     0.048 A 
HETATM   11  C   UNL     1     -43.250  58.312 -56.317  1.00  0.00     0.102 A 
HETATM   12  C   UNL     1     -43.229  56.985 -56.778  1.00  0.00     0.101 A 
HETATM   13  C   UNL     1     -42.451  56.028 -56.120  1.00  0.00     0.040 A 
HETATM   14  C   UNL     1     -41.748  56.370 -54.966  1.00  0.00     0.012 A 
BRANCH  11  15
HETATM   15  O   UNL     1     -44.026  59.188 -57.033  1.00  0.00    -0.353 OA
HETATM   16  C   UNL     1     -43.357  60.219 -57.745  1.00  0.00     0.210 C 
ENDBRANCH  11  15
BRANCH  12  17
HETATM   17  O   UNL     1     -43.972  56.687 -57.895  1.00  0.00    -0.353 OA
HETATM   18  C   UNL     1     -43.356  55.754 -58.778  1.00  0.00     0.210 C 
ENDBRANCH  12  17
ENDBRANCH   8   9
ENDBRANCH   4   8
BRANCH   5  19
HETATM   19  C   UNL     1     -42.936  56.024 -50.759  1.00  0.00     0.138 C 
BRANCH  19  20
HETATM   20  C   UNL     1     -42.600  54.640 -51.300  1.00  0.00     0.224 C 
HETATM   21  N   UNL     1     -41.330  54.510 -51.827  1.00  0.00    -0.327 N 
HETATM   22  H   UNL     1     -40.694  55.304 -51.764  1.00  0.00     0.169 HD
HETATM   23  O   UNL     1     -43.460  53.762 -51.279  1.00  0.00    -0.273 OA
BRANCH  21  24
HETATM   24  C   UNL     1     -40.768  53.366 -52.438  1.00  0.00     0.034 A 
HETATM   25  C   UNL     1     -40.941  53.031 -53.781  1.00  0.00     0.029 A 
HETATM   26  C   UNL     1     -40.336  51.885 -54.309  1.00  0.00     0.002 A 
HETATM   27  C   UNL     1     -39.567  51.057 -53.493  1.00  0.00     0.000 A 
HETATM   28  C   UNL     1     -39.389  51.381 -52.152  1.00  0.00     0.002 A 
HETATM   29  C   UNL     1     -39.976  52.538 -51.631  1.00  0.00     0.029 A 
ENDBRANCH  21  24
ENDBRANCH  19  20
ENDBRANCH   5  19
BRANCH   1  30
HETATM   30  C   UNL     1     -44.529  60.375 -50.626  1.00  0.00     0.047 A 
HETATM   31  C   UNL     1     -45.583  60.927 -51.373  1.00  0.00     0.033 A 
HETATM   32  C   UNL     1     -46.367  61.990 -50.893  1.00  0.00     0.039 A 
HETATM   33  C   UNL     1     -46.109  62.542 -49.646  1.00  0.00     0.068 A 
HETATM   34  C   UNL     1     -45.035  62.050 -48.910  1.00  0.00     0.039 A 
HETATM   35  C   UNL     1     -44.258  60.985 -49.392  1.00  0.00     0.033 A 
BRANCH  33  36
HETATM   36  O   UNL     1     -46.809  63.555 -49.057  1.00  0.00    -0.356 OA
HETATM   37  C   UNL     1     -47.766  63.174 -48.075  1.00  0.00     0.210 C 
ENDBRANCH  33  36
ENDBRANCH   1  30
TORSDOF 9
ENDMDL
MODEL 3
REMARK VINA RESULT:      -7.9      3.646      7.320
REMARK  9 active torsions:
REMARK  status: ('A' for Active; 'I' for Inactive)
REMARK    1  A    between atoms: O_2  and  C_3 
REMARK    2  A    between atoms: C_6  and  N_7 
REMARK    3  A    between atoms: N_10  and  C_11 
REMARK    4  A    between atoms: C_11  and  C_12 
REMARK    5  A    between atoms: C_14  and  O_15 
REMARK    6  A    between atoms: C_17  and  O_18 
REMARK    7  A    between atoms: C_22  and  C_23 
REMARK    8  A    between atoms: C_23  and  C_24 
REMARK       I    between atoms: C_24  and  N_25 
REMARK    9  A    between atoms: N_25  and  C_26 
ROOT
HETATM    1  N   UNL     1     -44.012  59.384 -50.968  1.00  0.00    -0.232 N 
HETATM    2  C   UNL     1     -42.725  59.603 -51.407  1.00  0.00     0.333 C 
HETATM    3  O   UNL     1     -42.132  60.665 -51.538  1.00  0.00    -0.246 OA
HETATM    4  N   UNL     1     -42.166  58.391 -51.838  1.00  0.00    -0.315 N 
HETATM    5  C   UNL     1     -43.113  57.302 -51.697  1.00  0.00     0.191 C 
HETATM    6  C   UNL     1     -44.342  58.074 -51.222  1.00  0.00     0.256 C 
HETATM    7  O   UNL     1     -45.422  57.501 -51.093  1.00  0.00    -0.270 OA
ENDROOT
BRANCH   4   8
HETATM    8  C   UNL     1     -41.267  58.489 -52.977  1.00  0.00     0.167 C 
BRANCH   8   9
HETATM    9  C   UNL     1     -41.821  58.099 -54.319  1.00  0.00    -0.037 A 
HETATM   10  C   UNL     1     -41.917  56.745 -54.679  1.00  0.00     0.048 A 
HETATM   11  C   UNL     1     -42.249  56.377 -55.990  1.00  0.00     0.102 A 
HETATM   12  C   UNL     1     -42.507  57.377 -56.942  1.00  0.00     0.101 A 
HETATM   13  C   UNL     1     -42.478  58.724 -56.568  1.00  0.00     0.040 A 
HETATM   14  C   UNL     1     -42.128  59.082 -55.267  1.00  0.00     0.012 A 
BRANCH  11  15
HETATM   15  O   UNL     1     -42.316  55.082 -56.439  1.00  0.00    -0.353 OA
HETATM   16  C   UNL     1     -43.288  54.235 -55.844  1.00  0.00     0.210 C 
ENDBRANCH  11  15
BRANCH  12  17
HETATM   17  O   UNL     1     -42.806  56.976 -58.222  1.00  0.00    -0.353 OA
HETATM   18  C   UNL     1     -44.189  57.054 -58.553  1.00  0.00     0.210 C 
ENDBRANCH  12  17
ENDBRANCH   8   9
ENDBRANCH   4   8
BRANCH   5  19
HETATM   19  C   UNL     1     -42.732  56.311 -50.598  1.00  0.00     0.138 C 
BRANCH  19  20
HETATM   20  C   UNL     1     -42.402  54.917 -51.115  1.00  0.00     0.224 C 
HETATM   21  N   UNL     1     -41.107  54.752 -51.567  1.00  0.00    -0.327 N 
HETATM   22  H   UNL     1     -40.455  55.529 -51.470  1.00  0.00     0.169 HD
HETATM   23  O   UNL     1     -43.284  54.062 -51.141  1.00  0.00    -0.273 OA
BRANCH  21  24
HETATM   24  C   UNL     1     -40.542  53.592 -52.143  1.00  0.00     0.034 A 
HETATM   25  C   UNL     1     -39.904  52.587 -51.414  1.00  0.00     0.029 A 
HETATM   26  C   UNL     1     -39.384  51.462 -52.064  1.00  0.00     0.002 A 
HETATM   27  C   UNL     1     -39.483  51.341 -53.449  1.00  0.00     0.000 A 
HETATM   28  C   UNL     1     -40.116  52.338 -54.185  1.00  0.00     0.002 A 
HETATM   29  C   UNL     1     -40.654  53.451 -53.533  1.00  0.00     0.029 A 
ENDBRANCH  21  24
ENDBRANCH  19  20
ENDBRANCH   5  19
BRANCH   1  30
HETATM   30  C   UNL     1     -44.914  60.400 -50.510  1.00  0.00     0.047 A 
HETATM   31  C   UNL     1     -44.963  60.791 -49.160  1.00  0.00     0.033 A 
HETATM   32  C   UNL     1     -45.795  61.830 -48.711  1.00  0.00     0.039 A 
HETATM   33  C   UNL     1     -46.617  62.505 -49.603  1.00  0.00     0.068 A 
HETATM   34  C   UNL     1     -46.627  62.100 -50.934  1.00  0.00     0.039 A 
HETATM   35  C   UNL     1     -45.790  61.065 -51.380  1.00  0.00     0.033 A 
BRANCH  33  36
HETATM   36  O   UNL     1     -47.448  63.544 -49.299  1.00  0.00    -0.356 OA
HETATM   37  C   UNL     1     -47.757  63.723 -47.920  1.00  0.00     0.210 C 
ENDBRANCH  33  36
ENDBRANCH   1  30
TORSDOF 9
ENDMDL
MODEL 4
REMARK VINA RESULT:      -7.7      3.239      8.857
REMARK  9 active torsions:
REMARK  status: ('A' for Active; 'I' for Inactive)
REMARK    1  A    between atoms: O_2  and  C_3 
REMARK    2  A    between atoms: C_6  and  N_7 
REMARK    3  A    between atoms: N_10  and  C_11 
REMARK    4  A    between atoms: C_11  and  C_12 
REMARK    5  A    between atoms: C_14  and  O_15 
REMARK    6  A    between atoms: C_17  and  O_18 
REMARK    7  A    between atoms: C_22  and  C_23 
REMARK    8  A    between atoms: C_23  and  C_24 
REMARK       I    between atoms: C_24  and  N_25 
REMARK    9  A    between atoms: N_25  and  C_26 
ROOT
HETATM    1  N   UNL     1     -42.405  55.439 -53.129  1.00  0.00    -0.232 N 
HETATM    2  C   UNL     1     -43.559  55.580 -53.869  1.00  0.00     0.333 C 
HETATM    3  O   UNL     1     -44.037  54.813 -54.693  1.00  0.00    -0.246 OA
HETATM    4  N   UNL     1     -44.101  56.854 -53.649  1.00  0.00    -0.315 N 
HETATM    5  C   UNL     1     -43.281  57.617 -52.729  1.00  0.00     0.191 C 
HETATM    6  C   UNL     1     -42.123  56.642 -52.528  1.00  0.00     0.256 C 
HETATM    7  O   UNL     1     -41.134  56.979 -51.880  1.00  0.00    -0.270 OA
ENDROOT
BRANCH   4   8
HETATM    8  C   UNL     1     -44.741  57.467 -54.802  1.00  0.00     0.167 C 
BRANCH   8   9
HETATM    9  C   UNL     1     -43.896  58.378 -55.648  1.00  0.00    -0.037 A 
HETATM   10  C   UNL     1     -43.270  57.890 -56.806  1.00  0.00     0.048 A 
HETATM   11  C   UNL     1     -42.331  58.670 -57.494  1.00  0.00     0.102 A 
HETATM   12  C   UNL     1     -42.032  59.961 -57.024  1.00  0.00     0.101 A 
HETATM   13  C   UNL     1     -42.703  60.473 -55.910  1.00  0.00     0.040 A 
HETATM   14  C   UNL     1     -43.622  59.683 -55.221  1.00  0.00     0.012 A 
BRANCH  11  15
HETATM   15  O   UNL     1     -41.637  58.254 -58.602  1.00  0.00    -0.353 OA
HETATM   16  C   UNL     1     -42.332  57.445 -59.539  1.00  0.00     0.210 C 
ENDBRANCH  11  15
BRANCH  12  17
HETATM   17  O   UNL     1     -41.089  60.685 -57.712  1.00  0.00    -0.353 OA
HETATM   18  C   UNL     1     -41.606  61.829 -58.388  1.00  0.00     0.210 C 
ENDBRANCH  12  17
ENDBRANCH   8   9
ENDBRANCH   4   8
BRANCH   5  19
HETATM   19  C   UNL     1     -43.945  57.837 -51.371  1.00  0.00     0.138 C 
BRANCH  19  20
HETATM   20  C   UNL     1     -44.354  59.282 -51.114  1.00  0.00     0.224 C 
HETATM   21  N   UNL     1     -43.512  59.990 -50.279  1.00  0.00    -0.327 N 
HETATM   22  H   UNL     1     -42.661  59.536 -49.949  1.00  0.00     0.169 HD
HETATM   23  O   UNL     1     -45.394  59.709 -51.610  1.00  0.00    -0.273 OA
BRANCH  21  24
HETATM   24  C   UNL     1     -43.668  61.320 -49.830  1.00  0.00     0.034 A 
HETATM   25  C   UNL     1     -44.535  61.705 -48.806  1.00  0.00     0.029 A 
HETATM   26  C   UNL     1     -44.617  63.046 -48.415  1.00  0.00     0.002 A 
HETATM   27  C   UNL     1     -43.846  64.015 -49.055  1.00  0.00     0.000 A 
HETATM   28  C   UNL     1     -42.980  63.642 -50.077  1.00  0.00     0.002 A 
HETATM   29  C   UNL     1     -42.882  62.299 -50.454  1.00  0.00     0.029 A 
ENDBRANCH  21  24
ENDBRANCH  19  20
ENDBRANCH   5  19
BRANCH   1  30
HETATM   30  C   UNL     1     -41.547  54.290 -53.146  1.00  0.00     0.047 A 
HETATM   31  C   UNL     1     -41.164  53.636 -51.962  1.00  0.00     0.033 A 
HETATM   32  C   UNL     1     -40.377  52.472 -51.971  1.00  0.00     0.039 A 
HETATM   33  C   UNL     1     -39.938  51.932 -53.171  1.00  0.00     0.068 A 
HETATM   34  C   UNL     1     -40.257  52.592 -54.354  1.00  0.00     0.039 A 
HETATM   35  C   UNL     1     -41.048  53.752 -54.341  1.00  0.00     0.033 A 
BRANCH  33  36
HETATM   36  O   UNL     1     -39.193  50.797 -53.315  1.00  0.00    -0.356 OA
HETATM   37  C   UNL     1     -39.591  49.908 -54.354  1.00  0.00     0.210 C 
ENDBRANCH  33  36
ENDBRANCH   1  30
TORSDOF 9
ENDMDL
MODEL 5
REMARK VINA RESULT:      -7.7      2.411      9.105
REMARK  9 active torsions:
REMARK  status: ('A' for Active; 'I' for Inactive)
REMARK    1  A    between atoms: O_2  and  C_3 
REMARK    2  A    between atoms: C_6  and  N_7 
REMARK    3  A    between atoms: N_10  and  C_11 
REMARK    4  A    between atoms: C_11  and  C_12 
REMARK    5  A    between atoms: C_14  and  O_15 
REMARK    6  A    between atoms: C_17  and  O_18 
REMARK    7  A    between atoms: C_22  and  C_23 
REMARK    8  A    between atoms: C_23  and  C_24 
REMARK       I    between atoms: C_24  and  N_25 
REMARK    9  A    between atoms: N_25  and  C_26 
ROOT
HETATM    1  N   UNL     1     -41.959  54.975 -55.012  1.00  0.00    -0.232 N 
HETATM    2  C   UNL     1     -41.729  56.331 -55.084  1.00  0.00     0.333 C 
HETATM    3  O   UNL     1     -41.070  57.037 -54.332  1.00  0.00    -0.246 OA
HETATM    4  N   UNL     1     -42.494  56.880 -56.123  1.00  0.00    -0.315 N 
HETATM    5  C   UNL     1     -43.285  55.858 -56.782  1.00  0.00     0.191 C 
HETATM    6  C   UNL     1     -42.952  54.654 -55.905  1.00  0.00     0.256 C 
HETATM    7  O   UNL     1     -43.533  53.583 -56.076  1.00  0.00    -0.270 OA
ENDROOT
BRANCH   4   8
HETATM    8  C   UNL     1     -43.010  58.217 -55.879  1.00  0.00     0.167 C 
BRANCH   8   9
HETATM    9  C   UNL     1     -42.955  59.189 -57.024  1.00  0.00    -0.037 A 
HETATM   10  C   UNL     1     -44.028  60.063 -57.264  1.00  0.00     0.048 A 
HETATM   11  C   UNL     1     -44.075  60.834 -58.432  1.00  0.00     0.102 A 
HETATM   12  C   UNL     1     -43.023  60.743 -59.360  1.00  0.00     0.101 A 
HETATM   13  C   UNL     1     -41.922  59.925 -59.091  1.00  0.00     0.040 A 
HETATM   14  C   UNL     1     -41.893  59.146 -57.935  1.00  0.00     0.012 A 
BRANCH  11  15
HETATM   15  O   UNL     1     -45.107  61.673 -58.768  1.00  0.00    -0.353 OA
HETATM   16  C   UNL     1     -45.897  62.192 -57.708  1.00  0.00     0.210 C 
ENDBRANCH  11  15
BRANCH  12  17
HETATM   17  O   UNL     1     -43.117  61.498 -60.504  1.00  0.00    -0.353 OA
HETATM   18  C   UNL     1     -41.994  61.386 -61.374  1.00  0.00     0.210 C 
ENDBRANCH  12  17
ENDBRANCH   8   9
ENDBRANCH   4   8
BRANCH   5  19
HETATM   19  C   UNL     1     -42.808  55.549 -58.200  1.00  0.00     0.138 C 
BRANCH  19  20
HETATM   20  C   UNL     1     -43.663  56.186 -59.288  1.00  0.00     0.224 C 
HETATM   21  N   UNL     1     -44.960  56.482 -58.915  1.00  0.00    -0.327 N 
HETATM   22  H   UNL     1     -45.237  56.321 -57.948  1.00  0.00     0.169 HD
HETATM   23  O   UNL     1     -43.184  56.356 -60.407  1.00  0.00    -0.273 OA
BRANCH  21  24
HETATM   24  C   UNL     1     -45.982  57.027 -59.726  1.00  0.00     0.034 A 
HETATM   25  C   UNL     1     -46.364  58.368 -59.709  1.00  0.00     0.029 A 
HETATM   26  C   UNL     1     -47.378  58.826 -60.557  1.00  0.00     0.002 A 
HETATM   27  C   UNL     1     -48.028  57.944 -61.418  1.00  0.00     0.000 A 
HETATM   28  C   UNL     1     -47.655  56.604 -61.442  1.00  0.00     0.002 A 
HETATM   29  C   UNL     1     -46.628  56.151 -60.609  1.00  0.00     0.029 A 
ENDBRANCH  21  24
ENDBRANCH  19  20
ENDBRANCH   5  19
BRANCH   1  30
HETATM   30  C   UNL     1     -41.396  54.091 -54.033  1.00  0.00     0.047 A 
HETATM   31  C   UNL     1     -40.491  53.076 -54.387  1.00  0.00     0.033 A 
HETATM   32  C   UNL     1     -39.883  52.247 -53.430  1.00  0.00     0.039 A 
HETATM   33  C   UNL     1     -40.173  52.403 -52.081  1.00  0.00     0.068 A 
HETATM   34  C   UNL     1     -41.108  53.365 -51.710  1.00  0.00     0.039 A 
HETATM   35  C   UNL     1     -41.709  54.195 -52.669  1.00  0.00     0.033 A 
BRANCH  33  36
HETATM   36  O   UNL     1     -39.633  51.683 -51.056  1.00  0.00    -0.356 OA
HETATM   37  C   UNL     1     -39.654  50.266 -51.199  1.00  0.00     0.210 C 
ENDBRANCH  33  36
ENDBRANCH   1  30
TORSDOF 9
ENDMDL
MODEL 6
REMARK VINA RESULT:      -7.5      2.547      7.475
REMARK  9 active torsions:
REMARK  status: ('A' for Active; 'I' for Inactive)
REMARK    1  A    between atoms: O_2  and  C_3 
REMARK    2  A    between atoms: C_6  and  N_7 
REMARK    3  A    between atoms: N_10  and  C_11 
REMARK    4  A    between atoms: C_11  and  C_12 
REMARK    5  A    between atoms: C_14  and  O_15 
REMARK    6  A    between atoms: C_17  and  O_18 
REMARK    7  A    between atoms: C_22  and  C_23 
REMARK    8  A    between atoms: C_23  and  C_24 
REMARK       I    between atoms: C_24  and  N_25 
REMARK    9  A    between atoms: N_25  and  C_26 
ROOT
HETATM    1  N   UNL     1     -43.043  58.793 -53.315  1.00  0.00    -0.232 N 
HETATM    2  C   UNL     1     -43.977  57.802 -53.530  1.00  0.00     0.333 C 
HETATM    3  O   UNL     1     -45.035  57.609 -52.948  1.00  0.00    -0.246 OA
HETATM    4  N   UNL     1     -43.485  56.896 -54.480  1.00  0.00    -0.315 N 
HETATM    5  C   UNL     1     -42.158  57.278 -54.926  1.00  0.00     0.191 C 
HETATM    6  C   UNL     1     -41.904  58.477 -54.016  1.00  0.00     0.256 C 
HETATM    7  O   UNL     1     -40.805  59.029 -54.010  1.00  0.00    -0.270 OA
ENDROOT
BRANCH   4   8
HETATM    8  C   UNL     1     -43.857  55.506 -54.268  1.00  0.00     0.167 C 
BRANCH   8   9
HETATM    9  C   UNL     1     -42.819  54.607 -53.658  1.00  0.00    -0.037 A 
HETATM   10  C   UNL     1     -42.468  54.746 -52.305  1.00  0.00     0.048 A 
HETATM   11  C   UNL     1     -41.374  54.051 -51.775  1.00  0.00     0.102 A 
HETATM   12  C   UNL     1     -40.636  53.191 -52.607  1.00  0.00     0.101 A 
HETATM   13  C   UNL     1     -41.024  53.000 -53.936  1.00  0.00     0.040 A 
HETATM   14  C   UNL     1     -42.103  53.711 -54.460  1.00  0.00     0.012 A 
BRANCH  11  15
HETATM   15  O   UNL     1     -40.933  54.166 -50.481  1.00  0.00    -0.353 OA
HETATM   16  C   UNL     1     -41.734  54.922 -49.584  1.00  0.00     0.210 C 
ENDBRANCH  11  15
BRANCH  12  17
HETATM   17  O   UNL     1     -39.556  52.545 -52.056  1.00  0.00    -0.353 OA
HETATM   18  C   UNL     1     -39.517  51.144 -52.313  1.00  0.00     0.210 C 
ENDBRANCH  12  17
ENDBRANCH   8   9
ENDBRANCH   4   8
BRANCH   5  19
HETATM   19  C   UNL     1     -42.128  57.772 -56.371  1.00  0.00     0.138 C 
BRANCH  19  20
HETATM   20  C   UNL     1     -42.856  56.858 -57.348  1.00  0.00     0.224 C 
HETATM   21  N   UNL     1     -43.784  57.486 -58.156  1.00  0.00    -0.327 N 
HETATM   22  H   UNL     1     -43.875  58.499 -58.096  1.00  0.00     0.169 HD
HETATM   23  O   UNL     1     -42.618  55.653 -57.334  1.00  0.00    -0.273 OA
BRANCH  21  24
HETATM   24  C   UNL     1     -44.635  56.885 -59.111  1.00  0.00     0.034 A 
HETATM   25  C   UNL     1     -44.207  55.974 -60.078  1.00  0.00     0.029 A 
HETATM   26  C   UNL     1     -45.122  55.415 -60.977  1.00  0.00     0.002 A 
HETATM   27  C   UNL     1     -46.468  55.774 -60.927  1.00  0.00     0.000 A 
HETATM   28  C   UNL     1     -46.904  56.681 -59.967  1.00  0.00     0.002 A 
HETATM   29  C   UNL     1     -45.994  57.224 -59.055  1.00  0.00     0.029 A 
ENDBRANCH  21  24
ENDBRANCH  19  20
ENDBRANCH   5  19
BRANCH   1  30
HETATM   30  C   UNL     1     -43.174  59.860 -52.367  1.00  0.00     0.047 A 
HETATM   31  C   UNL     1     -43.872  61.041 -52.673  1.00  0.00     0.033 A 
HETATM   32  C   UNL     1     -44.062  62.065 -51.731  1.00  0.00     0.039 A 
HETATM   33  C   UNL     1     -43.546  61.942 -50.449  1.00  0.00     0.068 A 
HETATM   34  C   UNL     1     -42.803  60.808 -50.137  1.00  0.00     0.039 A 
HETATM   35  C   UNL     1     -42.620  59.784 -51.080  1.00  0.00     0.033 A 
BRANCH  33  36
HETATM   36  O   UNL     1     -43.682  62.850 -49.439  1.00  0.00    -0.356 OA
HETATM   37  C   UNL     1     -44.677  62.564 -48.462  1.00  0.00     0.210 C 
ENDBRANCH  33  36
ENDBRANCH   1  30
TORSDOF 9
ENDMDL
MODEL 7
REMARK VINA RESULT:      -7.4      2.925      7.757
REMARK  9 active torsions:
REMARK  status: ('A' for Active; 'I' for Inactive)
REMARK    1  A    between atoms: O_2  and  C_3 
REMARK    2  A    between atoms: C_6  and  N_7 
REMARK    3  A    between atoms: N_10  and  C_11 
REMARK    4  A    between atoms: C_11  and  C_12 
REMARK    5  A    between atoms: C_14  and  O_15 
REMARK    6  A    between atoms: C_17  and  O_18 
REMARK    7  A    between atoms: C_22  and  C_23 
REMARK    8  A    between atoms: C_23  and  C_24 
REMARK       I    between atoms: C_24  and  N_25 
REMARK    9  A    between atoms: N_25  and  C_26 
ROOT
HETATM    1  N   UNL     1     -41.765  55.232 -53.279  1.00  0.00    -0.232 N 
HETATM    2  C   UNL     1     -41.157  56.347 -53.813  1.00  0.00     0.333 C 
HETATM    3  O   UNL     1     -40.027  56.459 -54.267  1.00  0.00    -0.246 OA
HETATM    4  N   UNL     1     -41.998  57.457 -53.653  1.00  0.00    -0.315 N 
HETATM    5  C   UNL     1     -43.226  57.088 -52.975  1.00  0.00     0.191 C 
HETATM    6  C   UNL     1     -42.931  55.622 -52.666  1.00  0.00     0.256 C 
HETATM    7  O   UNL     1     -43.709  54.965 -51.976  1.00  0.00    -0.270 OA
ENDROOT
BRANCH   4   8
HETATM    8  C   UNL     1     -41.323  58.719 -53.393  1.00  0.00     0.167 C 
BRANCH   8   9
HETATM    9  C   UNL     1     -42.049  59.717 -52.535  1.00  0.00    -0.037 A 
HETATM   10  C   UNL     1     -42.790  60.752 -53.126  1.00  0.00     0.048 A 
HETATM   11  C   UNL     1     -43.309  61.795 -52.347  1.00  0.00     0.102 A 
HETATM   12  C   UNL     1     -43.099  61.786 -50.957  1.00  0.00     0.101 A 
HETATM   13  C   UNL     1     -42.419  60.722 -50.359  1.00  0.00     0.040 A 
HETATM   14  C   UNL     1     -41.889  59.699 -51.144  1.00  0.00     0.012 A 
BRANCH  11  15
HETATM   15  O   UNL     1     -44.001  62.869 -52.847  1.00  0.00    -0.353 OA
HETATM   16  C   UNL     1     -44.511  62.757 -54.167  1.00  0.00     0.210 C 
ENDBRANCH  11  15
BRANCH  12  17
HETATM   17  O   UNL     1     -43.603  62.838 -50.231  1.00  0.00    -0.353 OA
HETATM   18  C   UNL     1     -44.377  62.451 -49.098  1.00  0.00     0.210 C 
ENDBRANCH  12  17
ENDBRANCH   8   9
ENDBRANCH   4   8
BRANCH   5  19
HETATM   19  C   UNL     1     -44.453  57.135 -53.883  1.00  0.00     0.138 C 
BRANCH  19  20
HETATM   20  C   UNL     1     -44.146  57.580 -55.308  1.00  0.00     0.224 C 
HETATM   21  N   UNL     1     -43.559  56.618 -56.107  1.00  0.00    -0.327 N 
HETATM   22  H   UNL     1     -43.432  55.681 -55.727  1.00  0.00     0.169 HD
HETATM   23  O   UNL     1     -44.387  58.738 -55.641  1.00  0.00    -0.273 OA
BRANCH  21  24
HETATM   24  C   UNL     1     -43.123  56.764 -57.443  1.00  0.00     0.034 A 
HETATM   25  C   UNL     1     -42.367  57.841 -57.908  1.00  0.00     0.029 A 
HETATM   26  C   UNL     1     -41.965  57.898 -59.246  1.00  0.00     0.002 A 
HETATM   27  C   UNL     1     -42.329  56.888 -60.135  1.00  0.00     0.000 A 
HETATM   28  C   UNL     1     -43.084  55.811 -59.683  1.00  0.00     0.002 A 
HETATM   29  C   UNL     1     -43.468  55.743 -58.340  1.00  0.00     0.029 A 
ENDBRANCH  21  24
ENDBRANCH  19  20
ENDBRANCH   5  19
BRANCH   1  30
HETATM   30  C   UNL     1     -41.179  53.925 -53.208  1.00  0.00     0.047 A 
HETATM   31  C   UNL     1     -41.208  53.041 -54.300  1.00  0.00     0.033 A 
HETATM   32  C   UNL     1     -40.581  51.784 -54.264  1.00  0.00     0.039 A 
HETATM   33  C   UNL     1     -39.911  51.368 -53.122  1.00  0.00     0.068 A 
HETATM   34  C   UNL     1     -39.915  52.202 -52.008  1.00  0.00     0.039 A 
HETATM   35  C   UNL     1     -40.538  53.459 -52.050  1.00  0.00     0.033 A 
BRANCH  33  36
HETATM   36  O   UNL     1     -39.243  50.187 -52.969  1.00  0.00    -0.356 OA
HETATM   37  C   UNL     1     -39.590  49.408 -51.829  1.00  0.00     0.210 C 
ENDBRANCH  33  36
ENDBRANCH   1  30
TORSDOF 9
ENDMDL
MODEL 8
REMARK VINA RESULT:      -7.4      3.888      9.041
REMARK  9 active torsions:
REMARK  status: ('A' for Active; 'I' for Inactive)
REMARK    1  A    between atoms: O_2  and  C_3 
REMARK    2  A    between atoms: C_6  and  N_7 
REMARK    3  A    between atoms: N_10  and  C_11 
REMARK    4  A    between atoms: C_11  and  C_12 
REMARK    5  A    between atoms: C_14  and  O_15 
REMARK    6  A    between atoms: C_17  and  O_18 
REMARK    7  A    between atoms: C_22  and  C_23 
REMARK    8  A    between atoms: C_23  and  C_24 
REMARK       I    between atoms: C_24  and  N_25 
REMARK    9  A    between atoms: N_25  and  C_26 
ROOT
HETATM    1  N   UNL     1     -41.859  55.740 -52.402  1.00  0.00    -0.232 N 
HETATM    2  C   UNL     1     -41.680  56.829 -53.227  1.00  0.00     0.333 C 
HETATM    3  O   UNL     1     -41.002  56.918 -54.241  1.00  0.00    -0.246 OA
HETATM    4  N   UNL     1     -42.312  57.948 -52.665  1.00  0.00    -0.315 N 
HETATM    5  C   UNL     1     -42.939  57.612 -51.401  1.00  0.00     0.191 C 
HETATM    6  C   UNL     1     -42.488  56.161 -51.255  1.00  0.00     0.256 C 
HETATM    7  O   UNL     1     -42.731  55.537 -50.223  1.00  0.00    -0.270 OA
ENDROOT
BRANCH   4   8
HETATM    8  C   UNL     1     -41.635  59.218 -52.877  1.00  0.00     0.167 C 
BRANCH   8   9
HETATM    9  C   UNL     1     -42.303  60.202 -53.795  1.00  0.00    -0.037 A 
HETATM   10  C   UNL     1     -42.249  60.022 -55.187  1.00  0.00     0.048 A 
HETATM   11  C   UNL     1     -42.697  61.025 -56.056  1.00  0.00     0.102 A 
HETATM   12  C   UNL     1     -43.225  62.213 -55.522  1.00  0.00     0.101 A 
HETATM   13  C   UNL     1     -43.342  62.367 -54.137  1.00  0.00     0.040 A 
HETATM   14  C   UNL     1     -42.875  61.371 -53.280  1.00  0.00     0.012 A 
BRANCH  11  15
HETATM   15  O   UNL     1     -42.635  60.953 -57.424  1.00  0.00    -0.353 OA
HETATM   16  C   UNL     1     -41.690  60.054 -57.987  1.00  0.00     0.210 C 
ENDBRANCH  11  15
BRANCH  12  17
HETATM   17  O   UNL     1     -43.633  63.182 -56.406  1.00  0.00    -0.353 OA
HETATM   18  C   UNL     1     -42.872  64.386 -56.350  1.00  0.00     0.210 C 
ENDBRANCH  12  17
ENDBRANCH   8   9
ENDBRANCH   4   8
BRANCH   5  19
HETATM   19  C   UNL     1     -44.465  57.622 -51.466  1.00  0.00     0.138 C 
BRANCH  19  20
HETATM   20  C   UNL     1     -45.103  58.798 -50.735  1.00  0.00     0.224 C 
HETATM   21  N   UNL     1     -44.215  59.745 -50.263  1.00  0.00    -0.327 N 
HETATM   22  H   UNL     1     -43.226  59.635 -50.482  1.00  0.00     0.169 HD
HETATM   23  O   UNL     1     -46.321  58.816 -50.574  1.00  0.00    -0.273 OA
BRANCH  21  24
HETATM   24  C   UNL     1     -44.516  60.903 -49.513  1.00  0.00     0.034 A 
HETATM   25  C   UNL     1     -45.118  60.887 -48.253  1.00  0.00     0.029 A 
HETATM   26  C   UNL     1     -45.368  62.083 -47.573  1.00  0.00     0.002 A 
HETATM   27  C   UNL     1     -45.034  63.306 -48.152  1.00  0.00     0.000 A 
HETATM   28  C   UNL     1     -44.434  63.334 -49.407  1.00  0.00     0.002 A 
HETATM   29  C   UNL     1     -44.165  62.137 -50.078  1.00  0.00     0.029 A 
ENDBRANCH  21  24
ENDBRANCH  19  20
ENDBRANCH   5  19
BRANCH   1  30
HETATM   30  C   UNL     1     -41.304  54.436 -52.622  1.00  0.00     0.047 A 
HETATM   31  C   UNL     1     -41.569  53.708 -53.794  1.00  0.00     0.033 A 
HETATM   32  C   UNL     1     -40.979  52.459 -54.050  1.00  0.00     0.039 A 
HETATM   33  C   UNL     1     -40.110  51.893 -53.128  1.00  0.00     0.068 A 
HETATM   34  C   UNL     1     -39.874  52.568 -51.935  1.00  0.00     0.039 A 
HETATM   35  C   UNL     1     -40.461  53.819 -51.686  1.00  0.00     0.033 A 
BRANCH  33  36
HETATM   36  O   UNL     1     -39.456  50.703 -53.269  1.00  0.00    -0.356 OA
HETATM   37  C   UNL     1     -39.797  49.925 -54.412  1.00  0.00     0.210 C 
ENDBRANCH  33  36
ENDBRANCH   1  30
TORSDOF 9
ENDMDL
MODEL 9
REMARK VINA RESULT:      -7.3      4.372      8.392
REMARK  9 active torsions:
REMARK  status: ('A' for Active; 'I' for Inactive)
REMARK    1  A    between atoms: O_2  and  C_3 
REMARK    2  A    between atoms: C_6  and  N_7 
REMARK    3  A    between atoms: N_10  and  C_11 
REMARK    4  A    between atoms: C_11  and  C_12 
REMARK    5  A    between atoms: C_14  and  O_15 
REMARK    6  A    between atoms: C_17  and  O_18 
REMARK    7  A    between atoms: C_22  and  C_23 
REMARK    8  A    between atoms: C_23  and  C_24 
REMARK       I    between atoms: C_24  and  N_25 
REMARK    9  A    between atoms: N_25  and  C_26 
ROOT
HETATM    1  N   UNL     1     -44.614  60.755 -50.227  1.00  0.00    -0.232 N 
HETATM    2  C   UNL     1     -43.646  61.278 -51.055  1.00  0.00     0.333 C 
HETATM    3  O   UNL     1     -43.221  62.424 -51.108  1.00  0.00    -0.246 OA
HETATM    4  N   UNL     1     -43.258  60.307 -51.990  1.00  0.00    -0.315 N 
HETATM    5  C   UNL     1     -43.998  59.074 -51.797  1.00  0.00     0.191 C 
HETATM    6  C   UNL     1     -44.950  59.504 -50.685  1.00  0.00     0.256 C 
HETATM    7  O   UNL     1     -45.843  58.747 -50.307  1.00  0.00    -0.270 OA
ENDROOT
BRANCH   4   8
HETATM    8  C   UNL     1     -42.930  60.811 -53.314  1.00  0.00     0.167 C 
BRANCH   8   9
HETATM    9  C   UNL     1     -43.175  59.889 -54.475  1.00  0.00    -0.037 A 
HETATM   10  C   UNL     1     -44.464  59.760 -55.017  1.00  0.00     0.048 A 
HETATM   11  C   UNL     1     -44.745  58.769 -55.966  1.00  0.00     0.102 A 
HETATM   12  C   UNL     1     -43.715  57.911 -56.390  1.00  0.00     0.101 A 
HETATM   13  C   UNL     1     -42.417  58.081 -55.902  1.00  0.00     0.040 A 
HETATM   14  C   UNL     1     -42.151  59.057 -54.943  1.00  0.00     0.012 A 
BRANCH  11  15
HETATM   15  O   UNL     1     -45.984  58.541 -56.510  1.00  0.00    -0.353 OA
HETATM   16  C   UNL     1     -46.479  59.505 -57.428  1.00  0.00     0.210 C 
ENDBRANCH  11  15
BRANCH  12  17
HETATM   17  O   UNL     1     -44.036  56.937 -57.305  1.00  0.00    -0.353 OA
HETATM   18  C   UNL     1     -42.926  56.159 -57.746  1.00  0.00     0.210 C 
ENDBRANCH  12  17
ENDBRANCH   8   9
ENDBRANCH   4   8
BRANCH   5  19
HETATM   19  C   UNL     1     -43.136  57.933 -51.259  1.00  0.00     0.138 C 
BRANCH  19  20
HETATM   20  C   UNL     1     -42.934  56.795 -52.252  1.00  0.00     0.224 C 
HETATM   21  N   UNL     1     -41.718  56.147 -52.161  1.00  0.00    -0.327 N 
HETATM   22  H   UNL     1     -41.077  56.418 -51.416  1.00  0.00     0.169 HD
HETATM   23  O   UNL     1     -43.814  56.554 -53.076  1.00  0.00    -0.273 OA
BRANCH  21  24
HETATM   24  C   UNL     1     -41.242  55.098 -52.979  1.00  0.00     0.034 A 
HETATM   25  C   UNL     1     -41.352  53.744 -52.659  1.00  0.00     0.029 A 
HETATM   26  C   UNL     1     -40.865  52.768 -53.536  1.00  0.00     0.002 A 
HETATM   27  C   UNL     1     -40.252  53.138 -54.732  1.00  0.00     0.000 A 
HETATM   28  C   UNL     1     -40.137  54.485 -55.059  1.00  0.00     0.002 A 
HETATM   29  C   UNL     1     -40.642  55.460 -54.193  1.00  0.00     0.029 A 
ENDBRANCH  21  24
ENDBRANCH  19  20
ENDBRANCH   5  19
BRANCH   1  30
HETATM   30  C   UNL     1     -45.291  61.476 -49.188  1.00  0.00     0.047 A 
HETATM   31  C   UNL     1     -46.438  62.245 -49.448  1.00  0.00     0.033 A 
HETATM   32  C   UNL     1     -47.147  62.902 -48.428  1.00  0.00     0.039 A 
HETATM   33  C   UNL     1     -46.719  62.817 -47.111  1.00  0.00     0.068 A 
HETATM   34  C   UNL     1     -45.554  62.108 -46.835  1.00  0.00     0.039 A 
HETATM   35  C   UNL     1     -44.852  61.448 -47.856  1.00  0.00     0.033 A 
BRANCH  33  36
HETATM   36  O   UNL     1     -47.330  63.386 -46.031  1.00  0.00    -0.356 OA
HETATM   37  C   UNL     1     -46.472  63.882 -45.008  1.00  0.00     0.210 C 
ENDBRANCH  33  36
ENDBRANCH   1  30
TORSDOF 9
ENDMDL
MODEL 10
REMARK VINA RESULT:      -7.3      3.376      7.315
REMARK  9 active torsions:
REMARK  status: ('A' for Active; 'I' for Inactive)
REMARK    1  A    between atoms: O_2  and  C_3 
REMARK    2  A    between atoms: C_6  and  N_7 
REMARK    3  A    between atoms: N_10  and  C_11 
REMARK    4  A    between atoms: C_11  and  C_12 
REMARK    5  A    between atoms: C_14  and  O_15 
REMARK    6  A    between atoms: C_17  and  O_18 
REMARK    7  A    between atoms: C_22  and  C_23 
REMARK    8  A    between atoms: C_23  and  C_24 
REMARK       I    between atoms: C_24  and  N_25 
REMARK    9  A    between atoms: N_25  and  C_26 
ROOT
HETATM    1  N   UNL     1     -43.714  59.620 -51.996  1.00  0.00    -0.232 N 
HETATM    2  C   UNL     1     -42.814  60.049 -52.947  1.00  0.00     0.333 C 
HETATM    3  O   UNL     1     -42.580  61.191 -53.318  1.00  0.00    -0.246 OA
HETATM    4  N   UNL     1     -42.240  58.938 -53.581  1.00  0.00    -0.315 N 
HETATM    5  C   UNL     1     -42.776  57.700 -53.048  1.00  0.00     0.191 C 
HETATM    6  C   UNL     1     -43.825  58.253 -52.087  1.00  0.00     0.256 C 
HETATM    7  O   UNL     1     -44.596  57.492 -51.505  1.00  0.00    -0.270 OA
ENDROOT
BRANCH   4   8
HETATM    8  C   UNL     1     -41.952  59.107 -54.996  1.00  0.00     0.167 C 
BRANCH   8   9
HETATM    9  C   UNL     1     -42.966  58.572 -55.968  1.00  0.00    -0.037 A 
HETATM   10  C   UNL     1     -42.697  57.406 -56.702  1.00  0.00     0.048 A 
HETATM   11  C   UNL     1     -43.543  57.005 -57.744  1.00  0.00     0.102 A 
HETATM   12  C   UNL     1     -44.683  57.773 -58.038  1.00  0.00     0.101 A 
HETATM   13  C   UNL     1     -44.989  58.896 -57.265  1.00  0.00     0.040 A 
HETATM   14  C   UNL     1     -44.131  59.299 -56.243  1.00  0.00     0.012 A 
BRANCH  11  15
HETATM   15  O   UNL     1     -43.329  55.911 -58.542  1.00  0.00    -0.353 OA
HETATM   16  C   UNL     1     -42.555  56.103 -59.717  1.00  0.00     0.210 C 
ENDBRANCH  11  15
BRANCH  12  17
HETATM   17  O   UNL     1     -45.476  57.360 -59.082  1.00  0.00    -0.353 OA
HETATM   18  C   UNL     1     -46.875  57.485 -58.841  1.00  0.00     0.210 C 
ENDBRANCH  12  17
ENDBRANCH   8   9
ENDBRANCH   4   8
BRANCH   5  19
HETATM   19  C   UNL     1     -41.760  56.910 -52.225  1.00  0.00     0.138 C 
BRANCH  19  20
HETATM   20  C   UNL     1     -41.165  55.718 -52.964  1.00  0.00     0.224 C 
HETATM   21  N   UNL     1     -41.261  54.510 -52.301  1.00  0.00    -0.327 N 
HETATM   22  H   UNL     1     -41.765  54.480 -51.417  1.00  0.00     0.169 HD
HETATM   23  O   UNL     1     -40.614  55.898 -54.048  1.00  0.00    -0.273 OA
BRANCH  21  24
HETATM   24  C   UNL     1     -40.756  53.259 -52.722  1.00  0.00     0.034 A 
HETATM   25  C   UNL     1     -41.010  52.691 -53.971  1.00  0.00     0.029 A 
HETATM   26  C   UNL     1     -40.457  51.452 -54.311  1.00  0.00     0.002 A 
HETATM   27  C   UNL     1     -39.657  50.764 -53.400  1.00  0.00     0.000 A 
HETATM   28  C   UNL     1     -39.398  51.321 -52.152  1.00  0.00     0.002 A 
HETATM   29  C   UNL     1     -39.934  52.569 -51.820  1.00  0.00     0.029 A 
ENDBRANCH  21  24
ENDBRANCH  19  20
ENDBRANCH   5  19
BRANCH   1  30
HETATM   30  C   UNL     1     -44.535  60.475 -51.189  1.00  0.00     0.047 A 
HETATM   31  C   UNL     1     -44.140  60.882 -49.903  1.00  0.00     0.033 A 
HETATM   32  C   UNL     1     -44.906  61.771 -49.130  1.00  0.00     0.039 A 
HETATM   33  C   UNL     1     -46.103  62.273 -49.620  1.00  0.00     0.068 A 
HETATM   34  C   UNL     1     -46.544  61.842 -50.868  1.00  0.00     0.039 A 
HETATM   35  C   UNL     1     -45.773  60.958 -51.639  1.00  0.00     0.033 A 
BRANCH  33  36
HETATM   36  O   UNL     1     -46.922  63.159 -48.982  1.00  0.00    -0.356 OA
HETATM   37  C   UNL     1     -46.921  64.493 -49.480  1.00  0.00     0.210 C 
ENDBRANCH  33  36
ENDBRANCH   1  30
TORSDOF 9
ENDMDL
