MODEL 1
REMARK VINA RESULT:      -8.1      0.000      0.000
REMARK  7 active torsions:
REMARK  status: ('A' for Active; 'I' for Inactive)
REMARK    1  A    between atoms: C_7  and  C_8 
REMARK    2  A    between atoms: C_8  and  C_9 
REMARK    3  A    between atoms: C_9  and  C_10 
REMARK    4  A    between atoms: C_10  and  O_11 
REMARK    5  A    between atoms: C_13  and  C_14 
REMARK    6  A    between atoms: C_21  and  C_22 
REMARK       I    between atoms: C_22  and  N_23 
REMARK    7  A    between atoms: N_23  and  C_24 
ROOT
HETATM    1  C   UNL     1     -41.636  59.114 -53.303  1.00  0.00     0.070 C 
HETATM    2  C   UNL     1     -42.026  58.012 -54.257  1.00  0.00     0.037 A 
HETATM    3  N   UNL     1     -41.974  58.339 -55.607  1.00  0.00    -0.192 N 
HETATM    4  C   UNL     1     -42.349  57.500 -56.590  1.00  0.00     0.726 A 
HETATM    5  N   UNL     1     -42.755  56.236 -56.267  1.00  0.00    -0.083 N 
HETATM    6  N   UNL     1     -43.224  55.579 -57.351  1.00  0.00    -0.140 NA
HETATM    7  C   UNL     1     -42.951  56.470 -58.316  1.00  0.00     0.166 A 
HETATM    8  N   UNL     1     -42.434  57.668 -57.884  1.00  0.00    -0.046 NA
HETATM    9  C   UNL     1     -42.796  55.705 -54.900  1.00  0.00     0.202 A 
HETATM   10  C   UNL     1     -42.428  56.772 -53.877  1.00  0.00     0.062 A 
HETATM   11  H   UNL     1     -41.673  59.278 -55.856  1.00  0.00     0.184 HD
ENDROOT
BRANCH  10  12
HETATM   12  C   UNL     1     -42.418  56.389 -52.437  1.00  0.00     0.256 C 
HETATM   13  N   UNL     1     -41.331  55.620 -52.076  1.00  0.00    -0.323 N 
HETATM   14  H   UNL     1     -40.638  55.406 -52.779  1.00  0.00     0.169 HD
HETATM   15  O   UNL     1     -43.328  56.768 -51.711  1.00  0.00    -0.267 OA
BRANCH  13  16
HETATM   16  C   UNL     1     -41.072  55.064 -50.803  1.00  0.00     0.035 A 
HETATM   17  C   UNL     1     -41.225  55.758 -49.601  1.00  0.00     0.029 A 
HETATM   18  C   UNL     1     -40.970  55.125 -48.380  1.00  0.00     0.002 A 
HETATM   19  C   UNL     1     -40.550  53.798 -48.350  1.00  0.00     0.000 A 
HETATM   20  C   UNL     1     -40.390  53.098 -49.542  1.00  0.00     0.002 A 
HETATM   21  C   UNL     1     -40.656  53.726 -50.762  1.00  0.00     0.029 A 
ENDBRANCH  13  16
ENDBRANCH  10  12
BRANCH   9  22
HETATM   22  C   UNL     1     -41.956  54.432 -54.821  1.00  0.00    -0.028 A 
HETATM   23  C   UNL     1     -42.511  53.198 -54.440  1.00  0.00     0.011 A 
HETATM   24  C   UNL     1     -41.711  52.057 -54.343  1.00  0.00     0.019 A 
HETATM   25  C   UNL     1     -40.347  52.141 -54.611  1.00  0.00     0.011 A 
HETATM   26 BR   UNL     1     -39.262  50.600 -54.466  1.00  0.00    -0.051 Br
HETATM   27  C   UNL     1     -39.774  53.357 -54.975  1.00  0.00     0.019 A 
HETATM   28  C   UNL     1     -40.574  54.496 -55.079  1.00  0.00     0.011 A 
ENDBRANCH   9  22
BRANCH   7  29
HETATM   29  C   UNL     1     -43.182  56.178 -59.753  1.00  0.00     0.085 C 
BRANCH  29  30
HETATM   30  C   UNL     1     -44.134  55.005 -59.980  1.00  0.00     0.034 C 
BRANCH  30  31
HETATM   31  C   UNL     1     -45.181  55.282 -61.053  1.00  0.00     0.164 C 
BRANCH  31  32
HETATM   32  O   UNL     1     -44.898  54.496 -62.207  1.00  0.00    -0.401 OA
HETATM   33  H   UNL     1     -43.934  54.482 -62.323  1.00  0.00     0.209 HD
ENDBRANCH  31  32
ENDBRANCH  30  31
ENDBRANCH  29  30
ENDBRANCH   7  29
TORSDOF 7
ENDMDL
MODEL 2
REMARK VINA RESULT:      -7.8      3.659      6.451
REMARK  7 active torsions:
REMARK  status: ('A' for Active; 'I' for Inactive)
REMARK    1  A    between atoms: C_7  and  C_8 
REMARK    2  A    between atoms: C_8  and  C_9 
REMARK    3  A    between atoms: C_9  and  C_10 
REMARK    4  A    between atoms: C_10  and  O_11 
REMARK    5  A    between atoms: C_13  and  C_14 
REMARK    6  A    between atoms: C_21  and  C_22 
REMARK       I    between atoms: C_22  and  N_23 
REMARK    7  A    between atoms: N_23  and  C_24 
ROOT
HETATM    1  C   UNL     1     -40.311  55.676 -49.781  1.00  0.00     0.070 C 
HETATM    2  C   UNL     1     -41.358  56.392 -50.599  1.00  0.00     0.037 A 
HETATM    3  N   UNL     1     -41.440  57.765 -50.400  1.00  0.00    -0.192 N 
HETATM    4  C   UNL     1     -42.357  58.548 -50.998  1.00  0.00     0.726 A 
HETATM    5  N   UNL     1     -43.228  57.992 -51.891  1.00  0.00    -0.083 N 
HETATM    6  N   UNL     1     -44.161  58.883 -52.288  1.00  0.00    -0.140 NA
HETATM    7  C   UNL     1     -43.713  59.995 -51.685  1.00  0.00     0.166 A 
HETATM    8  N   UNL     1     -42.621  59.822 -50.868  1.00  0.00    -0.046 NA
HETATM    9  C   UNL     1     -43.226  56.575 -52.273  1.00  0.00     0.202 A 
HETATM   10  C   UNL     1     -42.200  55.783 -51.471  1.00  0.00     0.062 A 
HETATM   11  H   UNL     1     -40.796  58.188 -49.736  1.00  0.00     0.184 HD
ENDROOT
BRANCH  10  12
HETATM   12  C   UNL     1     -42.071  54.324 -51.745  1.00  0.00     0.256 C 
HETATM   13  N   UNL     1     -40.883  53.978 -52.354  1.00  0.00    -0.323 N 
HETATM   14  H   UNL     1     -40.206  54.704 -52.536  1.00  0.00     0.169 HD
HETATM   15  O   UNL     1     -42.983  53.572 -51.424  1.00  0.00    -0.267 OA
BRANCH  13  16
HETATM   16  C   UNL     1     -40.495  52.689 -52.783  1.00  0.00     0.035 A 
HETATM   17  C   UNL     1     -40.678  52.208 -54.081  1.00  0.00     0.029 A 
HETATM   18  C   UNL     1     -40.243  50.925 -54.430  1.00  0.00     0.002 A 
HETATM   19  C   UNL     1     -39.631  50.108 -53.483  1.00  0.00     0.000 A 
HETATM   20  C   UNL     1     -39.447  50.576 -52.185  1.00  0.00     0.002 A 
HETATM   21  C   UNL     1     -39.872  51.862 -51.839  1.00  0.00     0.029 A 
ENDBRANCH  13  16
ENDBRANCH  10  12
BRANCH   9  22
HETATM   22  C   UNL     1     -43.079  56.454 -53.788  1.00  0.00    -0.028 A 
HETATM   23  C   UNL     1     -42.424  57.436 -54.551  1.00  0.00     0.011 A 
HETATM   24  C   UNL     1     -42.334  57.315 -55.941  1.00  0.00     0.019 A 
HETATM   25  C   UNL     1     -42.911  56.221 -56.581  1.00  0.00     0.011 A 
HETATM   26 BR   UNL     1     -42.801  56.065 -58.462  1.00  0.00    -0.051 Br
HETATM   27  C   UNL     1     -43.576  55.244 -55.845  1.00  0.00     0.019 A 
HETATM   28  C   UNL     1     -43.660  55.360 -54.457  1.00  0.00     0.011 A 
ENDBRANCH   9  22
BRANCH   7  29
HETATM   29  C   UNL     1     -44.345  61.321 -51.895  1.00  0.00     0.085 C 
BRANCH  29  30
HETATM   30  C   UNL     1     -44.673  62.041 -50.588  1.00  0.00     0.034 C 
BRANCH  30  31
HETATM   31  C   UNL     1     -45.614  61.248 -49.686  1.00  0.00     0.164 C 
BRANCH  31  32
HETATM   32  O   UNL     1     -44.866  60.639 -48.638  1.00  0.00    -0.401 OA
HETATM   33  H   UNL     1     -45.174  59.722 -48.552  1.00  0.00     0.209 HD
ENDBRANCH  31  32
ENDBRANCH  30  31
ENDBRANCH  29  30
ENDBRANCH   7  29
TORSDOF 7
ENDMDL
MODEL 3
REMARK VINA RESULT:      -7.8      3.623      5.954
REMARK  7 active torsions:
REMARK  status: ('A' for Active; 'I' for Inactive)
REMARK    1  A    between atoms: C_7  and  C_8 
REMARK    2  A    between atoms: C_8  and  C_9 
REMARK    3  A    between atoms: C_9  and  C_10 
REMARK    4  A    between atoms: C_10  and  O_11 
REMARK    5  A    between atoms: C_13  and  C_14 
REMARK    6  A    between atoms: C_21  and  C_22 
REMARK       I    between atoms: C_22  and  N_23 
REMARK    7  A    between atoms: N_23  and  C_24 
ROOT
HETATM    1  C   UNL     1     -40.307  55.696 -49.813  1.00  0.00     0.070 C 
HETATM    2  C   UNL     1     -41.367  56.386 -50.635  1.00  0.00     0.037 A 
HETATM    3  N   UNL     1     -41.467  57.761 -50.455  1.00  0.00    -0.192 N 
HETATM    4  C   UNL     1     -42.399  58.523 -51.058  1.00  0.00     0.726 A 
HETATM    5  N   UNL     1     -43.267  57.941 -51.939  1.00  0.00    -0.083 N 
HETATM    6  N   UNL     1     -44.214  58.814 -52.343  1.00  0.00    -0.140 NA
HETATM    7  C   UNL     1     -43.778  59.941 -51.759  1.00  0.00     0.166 A 
HETATM    8  N   UNL     1     -42.679  59.795 -50.946  1.00  0.00    -0.046 NA
HETATM    9  C   UNL     1     -43.248  56.519 -52.300  1.00  0.00     0.202 A 
HETATM   10  C   UNL     1     -42.207  55.753 -51.493  1.00  0.00     0.062 A 
HETATM   11  H   UNL     1     -40.826  58.201 -49.801  1.00  0.00     0.184 HD
ENDROOT
BRANCH  10  12
HETATM   12  C   UNL     1     -42.060  54.292 -51.747  1.00  0.00     0.256 C 
HETATM   13  N   UNL     1     -40.896  53.960 -52.408  1.00  0.00    -0.323 N 
HETATM   14  H   UNL     1     -40.244  54.696 -52.636  1.00  0.00     0.169 HD
HETATM   15  O   UNL     1     -42.937  53.527 -51.367  1.00  0.00    -0.267 OA
BRANCH  13  16
HETATM   16  C   UNL     1     -40.501  52.671 -52.831  1.00  0.00     0.035 A 
HETATM   17  C   UNL     1     -40.701  52.176 -54.122  1.00  0.00     0.029 A 
HETATM   18  C   UNL     1     -40.258  50.895 -54.467  1.00  0.00     0.002 A 
HETATM   19  C   UNL     1     -39.621  50.094 -53.524  1.00  0.00     0.000 A 
HETATM   20  C   UNL     1     -39.419  50.574 -52.233  1.00  0.00     0.002 A 
HETATM   21  C   UNL     1     -39.852  51.859 -51.891  1.00  0.00     0.029 A 
ENDBRANCH  13  16
ENDBRANCH  10  12
BRANCH   9  22
HETATM   22  C   UNL     1     -43.107  56.378 -53.814  1.00  0.00    -0.028 A 
HETATM   23  C   UNL     1     -42.492  57.369 -54.598  1.00  0.00     0.011 A 
HETATM   24  C   UNL     1     -42.408  57.229 -55.986  1.00  0.00     0.019 A 
HETATM   25  C   UNL     1     -42.952  56.105 -56.604  1.00  0.00     0.011 A 
HETATM   26 BR   UNL     1     -42.850  55.922 -58.483  1.00  0.00    -0.051 Br
HETATM   27  C   UNL     1     -43.579  55.119 -55.847  1.00  0.00     0.019 A 
HETATM   28  C   UNL     1     -43.656  55.255 -54.460  1.00  0.00     0.011 A 
ENDBRANCH   9  22
BRANCH   7  29
HETATM   29  C   UNL     1     -44.429  61.255 -51.984  1.00  0.00     0.085 C 
BRANCH  29  30
HETATM   30  C   UNL     1     -45.805  61.361 -51.328  1.00  0.00     0.034 C 
BRANCH  30  31
HETATM   31  C   UNL     1     -46.954  61.235 -52.323  1.00  0.00     0.164 C 
BRANCH  31  32
HETATM   32  O   UNL     1     -46.468  60.686 -53.544  1.00  0.00    -0.401 OA
HETATM   33  H   UNL     1     -46.093  61.415 -54.064  1.00  0.00     0.209 HD
ENDBRANCH  31  32
ENDBRANCH  30  31
ENDBRANCH  29  30
ENDBRANCH   7  29
TORSDOF 7
ENDMDL
MODEL 4
REMARK VINA RESULT:      -7.8      3.736      6.621
REMARK  7 active torsions:
REMARK  status: ('A' for Active; 'I' for Inactive)
REMARK    1  A    between atoms: C_7  and  C_8 
REMARK    2  A    between atoms: C_8  and  C_9 
REMARK    3  A    between atoms: C_9  and  C_10 
REMARK    4  A    between atoms: C_10  and  O_11 
REMARK    5  A    between atoms: C_13  and  C_14 
REMARK    6  A    between atoms: C_21  and  C_22 
REMARK       I    between atoms: C_22  and  N_23 
REMARK    7  A    between atoms: N_23  and  C_24 
ROOT
HETATM    1  C   UNL     1     -40.623  57.290 -50.569  1.00  0.00     0.070 C 
HETATM    2  C   UNL     1     -41.836  57.666 -51.383  1.00  0.00     0.037 A 
HETATM    3  N   UNL     1     -42.583  58.731 -50.892  1.00  0.00    -0.192 N 
HETATM    4  C   UNL     1     -43.728  59.157 -51.456  1.00  0.00     0.726 A 
HETATM    5  N   UNL     1     -44.169  58.559 -52.603  1.00  0.00    -0.083 N 
HETATM    6  N   UNL     1     -45.392  59.010 -52.953  1.00  0.00    -0.140 NA
HETATM    7  C   UNL     1     -45.572  59.974 -52.037  1.00  0.00     0.166 A 
HETATM    8  N   UNL     1     -44.581  60.077 -51.089  1.00  0.00    -0.046 NA
HETATM    9  C   UNL     1     -43.461  57.475 -53.294  1.00  0.00     0.202 A 
HETATM   10  C   UNL     1     -42.228  57.030 -52.516  1.00  0.00     0.062 A 
HETATM   11  H   UNL     1     -42.263  59.181 -50.039  1.00  0.00     0.184 HD
ENDROOT
BRANCH  10  12
HETATM   12  C   UNL     1     -41.395  55.936 -53.089  1.00  0.00     0.256 C 
HETATM   13  N   UNL     1     -41.701  54.687 -52.589  1.00  0.00    -0.323 N 
HETATM   14  H   UNL     1     -42.453  54.607 -51.921  1.00  0.00     0.169 HD
HETATM   15  O   UNL     1     -40.542  56.208 -53.925  1.00  0.00    -0.267 OA
BRANCH  13  16
HETATM   16  C   UNL     1     -41.055  53.470 -52.899  1.00  0.00     0.035 A 
HETATM   17  C   UNL     1     -41.193  52.798 -54.115  1.00  0.00     0.029 A 
HETATM   18  C   UNL     1     -40.499  51.607 -54.351  1.00  0.00     0.002 A 
HETATM   19  C   UNL     1     -39.667  51.072 -53.370  1.00  0.00     0.000 A 
HETATM   20  C   UNL     1     -39.525  51.731 -52.153  1.00  0.00     0.002 A 
HETATM   21  C   UNL     1     -40.210  52.927 -51.921  1.00  0.00     0.029 A 
ENDBRANCH  13  16
ENDBRANCH  10  12
BRANCH   9  22
HETATM   22  C   UNL     1     -43.187  57.883 -54.739  1.00  0.00    -0.028 A 
HETATM   23  C   UNL     1     -43.622  57.104 -55.826  1.00  0.00     0.011 A 
HETATM   24  C   UNL     1     -43.327  57.485 -57.138  1.00  0.00     0.019 A 
HETATM   25  C   UNL     1     -42.583  58.638 -57.375  1.00  0.00     0.011 A 
HETATM   26 BR   UNL     1     -42.172  59.146 -59.149  1.00  0.00    -0.051 Br
HETATM   27  C   UNL     1     -42.130  59.416 -56.312  1.00  0.00     0.019 A 
HETATM   28  C   UNL     1     -42.430  59.040 -55.002  1.00  0.00     0.011 A 
ENDBRANCH   9  22
BRANCH   7  29
HETATM   29  C   UNL     1     -46.753  60.872 -52.051  1.00  0.00     0.085 C 
BRANCH  29  30
HETATM   30  C   UNL     1     -46.413  62.312 -51.672  1.00  0.00     0.034 C 
BRANCH  30  31
HETATM   31  C   UNL     1     -46.962  62.718 -50.308  1.00  0.00     0.164 C 
BRANCH  31  32
HETATM   32  O   UNL     1     -46.507  61.799 -49.320  1.00  0.00    -0.401 OA
HETATM   33  H   UNL     1     -45.536  61.836 -49.310  1.00  0.00     0.209 HD
ENDBRANCH  31  32
ENDBRANCH  30  31
ENDBRANCH  29  30
ENDBRANCH   7  29
TORSDOF 7
ENDMDL
MODEL 5
REMARK VINA RESULT:      -7.7      3.311      4.909
REMARK  7 active torsions:
REMARK  status: ('A' for Active; 'I' for Inactive)
REMARK    1  A    between atoms: C_7  and  C_8 
REMARK    2  A    between atoms: C_8  and  C_9 
REMARK    3  A    between atoms: C_9  and  C_10 
REMARK    4  A    between atoms: C_10  and  O_11 
REMARK    5  A    between atoms: C_13  and  C_14 
REMARK    6  A    between atoms: C_21  and  C_22 
REMARK       I    between atoms: C_22  and  N_23 
REMARK    7  A    between atoms: N_23  and  C_24 
ROOT
HETATM    1  C   UNL     1     -43.273  53.585 -55.549  1.00  0.00     0.070 C 
HETATM    2  C   UNL     1     -42.883  55.028 -55.752  1.00  0.00     0.037 A 
HETATM    3  N   UNL     1     -43.565  55.699 -56.761  1.00  0.00    -0.192 N 
HETATM    4  C   UNL     1     -43.299  56.969 -57.119  1.00  0.00     0.726 A 
HETATM    5  N   UNL     1     -42.350  57.670 -56.430  1.00  0.00    -0.083 N 
HETATM    6  N   UNL     1     -42.113  58.870 -57.004  1.00  0.00    -0.140 NA
HETATM    7  C   UNL     1     -43.050  58.873 -57.965  1.00  0.00     0.166 A 
HETATM    8  N   UNL     1     -43.782  57.715 -58.078  1.00  0.00    -0.046 NA
HETATM    9  C   UNL     1     -41.594  57.138 -55.291  1.00  0.00     0.202 A 
HETATM   10  C   UNL     1     -41.926  55.673 -55.038  1.00  0.00     0.062 A 
HETATM   11  H   UNL     1     -44.272  55.184 -57.279  1.00  0.00     0.184 HD
ENDROOT
BRANCH  10  12
HETATM   12  C   UNL     1     -41.242  54.984 -53.907  1.00  0.00     0.256 C 
HETATM   13  N   UNL     1     -41.896  55.117 -52.701  1.00  0.00    -0.323 N 
HETATM   14  H   UNL     1     -42.769  55.626 -52.679  1.00  0.00     0.169 HD
HETATM   15  O   UNL     1     -40.200  54.377 -54.119  1.00  0.00    -0.267 OA
BRANCH  13  16
HETATM   16  C   UNL     1     -41.470  54.624 -51.447  1.00  0.00     0.035 A 
HETATM   17  C   UNL     1     -40.966  53.338 -51.243  1.00  0.00     0.029 A 
HETATM   18  C   UNL     1     -40.543  52.935 -49.972  1.00  0.00     0.002 A 
HETATM   19  C   UNL     1     -40.630  53.810 -48.892  1.00  0.00     0.000 A 
HETATM   20  C   UNL     1     -41.135  55.093 -49.083  1.00  0.00     0.002 A 
HETATM   21  C   UNL     1     -41.547  55.499 -50.355  1.00  0.00     0.029 A 
ENDBRANCH  13  16
ENDBRANCH  10  12
BRANCH   9  22
HETATM   22  C   UNL     1     -41.783  58.050 -54.081  1.00  0.00    -0.028 A 
HETATM   23  C   UNL     1     -40.692  58.538 -53.341  1.00  0.00     0.011 A 
HETATM   24  C   UNL     1     -40.897  59.343 -52.217  1.00  0.00     0.019 A 
HETATM   25  C   UNL     1     -42.193  59.657 -51.816  1.00  0.00     0.011 A 
HETATM   26 BR   UNL     1     -42.470  60.736 -50.288  1.00  0.00    -0.051 Br
HETATM   27  C   UNL     1     -43.288  59.173 -52.527  1.00  0.00     0.019 A 
HETATM   28  C   UNL     1     -43.083  58.374 -53.653  1.00  0.00     0.011 A 
ENDBRANCH   9  22
BRANCH   7  29
HETATM   29  C   UNL     1     -43.288  60.050 -58.836  1.00  0.00     0.085 C 
BRANCH  29  30
HETATM   30  C   UNL     1     -42.019  60.553 -59.522  1.00  0.00     0.034 C 
BRANCH  30  31
HETATM   31  C   UNL     1     -41.475  61.839 -58.909  1.00  0.00     0.164 C 
BRANCH  31  32
HETATM   32  O   UNL     1     -40.790  61.534 -57.698  1.00  0.00    -0.401 OA
HETATM   33  H   UNL     1     -40.053  60.941 -57.919  1.00  0.00     0.209 HD
ENDBRANCH  31  32
ENDBRANCH  30  31
ENDBRANCH  29  30
ENDBRANCH   7  29
TORSDOF 7
ENDMDL
MODEL 6
REMARK VINA RESULT:      -7.6      3.639      5.504
REMARK  7 active torsions:
REMARK  status: ('A' for Active; 'I' for Inactive)
REMARK    1  A    between atoms: C_7  and  C_8 
REMARK    2  A    between atoms: C_8  and  C_9 
REMARK    3  A    between atoms: C_9  and  C_10 
REMARK    4  A    between atoms: C_10  and  O_11 
REMARK    5  A    between atoms: C_13  and  C_14 
REMARK    6  A    between atoms: C_21  and  C_22 
REMARK       I    between atoms: C_22  and  N_23 
REMARK    7  A    between atoms: N_23  and  C_24 
ROOT
HETATM    1  C   UNL     1     -43.170  55.076 -57.658  1.00  0.00     0.070 C 
HETATM    2  C   UNL     1     -42.808  56.428 -57.094  1.00  0.00     0.037 A 
HETATM    3  N   UNL     1     -42.935  57.499 -57.971  1.00  0.00    -0.192 N 
HETATM    4  C   UNL     1     -42.594  58.762 -57.655  1.00  0.00     0.726 A 
HETATM    5  N   UNL     1     -42.148  59.036 -56.393  1.00  0.00    -0.083 N 
HETATM    6  N   UNL     1     -41.722  60.313 -56.289  1.00  0.00    -0.140 NA
HETATM    7  C   UNL     1     -42.060  60.786 -57.499  1.00  0.00     0.166 A 
HETATM    8  N   UNL     1     -42.578  59.857 -58.370  1.00  0.00    -0.046 NA
HETATM    9  C   UNL     1     -42.028  58.037 -55.325  1.00  0.00     0.202 A 
HETATM   10  C   UNL     1     -42.364  56.639 -55.829  1.00  0.00     0.062 A 
HETATM   11  H   UNL     1     -43.266  57.304 -58.913  1.00  0.00     0.184 HD
ENDROOT
BRANCH  10  12
HETATM   12  C   UNL     1     -42.294  55.509 -54.860  1.00  0.00     0.256 C 
HETATM   13  N   UNL     1     -41.007  55.105 -54.573  1.00  0.00    -0.323 N 
HETATM   14  H   UNL     1     -40.239  55.602 -55.001  1.00  0.00     0.169 HD
HETATM   15  O   UNL     1     -43.332  55.044 -54.407  1.00  0.00    -0.267 OA
BRANCH  13  16
HETATM   16  C   UNL     1     -40.622  54.033 -53.737  1.00  0.00     0.035 A 
HETATM   17  C   UNL     1     -40.650  54.081 -52.341  1.00  0.00     0.029 A 
HETATM   18  C   UNL     1     -40.275  52.965 -51.586  1.00  0.00     0.002 A 
HETATM   19  C   UNL     1     -39.859  51.796 -52.218  1.00  0.00     0.000 A 
HETATM   20  C   UNL     1     -39.823  51.738 -53.608  1.00  0.00     0.002 A 
HETATM   21  C   UNL     1     -40.209  52.849 -54.363  1.00  0.00     0.029 A 
ENDBRANCH  13  16
ENDBRANCH  10  12
BRANCH   9  22
HETATM   22  C   UNL     1     -42.838  58.487 -54.111  1.00  0.00    -0.028 A 
HETATM   23  C   UNL     1     -42.251  58.644 -52.844  1.00  0.00     0.011 A 
HETATM   24  C   UNL     1     -43.025  59.024 -51.743  1.00  0.00     0.019 A 
HETATM   25  C   UNL     1     -44.393  59.235 -51.897  1.00  0.00     0.011 A 
HETATM   26 BR   UNL     1     -45.441  59.736 -50.406  1.00  0.00    -0.051 Br
HETATM   27  C   UNL     1     -44.996  59.070 -53.141  1.00  0.00     0.019 A 
HETATM   28  C   UNL     1     -44.223  58.698 -54.241  1.00  0.00     0.011 A 
ENDBRANCH   9  22
BRANCH   7  29
HETATM   29  C   UNL     1     -41.897  62.214 -57.866  1.00  0.00     0.085 C 
BRANCH  29  30
HETATM   30  C   UNL     1     -40.560  62.508 -58.544  1.00  0.00     0.034 C 
BRANCH  30  31
HETATM   31  C   UNL     1     -40.684  62.719 -60.049  1.00  0.00     0.164 C 
BRANCH  31  32
HETATM   32  O   UNL     1     -41.200  61.537 -60.654  1.00  0.00    -0.401 OA
HETATM   33  H   UNL     1     -41.704  61.057 -59.976  1.00  0.00     0.209 HD
ENDBRANCH  31  32
ENDBRANCH  30  31
ENDBRANCH  29  30
ENDBRANCH   7  29
TORSDOF 7
ENDMDL
MODEL 7
REMARK VINA RESULT:      -7.6      3.283      5.008
REMARK  7 active torsions:
REMARK  status: ('A' for Active; 'I' for Inactive)
REMARK    1  A    between atoms: C_7  and  C_8 
REMARK    2  A    between atoms: C_8  and  C_9 
REMARK    3  A    between atoms: C_9  and  C_10 
REMARK    4  A    between atoms: C_10  and  O_11 
REMARK    5  A    between atoms: C_13  and  C_14 
REMARK    6  A    between atoms: C_21  and  C_22 
REMARK       I    between atoms: C_22  and  N_23 
REMARK    7  A    between atoms: N_23  and  C_24 
ROOT
HETATM    1  C   UNL     1     -43.049  54.209 -55.480  1.00  0.00     0.070 C 
HETATM    2  C   UNL     1     -42.763  55.690 -55.513  1.00  0.00     0.037 A 
HETATM    3  N   UNL     1     -42.769  56.276 -56.774  1.00  0.00    -0.192 N 
HETATM    4  C   UNL     1     -42.471  57.570 -56.992  1.00  0.00     0.726 A 
HETATM    5  N   UNL     1     -42.197  58.380 -55.926  1.00  0.00    -0.083 N 
HETATM    6  N   UNL     1     -41.786  59.601 -56.330  1.00  0.00    -0.140 NA
HETATM    7  C   UNL     1     -41.958  59.493 -57.657  1.00  0.00     0.166 A 
HETATM    8  N   UNL     1     -42.356  58.255 -58.100  1.00  0.00    -0.046 NA
HETATM    9  C   UNL     1     -42.224  57.940 -54.526  1.00  0.00     0.202 A 
HETATM   10  C   UNL     1     -42.492  56.444 -54.417  1.00  0.00     0.062 A 
HETATM   11  H   UNL     1     -42.971  55.680 -57.572  1.00  0.00     0.184 HD
ENDROOT
BRANCH  10  12
HETATM   12  C   UNL     1     -42.555  55.841 -53.057  1.00  0.00     0.256 C 
HETATM   13  N   UNL     1     -41.325  55.464 -52.561  1.00  0.00    -0.323 N 
HETATM   14  H   UNL     1     -40.504  55.643 -53.121  1.00  0.00     0.169 HD
HETATM   15  O   UNL     1     -43.641  55.731 -52.500  1.00  0.00    -0.267 OA
BRANCH  13  16
HETATM   16  C   UNL     1     -41.069  54.822 -51.328  1.00  0.00     0.035 A 
HETATM   17  C   UNL     1     -40.644  53.497 -51.210  1.00  0.00     0.029 A 
HETATM   18  C   UNL     1     -40.390  52.943 -49.951  1.00  0.00     0.002 A 
HETATM   19  C   UNL     1     -40.567  53.705 -48.799  1.00  0.00     0.000 A 
HETATM   20  C   UNL     1     -40.994  55.026 -48.905  1.00  0.00     0.002 A 
HETATM   21  C   UNL     1     -41.238  55.583 -50.163  1.00  0.00     0.029 A 
ENDBRANCH  13  16
ENDBRANCH  10  12
BRANCH   9  22
HETATM   22  C   UNL     1     -43.188  58.818 -53.733  1.00  0.00    -0.028 A 
HETATM   23  C   UNL     1     -44.555  58.897 -54.052  1.00  0.00     0.011 A 
HETATM   24  C   UNL     1     -45.408  59.736 -53.329  1.00  0.00     0.019 A 
HETATM   25  C   UNL     1     -44.900  60.514 -52.293  1.00  0.00     0.011 A 
HETATM   26 BR   UNL     1     -46.052  61.659 -51.324  1.00  0.00    -0.051 Br
HETATM   27  C   UNL     1     -43.547  60.463 -51.970  1.00  0.00     0.019 A 
HETATM   28  C   UNL     1     -42.696  59.620 -52.686  1.00  0.00     0.011 A 
ENDBRANCH   9  22
BRANCH   7  29
HETATM   29  C   UNL     1     -41.744  60.635 -58.580  1.00  0.00     0.085 C 
BRANCH  29  30
HETATM   30  C   UNL     1     -42.611  60.561 -59.835  1.00  0.00     0.034 C 
BRANCH  30  31
HETATM   31  C   UNL     1     -41.827  60.167 -61.083  1.00  0.00     0.164 C 
BRANCH  31  32
HETATM   32  O   UNL     1     -41.615  58.759 -61.088  1.00  0.00    -0.401 OA
HETATM   33  H   UNL     1     -40.768  58.591 -61.531  1.00  0.00     0.209 HD
ENDBRANCH  31  32
ENDBRANCH  30  31
ENDBRANCH  29  30
ENDBRANCH   7  29
TORSDOF 7
ENDMDL
MODEL 8
REMARK VINA RESULT:      -7.5      4.042      6.232
REMARK  7 active torsions:
REMARK  status: ('A' for Active; 'I' for Inactive)
REMARK    1  A    between atoms: C_7  and  C_8 
REMARK    2  A    between atoms: C_8  and  C_9 
REMARK    3  A    between atoms: C_9  and  C_10 
REMARK    4  A    between atoms: C_10  and  O_11 
REMARK    5  A    between atoms: C_13  and  C_14 
REMARK    6  A    between atoms: C_21  and  C_22 
REMARK       I    between atoms: C_22  and  N_23 
REMARK    7  A    between atoms: N_23  and  C_24 
ROOT
HETATM    1  C   UNL     1     -43.452  55.499 -58.443  1.00  0.00     0.070 C 
HETATM    2  C   UNL     1     -42.891  56.856 -58.095  1.00  0.00     0.037 A 
HETATM    3  N   UNL     1     -42.892  57.789 -59.127  1.00  0.00    -0.192 N 
HETATM    4  C   UNL     1     -42.372  59.025 -59.010  1.00  0.00     0.726 A 
HETATM    5  N   UNL     1     -41.860  59.421 -57.807  1.00  0.00    -0.083 N 
HETATM    6  N   UNL     1     -41.260  60.627 -57.903  1.00  0.00    -0.140 NA
HETATM    7  C   UNL     1     -41.560  60.953 -59.169  1.00  0.00     0.166 A 
HETATM    8  N   UNL     1     -42.224  59.985 -59.885  1.00  0.00    -0.046 NA
HETATM    9  C   UNL     1     -41.852  58.589 -56.598  1.00  0.00     0.202 A 
HETATM   10  C   UNL     1     -42.391  57.192 -56.880  1.00  0.00     0.062 A 
HETATM   11  H   UNL     1     -43.271  57.502 -60.025  1.00  0.00     0.184 HD
ENDROOT
BRANCH  10  12
HETATM   12  C   UNL     1     -42.452  56.224 -55.749  1.00  0.00     0.256 C 
HETATM   13  N   UNL     1     -41.226  55.691 -55.410  1.00  0.00    -0.323 N 
HETATM   14  H   UNL     1     -40.409  56.003 -55.913  1.00  0.00     0.169 HD
HETATM   15  O   UNL     1     -43.532  55.984 -55.224  1.00  0.00    -0.267 OA
BRANCH  13  16
HETATM   16  C   UNL     1     -40.972  54.714 -54.420  1.00  0.00     0.035 A 
HETATM   17  C   UNL     1     -40.512  53.425 -54.694  1.00  0.00     0.029 A 
HETATM   18  C   UNL     1     -40.262  52.525 -53.653  1.00  0.00     0.002 A 
HETATM   19  C   UNL     1     -40.479  52.902 -52.330  1.00  0.00     0.000 A 
HETATM   20  C   UNL     1     -40.942  54.183 -52.046  1.00  0.00     0.002 A 
HETATM   21  C   UNL     1     -41.181  55.087 -53.086  1.00  0.00     0.029 A 
ENDBRANCH  13  16
ENDBRANCH  10  12
BRANCH   9  22
HETATM   22  C   UNL     1     -42.560  59.327 -55.465  1.00  0.00    -0.028 A 
HETATM   23  C   UNL     1     -43.927  59.648 -55.528  1.00  0.00     0.011 A 
HETATM   24  C   UNL     1     -44.542  60.355 -54.490  1.00  0.00     0.019 A 
HETATM   25  C   UNL     1     -43.793  60.760 -53.389  1.00  0.00     0.011 A 
HETATM   26 BR   UNL     1     -44.621  61.727 -51.991  1.00  0.00    -0.051 Br
HETATM   27  C   UNL     1     -42.434  60.465 -53.313  1.00  0.00     0.019 A 
HETATM   28  C   UNL     1     -41.822  59.753 -54.345  1.00  0.00     0.011 A 
ENDBRANCH   9  22
BRANCH   7  29
HETATM   29  C   UNL     1     -41.212  62.272 -59.753  1.00  0.00     0.085 C 
BRANCH  29  30
HETATM   30  C   UNL     1     -39.884  62.823 -59.235  1.00  0.00     0.034 C 
BRANCH  30  31
HETATM   31  C   UNL     1     -40.047  64.079 -58.385  1.00  0.00     0.164 C 
BRANCH  31  32
HETATM   32  O   UNL     1     -41.006  63.838 -57.360  1.00  0.00    -0.401 OA
HETATM   33  H   UNL     1     -40.522  63.553 -56.567  1.00  0.00     0.209 HD
ENDBRANCH  31  32
ENDBRANCH  30  31
ENDBRANCH  29  30
ENDBRANCH   7  29
TORSDOF 7
ENDMDL
MODEL 9
REMARK VINA RESULT:      -7.3      2.504      3.177
REMARK  7 active torsions:
REMARK  status: ('A' for Active; 'I' for Inactive)
REMARK    1  A    between atoms: C_7  and  C_8 
REMARK    2  A    between atoms: C_8  and  C_9 
REMARK    3  A    between atoms: C_9  and  C_10 
REMARK    4  A    between atoms: C_10  and  O_11 
REMARK    5  A    between atoms: C_13  and  C_14 
REMARK    6  A    between atoms: C_21  and  C_22 
REMARK       I    between atoms: C_22  and  N_23 
REMARK    7  A    between atoms: N_23  and  C_24 
ROOT
HETATM    1  C   UNL     1     -41.927  60.433 -56.547  1.00  0.00     0.070 C 
HETATM    2  C   UNL     1     -42.450  59.031 -56.738  1.00  0.00     0.037 A 
HETATM    3  N   UNL     1     -42.473  58.571 -58.051  1.00  0.00    -0.192 N 
HETATM    4  C   UNL     1     -42.967  57.372 -58.408  1.00  0.00     0.726 A 
HETATM    5  N   UNL     1     -43.426  56.524 -57.440  1.00  0.00    -0.083 N 
HETATM    6  N   UNL     1     -44.009  55.433 -57.980  1.00  0.00    -0.140 NA
HETATM    7  C   UNL     1     -43.752  55.633 -59.281  1.00  0.00     0.166 A 
HETATM    8  N   UNL     1     -43.133  56.822 -59.583  1.00  0.00    -0.046 NA
HETATM    9  C   UNL     1     -43.402  56.822 -56.003  1.00  0.00     0.202 A 
HETATM   10  C   UNL     1     -42.898  58.235 -55.735  1.00  0.00     0.062 A 
HETATM   11  H   UNL     1     -42.134  59.196 -58.778  1.00  0.00     0.184 HD
ENDROOT
BRANCH  10  12
HETATM   12  C   UNL     1     -42.810  58.690 -54.319  1.00  0.00     0.256 C 
HETATM   13  N   UNL     1     -41.516  58.849 -53.868  1.00  0.00    -0.323 N 
HETATM   14  H   UNL     1     -40.757  58.679 -54.512  1.00  0.00     0.169 HD
HETATM   15  O   UNL     1     -43.841  58.884 -53.687  1.00  0.00    -0.267 OA
BRANCH  13  16
HETATM   16  C   UNL     1     -41.113  59.217 -52.565  1.00  0.00     0.035 A 
HETATM   17  C   UNL     1     -41.937  59.868 -51.646  1.00  0.00     0.029 A 
HETATM   18  C   UNL     1     -41.467  60.177 -50.365  1.00  0.00     0.002 A 
HETATM   19  C   UNL     1     -40.166  59.847 -49.996  1.00  0.00     0.000 A 
HETATM   20  C   UNL     1     -39.333  59.202 -50.905  1.00  0.00     0.002 A 
HETATM   21  C   UNL     1     -39.807  58.883 -52.181  1.00  0.00     0.029 A 
ENDBRANCH  13  16
ENDBRANCH  10  12
BRANCH   9  22
HETATM   22  C   UNL     1     -42.638  55.724 -55.267  1.00  0.00    -0.028 A 
HETATM   23  C   UNL     1     -43.237  54.951 -54.257  1.00  0.00     0.011 A 
HETATM   24  C   UNL     1     -42.503  53.976 -53.577  1.00  0.00     0.019 A 
HETATM   25  C   UNL     1     -41.161  53.775 -53.888  1.00  0.00     0.011 A 
HETATM   26 BR   UNL     1     -40.164  52.466 -52.958  1.00  0.00    -0.051 Br
HETATM   27  C   UNL     1     -40.544  54.540 -54.875  1.00  0.00     0.019 A 
HETATM   28  C   UNL     1     -41.279  55.509 -55.560  1.00  0.00     0.011 A 
ENDBRANCH   9  22
BRANCH   7  29
HETATM   29  C   UNL     1     -44.101  54.633 -60.321  1.00  0.00     0.085 C 
BRANCH  29  30
HETATM   30  C   UNL     1     -45.161  55.134 -61.301  1.00  0.00     0.034 C 
BRANCH  30  31
HETATM   31  C   UNL     1     -46.358  55.779 -60.610  1.00  0.00     0.164 C 
BRANCH  31  32
HETATM   32  O   UNL     1     -46.850  56.848 -61.412  1.00  0.00    -0.401 OA
HETATM   33  H   UNL     1     -46.424  56.782 -62.283  1.00  0.00     0.209 HD
ENDBRANCH  31  32
ENDBRANCH  30  31
ENDBRANCH  29  30
ENDBRANCH   7  29
TORSDOF 7
ENDMDL
MODEL 10
REMARK VINA RESULT:      -7.3      3.515      6.990
REMARK  7 active torsions:
REMARK  status: ('A' for Active; 'I' for Inactive)
REMARK    1  A    between atoms: C_7  and  C_8 
REMARK    2  A    between atoms: C_8  and  C_9 
REMARK    3  A    between atoms: C_9  and  C_10 
REMARK    4  A    between atoms: C_10  and  O_11 
REMARK    5  A    between atoms: C_13  and  C_14 
REMARK    6  A    between atoms: C_21  and  C_22 
REMARK       I    between atoms: C_22  and  N_23 
REMARK    7  A    between atoms: N_23  and  C_24 
ROOT
HETATM    1  C   UNL     1     -43.382  57.272 -57.305  1.00  0.00     0.070 C 
HETATM    2  C   UNL     1     -42.834  56.600 -56.070  1.00  0.00     0.037 A 
HETATM    3  N   UNL     1     -42.048  55.476 -56.296  1.00  0.00    -0.192 N 
HETATM    4  C   UNL     1     -41.533  54.719 -55.309  1.00  0.00     0.726 A 
HETATM    5  N   UNL     1     -41.737  55.090 -54.010  1.00  0.00    -0.083 N 
HETATM    6  N   UNL     1     -41.275  54.153 -53.154  1.00  0.00    -0.140 NA
HETATM    7  C   UNL     1     -40.691  53.301 -54.011  1.00  0.00     0.166 A 
HETATM    8  N   UNL     1     -40.848  53.606 -55.343  1.00  0.00    -0.046 NA
HETATM    9  C   UNL     1     -42.476  56.289 -53.599  1.00  0.00     0.202 A 
HETATM   10  C   UNL     1     -43.075  57.012 -54.799  1.00  0.00     0.062 A 
HETATM   11  H   UNL     1     -41.892  55.193 -57.260  1.00  0.00     0.184 HD
ENDROOT
BRANCH  10  12
HETATM   12  C   UNL     1     -43.855  58.257 -54.550  1.00  0.00     0.256 C 
HETATM   13  N   UNL     1     -43.151  59.413 -54.812  1.00  0.00    -0.323 N 
HETATM   14  H   UNL     1     -42.209  59.334 -55.166  1.00  0.00     0.169 HD
HETATM   15  O   UNL     1     -45.010  58.170 -54.152  1.00  0.00    -0.267 OA
BRANCH  13  16
HETATM   16  C   UNL     1     -43.601  60.740 -54.623  1.00  0.00     0.035 A 
HETATM   17  C   UNL     1     -43.299  61.516 -53.503  1.00  0.00     0.029 A 
HETATM   18  C   UNL     1     -43.764  62.831 -53.405  1.00  0.00     0.002 A 
HETATM   19  C   UNL     1     -44.545  63.379 -54.420  1.00  0.00     0.000 A 
HETATM   20  C   UNL     1     -44.856  62.613 -55.539  1.00  0.00     0.002 A 
HETATM   21  C   UNL     1     -44.381  61.302 -55.643  1.00  0.00     0.029 A 
ENDBRANCH  13  16
ENDBRANCH  10  12
BRANCH   9  22
HETATM   22  C   UNL     1     -41.588  57.158 -52.713  1.00  0.00    -0.028 A 
HETATM   23  C   UNL     1     -41.807  57.274 -51.329  1.00  0.00     0.011 A 
HETATM   24  C   UNL     1     -40.998  58.104 -50.547  1.00  0.00     0.019 A 
HETATM   25  C   UNL     1     -39.975  58.836 -51.143  1.00  0.00     0.011 A 
HETATM   26 BR   UNL     1     -38.890  59.969 -50.088  1.00  0.00    -0.051 Br
HETATM   27  C   UNL     1     -39.750  58.747 -52.515  1.00  0.00     0.019 A 
HETATM   28  C   UNL     1     -40.553  57.912 -53.294  1.00  0.00     0.011 A 
ENDBRANCH   9  22
BRANCH   7  29
HETATM   29  C   UNL     1     -39.920  52.120 -53.553  1.00  0.00     0.085 C 
BRANCH  29  30
HETATM   30  C   UNL     1     -40.367  50.819 -54.218  1.00  0.00     0.034 C 
BRANCH  30  31
HETATM   31  C   UNL     1     -39.329  49.706 -54.118  1.00  0.00     0.164 C 
BRANCH  31  32
HETATM   32  O   UNL     1     -39.448  49.057 -52.856  1.00  0.00    -0.401 OA
HETATM   33  H   UNL     1     -39.000  49.613 -52.197  1.00  0.00     0.209 HD
ENDBRANCH  31  32
ENDBRANCH  30  31
ENDBRANCH  29  30
ENDBRANCH   7  29
TORSDOF 7
ENDMDL
