MODEL 1
REMARK VINA RESULT:      -7.2      0.000      0.000
REMARK  8 active torsions:
REMARK  status: ('A' for Active; 'I' for Inactive)
REMARK    1  A    between atoms: N_4  and  C_5 
REMARK    2  A    between atoms: C_5  and  C_6 
REMARK    3  A    between atoms: C_6  and  C_7 
REMARK       I    between atoms: C_7  and  N_8 
REMARK    4  A    between atoms: N_8  and  N_9 
REMARK    5  A    between atoms: N_9  and  C_10 
REMARK    6  A    between atoms: C_10  and  N_11 
REMARK    7  A    between atoms: N_11  and  C_12 
REMARK    8  A    between atoms: C_13  and  O_14 
ROOT
HETATM    1  C   UNL     1     -42.048  55.116 -55.371  1.00  0.00     0.237 C 
HETATM    2  N   UNL     1     -42.931  54.938 -54.325  1.00  0.00    -0.268 N 
HETATM    3  O   UNL     1     -42.396  55.536 -56.472  1.00  0.00    -0.272 OA
HETATM    4  H   UNL     1     -42.616  54.807 -53.365  1.00  0.00     0.190 HD
ENDROOT
BRANCH   2   5
HETATM    5  N   UNL     1     -44.243  55.419 -54.491  1.00  0.00    -0.274 N 
HETATM    6  H   UNL     1     -44.741  54.982 -55.268  1.00  0.00     0.189 HD
BRANCH   5   7
HETATM    7  C   UNL     1     -44.560  56.741 -54.164  1.00  0.00     0.191 C 
HETATM    8  S   UNL     1     -45.017  57.861 -55.326  1.00  0.00    -0.039 SA
BRANCH   7   9
HETATM    9  N   UNL     1     -44.365  56.944 -52.809  1.00  0.00    -0.330 N 
HETATM   10  H   UNL     1     -45.097  56.565 -52.215  1.00  0.00     0.168 HD
BRANCH   9  11
HETATM   11  C   UNL     1     -43.268  57.416 -52.047  1.00  0.00     0.068 A 
HETATM   12  C   UNL     1     -42.535  56.436 -51.336  1.00  0.00     0.095 A 
HETATM   13  C   UNL     1     -41.452  56.815 -50.538  1.00  0.00     0.039 A 
HETATM   14  C   UNL     1     -41.098  58.160 -50.433  1.00  0.00     0.003 A 
HETATM   15  C   UNL     1     -41.830  59.129 -51.114  1.00  0.00     0.002 A 
HETATM   16  C   UNL     1     -42.915  58.759 -51.912  1.00  0.00     0.032 A 
BRANCH  12  17
HETATM   17  O   UNL     1     -42.976  55.140 -51.497  1.00  0.00    -0.354 OA
HETATM   18  C   UNL     1     -43.728  54.576 -50.429  1.00  0.00     0.210 C 
ENDBRANCH  12  17
ENDBRANCH   9  11
ENDBRANCH   7   9
ENDBRANCH   5   7
ENDBRANCH   2   5
BRANCH   1  19
HETATM   19  C   UNL     1     -40.625  54.776 -55.013  1.00  0.00     0.126 C 
BRANCH  19  20
HETATM   20  C   UNL     1     -40.402  53.272 -55.085  1.00  0.00     0.160 C 
BRANCH  20  21
HETATM   21  N   UNL     1     -40.217  52.695 -53.764  1.00  0.00    -0.272 N 
HETATM   22  N   UNL     1     -40.328  53.509 -52.694  1.00  0.00    -0.176 NA
HETATM   23  C   UNL     1     -40.114  52.706 -51.643  1.00  0.00     0.070 A 
HETATM   24  C   UNL     1     -40.162  53.254 -50.266  1.00  0.00     0.074 C 
HETATM   25  C   UNL     1     -39.867  51.386 -52.063  1.00  0.00     0.060 A 
HETATM   26  C   UNL     1     -39.928  51.393 -53.437  1.00  0.00     0.046 A 
HETATM   27 BR   UNL     1     -39.530  49.934 -50.928  1.00  0.00    -0.047 Br
HETATM   28  C   UNL     1     -39.755  50.311 -54.437  1.00  0.00     0.071 C 
ENDBRANCH  20  21
ENDBRANCH  19  20
ENDBRANCH   1  19
TORSDOF 8
ENDMDL
MODEL 2
REMARK VINA RESULT:      -7.1      3.634      5.141
REMARK  8 active torsions:
REMARK  status: ('A' for Active; 'I' for Inactive)
REMARK    1  A    between atoms: N_4  and  C_5 
REMARK    2  A    between atoms: C_5  and  C_6 
REMARK    3  A    between atoms: C_6  and  C_7 
REMARK       I    between atoms: C_7  and  N_8 
REMARK    4  A    between atoms: N_8  and  N_9 
REMARK    5  A    between atoms: N_9  and  C_10 
REMARK    6  A    between atoms: C_10  and  N_11 
REMARK    7  A    between atoms: N_11  and  C_12 
REMARK    8  A    between atoms: C_13  and  O_14 
ROOT
HETATM    1  C   UNL     1     -42.086  54.991 -55.319  1.00  0.00     0.237 C 
HETATM    2  N   UNL     1     -42.036  55.402 -56.636  1.00  0.00    -0.268 N 
HETATM    3  O   UNL     1     -43.142  54.779 -54.727  1.00  0.00    -0.272 OA
HETATM    4  H   UNL     1     -41.179  55.362 -57.185  1.00  0.00     0.190 HD
ENDROOT
BRANCH   2   5
HETATM    5  N   UNL     1     -43.242  55.412 -57.362  1.00  0.00    -0.274 N 
HETATM    6  H   UNL     1     -43.919  54.722 -57.034  1.00  0.00     0.189 HD
BRANCH   5   7
HETATM    7  C   UNL     1     -43.249  55.750 -58.719  1.00  0.00     0.191 C 
HETATM    8  S   UNL     1     -44.389  55.134 -59.785  1.00  0.00    -0.039 SA
BRANCH   7   9
HETATM    9  N   UNL     1     -42.171  56.570 -58.999  1.00  0.00    -0.330 N 
HETATM   10  H   UNL     1     -41.285  56.083 -59.109  1.00  0.00     0.168 HD
BRANCH   9  11
HETATM   11  C   UNL     1     -42.057  57.939 -59.346  1.00  0.00     0.068 A 
HETATM   12  C   UNL     1     -42.004  58.853 -58.267  1.00  0.00     0.095 A 
HETATM   13  C   UNL     1     -41.917  60.226 -58.517  1.00  0.00     0.039 A 
HETATM   14  C   UNL     1     -41.893  60.697 -59.830  1.00  0.00     0.003 A 
HETATM   15  C   UNL     1     -41.967  59.802 -60.893  1.00  0.00     0.002 A 
HETATM   16  C   UNL     1     -42.057  58.428 -60.652  1.00  0.00     0.032 A 
BRANCH  12  17
HETATM   17  O   UNL     1     -42.047  58.285 -57.012  1.00  0.00    -0.354 OA
HETATM   18  C   UNL     1     -42.829  58.953 -56.028  1.00  0.00     0.210 C 
ENDBRANCH  12  17
ENDBRANCH   9  11
ENDBRANCH   7   9
ENDBRANCH   5   7
ENDBRANCH   2   5
BRANCH   1  19
HETATM   19  C   UNL     1     -40.725  54.800 -54.704  1.00  0.00     0.126 C 
BRANCH  19  20
HETATM   20  C   UNL     1     -40.274  53.354 -54.846  1.00  0.00     0.160 C 
BRANCH  20  21
HETATM   21  N   UNL     1     -40.136  52.707 -53.551  1.00  0.00    -0.272 N 
HETATM   22  N   UNL     1     -40.297  53.461 -52.444  1.00  0.00    -0.176 NA
HETATM   23  C   UNL     1     -40.117  52.605 -51.431  1.00  0.00     0.070 A 
HETATM   24  C   UNL     1     -40.225  53.077 -50.029  1.00  0.00     0.074 C 
HETATM   25  C   UNL     1     -39.838  51.311 -51.910  1.00  0.00     0.060 A 
HETATM   26  C   UNL     1     -39.845  51.392 -53.284  1.00  0.00     0.046 A 
HETATM   27 BR   UNL     1     -39.530  49.803 -50.843  1.00  0.00    -0.047 Br
HETATM   28  C   UNL     1     -39.620  50.367 -54.333  1.00  0.00     0.071 C 
ENDBRANCH  20  21
ENDBRANCH  19  20
ENDBRANCH   1  19
TORSDOF 8
ENDMDL
MODEL 3
REMARK VINA RESULT:      -6.9      3.421      6.693
REMARK  8 active torsions:
REMARK  status: ('A' for Active; 'I' for Inactive)
REMARK    1  A    between atoms: N_4  and  C_5 
REMARK    2  A    between atoms: C_5  and  C_6 
REMARK    3  A    between atoms: C_6  and  C_7 
REMARK       I    between atoms: C_7  and  N_8 
REMARK    4  A    between atoms: N_8  and  N_9 
REMARK    5  A    between atoms: N_9  and  C_10 
REMARK    6  A    between atoms: C_10  and  N_11 
REMARK    7  A    between atoms: N_11  and  C_12 
REMARK    8  A    between atoms: C_13  and  O_14 
ROOT
HETATM    1  C   UNL     1     -43.346  55.839 -51.949  1.00  0.00     0.237 C 
HETATM    2  N   UNL     1     -42.579  54.720 -52.202  1.00  0.00    -0.268 N 
HETATM    3  O   UNL     1     -43.931  56.018 -50.883  1.00  0.00    -0.272 OA
HETATM    4  H   UNL     1     -41.925  54.675 -52.983  1.00  0.00     0.190 HD
ENDROOT
BRANCH   2   5
HETATM    5  N   UNL     1     -42.330  53.843 -51.130  1.00  0.00    -0.274 N 
HETATM    6  H   UNL     1     -43.165  53.619 -50.587  1.00  0.00     0.189 HD
BRANCH   5   7
HETATM    7  C   UNL     1     -41.098  53.863 -50.469  1.00  0.00     0.191 C 
HETATM    8  S   UNL     1     -40.929  54.478 -48.918  1.00  0.00    -0.039 SA
BRANCH   7   9
HETATM    9  N   UNL     1     -40.111  53.380 -51.311  1.00  0.00    -0.330 N 
HETATM   10  H   UNL     1     -39.264  53.941 -51.335  1.00  0.00     0.168 HD
BRANCH   9  11
HETATM   11  C   UNL     1     -39.952  52.166 -52.021  1.00  0.00     0.068 A 
HETATM   12  C   UNL     1     -40.217  52.216 -53.411  1.00  0.00     0.095 A 
HETATM   13  C   UNL     1     -40.109  51.058 -54.186  1.00  0.00     0.039 A 
HETATM   14  C   UNL     1     -39.749  49.849 -53.590  1.00  0.00     0.003 A 
HETATM   15  C   UNL     1     -39.508  49.792 -52.220  1.00  0.00     0.002 A 
HETATM   16  C   UNL     1     -39.616  50.944 -51.438  1.00  0.00     0.032 A 
BRANCH  12  17
HETATM   17  O   UNL     1     -40.579  53.455 -53.895  1.00  0.00    -0.354 OA
HETATM   18  C   UNL     1     -39.894  53.920 -55.053  1.00  0.00     0.210 C 
ENDBRANCH  12  17
ENDBRANCH   9  11
ENDBRANCH   7   9
ENDBRANCH   5   7
ENDBRANCH   2   5
BRANCH   1  19
HETATM   19  C   UNL     1     -43.363  56.820 -53.092  1.00  0.00     0.126 C 
BRANCH  19  20
HETATM   20  C   UNL     1     -42.120  56.655 -53.954  1.00  0.00     0.160 C 
BRANCH  20  21
HETATM   21  N   UNL     1     -42.429  56.781 -55.368  1.00  0.00    -0.272 N 
HETATM   22  N   UNL     1     -42.222  57.976 -55.960  1.00  0.00    -0.176 NA
HETATM   23  C   UNL     1     -42.589  57.784 -57.233  1.00  0.00     0.070 A 
HETATM   24  C   UNL     1     -42.494  58.894 -58.211  1.00  0.00     0.074 C 
HETATM   25  C   UNL     1     -43.028  56.461 -57.435  1.00  0.00     0.060 A 
HETATM   26  C   UNL     1     -42.927  55.825 -56.219  1.00  0.00     0.046 A 
HETATM   27 BR   UNL     1     -43.620  55.753 -59.065  1.00  0.00    -0.047 Br
HETATM   28  C   UNL     1     -43.240  54.436 -55.805  1.00  0.00     0.071 C 
ENDBRANCH  20  21
ENDBRANCH  19  20
ENDBRANCH   1  19
TORSDOF 8
ENDMDL
MODEL 4
REMARK VINA RESULT:      -6.5      3.374      5.831
REMARK  8 active torsions:
REMARK  status: ('A' for Active; 'I' for Inactive)
REMARK    1  A    between atoms: N_4  and  C_5 
REMARK    2  A    between atoms: C_5  and  C_6 
REMARK    3  A    between atoms: C_6  and  C_7 
REMARK       I    between atoms: C_7  and  N_8 
REMARK    4  A    between atoms: N_8  and  N_9 
REMARK    5  A    between atoms: N_9  and  C_10 
REMARK    6  A    between atoms: C_10  and  N_11 
REMARK    7  A    between atoms: N_11  and  C_12 
REMARK    8  A    between atoms: C_13  and  O_14 
ROOT
HETATM    1  C   UNL     1     -42.339  55.761 -54.845  1.00  0.00     0.237 C 
HETATM    2  N   UNL     1     -42.696  56.118 -56.130  1.00  0.00    -0.268 N 
HETATM    3  O   UNL     1     -43.010  56.058 -53.860  1.00  0.00    -0.272 OA
HETATM    4  H   UNL     1     -42.269  55.690 -56.951  1.00  0.00     0.190 HD
ENDROOT
BRANCH   2   5
HETATM    5  N   UNL     1     -43.965  56.696 -56.316  1.00  0.00    -0.274 N 
HETATM    6  H   UNL     1     -44.647  56.056 -56.723  1.00  0.00     0.189 HD
BRANCH   5   7
HETATM    7  C   UNL     1     -44.087  58.060 -56.602  1.00  0.00     0.191 C 
HETATM    8  S   UNL     1     -43.829  59.241 -55.439  1.00  0.00    -0.039 SA
BRANCH   7   9
HETATM    9  N   UNL     1     -44.503  58.225 -57.912  1.00  0.00    -0.330 N 
HETATM   10  H   UNL     1     -44.289  59.134 -58.313  1.00  0.00     0.168 HD
BRANCH   9  11
HETATM   11  C   UNL     1     -45.012  57.333 -58.887  1.00  0.00     0.068 A 
HETATM   12  C   UNL     1     -44.055  56.556 -59.582  1.00  0.00     0.095 A 
HETATM   13  C   UNL     1     -44.466  55.667 -60.579  1.00  0.00     0.039 A 
HETATM   14  C   UNL     1     -45.820  55.552 -60.898  1.00  0.00     0.003 A 
HETATM   15  C   UNL     1     -46.761  56.330 -60.231  1.00  0.00     0.002 A 
HETATM   16  C   UNL     1     -46.359  57.222 -59.235  1.00  0.00     0.032 A 
BRANCH  12  17
HETATM   17  O   UNL     1     -42.746  56.756 -59.200  1.00  0.00    -0.354 OA
HETATM   18  C   UNL     1     -41.878  57.351 -60.157  1.00  0.00     0.210 C 
ENDBRANCH  12  17
ENDBRANCH   9  11
ENDBRANCH   7   9
ENDBRANCH   5   7
ENDBRANCH   2   5
BRANCH   1  19
HETATM   19  C   UNL     1     -41.070  54.951 -54.784  1.00  0.00     0.126 C 
BRANCH  19  20
HETATM   20  C   UNL     1     -40.660  54.711 -53.338  1.00  0.00     0.160 C 
BRANCH  20  21
HETATM   21  N   UNL     1     -40.341  53.314 -53.098  1.00  0.00    -0.272 N 
HETATM   22  N   UNL     1     -40.265  52.487 -54.161  1.00  0.00    -0.176 NA
HETATM   23  C   UNL     1     -39.960  51.295 -53.634  1.00  0.00     0.070 A 
HETATM   24  C   UNL     1     -39.784  50.115 -54.513  1.00  0.00     0.074 C 
HETATM   25  C   UNL     1     -39.847  51.380 -52.233  1.00  0.00     0.060 A 
HETATM   26  C   UNL     1     -40.104  52.689 -51.898  1.00  0.00     0.046 A 
HETATM   27 BR   UNL     1     -39.422  49.956 -51.092  1.00  0.00    -0.047 Br
HETATM   28  C   UNL     1     -40.133  53.383 -50.587  1.00  0.00     0.071 C 
ENDBRANCH  20  21
ENDBRANCH  19  20
ENDBRANCH   1  19
TORSDOF 8
ENDMDL
MODEL 5
REMARK VINA RESULT:      -6.5      4.474      7.404
REMARK  8 active torsions:
REMARK  status: ('A' for Active; 'I' for Inactive)
REMARK    1  A    between atoms: N_4  and  C_5 
REMARK    2  A    between atoms: C_5  and  C_6 
REMARK    3  A    between atoms: C_6  and  C_7 
REMARK       I    between atoms: C_7  and  N_8 
REMARK    4  A    between atoms: N_8  and  N_9 
REMARK    5  A    between atoms: N_9  and  C_10 
REMARK    6  A    between atoms: C_10  and  N_11 
REMARK    7  A    between atoms: N_11  and  C_12 
REMARK    8  A    between atoms: C_13  and  O_14 
ROOT
HETATM    1  C   UNL     1     -43.973  56.532 -55.181  1.00  0.00     0.237 C 
HETATM    2  N   UNL     1     -43.543  55.258 -54.869  1.00  0.00    -0.268 N 
HETATM    3  O   UNL     1     -44.732  57.174 -54.460  1.00  0.00    -0.272 OA
HETATM    4  H   UNL     1     -42.754  54.819 -55.342  1.00  0.00     0.190 HD
ENDROOT
BRANCH   2   5
HETATM    5  N   UNL     1     -43.862  54.757 -53.593  1.00  0.00    -0.274 N 
HETATM    6  H   UNL     1     -44.862  54.769 -53.390  1.00  0.00     0.189 HD
BRANCH   5   7
HETATM    7  C   UNL     1     -42.970  54.914 -52.527  1.00  0.00     0.191 C 
HETATM    8  S   UNL     1     -43.458  55.511 -51.038  1.00  0.00    -0.039 SA
BRANCH   7   9
HETATM    9  N   UNL     1     -41.693  54.574 -52.936  1.00  0.00    -0.330 N 
HETATM   10  H   UNL     1     -41.049  55.358 -53.008  1.00  0.00     0.168 HD
BRANCH   9  11
HETATM   11  C   UNL     1     -41.027  53.336 -53.110  1.00  0.00     0.068 A 
HETATM   12  C   UNL     1     -40.160  52.941 -52.063  1.00  0.00     0.095 A 
HETATM   13  C   UNL     1     -39.443  51.746 -52.162  1.00  0.00     0.039 A 
HETATM   14  C   UNL     1     -39.572  50.945 -53.297  1.00  0.00     0.003 A 
HETATM   15  C   UNL     1     -40.408  51.341 -54.338  1.00  0.00     0.002 A 
HETATM   16  C   UNL     1     -41.127  52.536 -54.248  1.00  0.00     0.032 A 
BRANCH  12  17
HETATM   17  O   UNL     1     -40.094  53.811 -50.995  1.00  0.00    -0.354 OA
HETATM   18  C   UNL     1     -40.551  53.324 -49.738  1.00  0.00     0.210 C 
ENDBRANCH  12  17
ENDBRANCH   9  11
ENDBRANCH   7   9
ENDBRANCH   5   7
ENDBRANCH   2   5
BRANCH   1  19
HETATM   19  C   UNL     1     -43.392  57.056 -56.468  1.00  0.00     0.126 C 
BRANCH  19  20
HETATM   20  C   UNL     1     -44.378  57.988 -57.158  1.00  0.00     0.160 C 
BRANCH  20  21
HETATM   21  N   UNL     1     -44.987  57.359 -58.317  1.00  0.00    -0.272 N 
HETATM   22  N   UNL     1     -44.356  56.304 -58.873  1.00  0.00    -0.176 NA
HETATM   23  C   UNL     1     -45.143  55.948 -59.896  1.00  0.00     0.070 A 
HETATM   24  C   UNL     1     -44.771  54.798 -60.756  1.00  0.00     0.074 C 
HETATM   25  C   UNL     1     -46.269  56.788 -59.979  1.00  0.00     0.060 A 
HETATM   26  C   UNL     1     -46.153  57.702 -58.957  1.00  0.00     0.046 A 
HETATM   27 BR   UNL     1     -47.637  56.644 -61.251  1.00  0.00    -0.047 Br
HETATM   28  C   UNL     1     -47.023  58.827 -58.538  1.00  0.00     0.071 C 
ENDBRANCH  20  21
ENDBRANCH  19  20
ENDBRANCH   1  19
TORSDOF 8
ENDMDL
MODEL 6
REMARK VINA RESULT:      -6.3      2.912      5.787
REMARK  8 active torsions:
REMARK  status: ('A' for Active; 'I' for Inactive)
REMARK    1  A    between atoms: N_4  and  C_5 
REMARK    2  A    between atoms: C_5  and  C_6 
REMARK    3  A    between atoms: C_6  and  C_7 
REMARK       I    between atoms: C_7  and  N_8 
REMARK    4  A    between atoms: N_8  and  N_9 
REMARK    5  A    between atoms: N_9  and  C_10 
REMARK    6  A    between atoms: C_10  and  N_11 
REMARK    7  A    between atoms: N_11  and  C_12 
REMARK    8  A    between atoms: C_13  and  O_14 
ROOT
HETATM    1  C   UNL     1     -44.711  57.281 -53.711  1.00  0.00     0.237 C 
HETATM    2  N   UNL     1     -44.650  56.239 -54.614  1.00  0.00    -0.268 N 
HETATM    3  O   UNL     1     -44.624  57.116 -52.496  1.00  0.00    -0.272 OA
HETATM    4  H   UNL     1     -44.500  56.392 -55.610  1.00  0.00     0.190 HD
ENDROOT
BRANCH   2   5
HETATM    5  N   UNL     1     -44.307  54.967 -54.119  1.00  0.00    -0.274 N 
HETATM    6  H   UNL     1     -44.909  54.650 -53.359  1.00  0.00     0.189 HD
BRANCH   5   7
HETATM    7  C   UNL     1     -42.975  54.539 -54.128  1.00  0.00     0.191 C 
HETATM    8  S   UNL     1     -41.972  54.775 -55.451  1.00  0.00    -0.039 SA
BRANCH   7   9
HETATM    9  N   UNL     1     -42.695  53.869 -52.950  1.00  0.00    -0.330 N 
HETATM   10  H   UNL     1     -42.995  52.897 -52.934  1.00  0.00     0.168 HD
BRANCH   9  11
HETATM   11  C   UNL     1     -41.916  54.191 -51.813  1.00  0.00     0.068 A 
HETATM   12  C   UNL     1     -40.645  53.572 -51.731  1.00  0.00     0.095 A 
HETATM   13  C   UNL     1     -39.819  53.814 -50.630  1.00  0.00     0.039 A 
HETATM   14  C   UNL     1     -40.249  54.657 -49.605  1.00  0.00     0.003 A 
HETATM   15  C   UNL     1     -41.506  55.251 -49.672  1.00  0.00     0.002 A 
HETATM   16  C   UNL     1     -42.339  55.013 -50.768  1.00  0.00     0.032 A 
BRANCH  12  17
HETATM   17  O   UNL     1     -40.324  52.748 -52.788  1.00  0.00    -0.354 OA
HETATM   18  C   UNL     1     -39.601  51.560 -52.484  1.00  0.00     0.210 C 
ENDBRANCH  12  17
ENDBRANCH   9  11
ENDBRANCH   7   9
ENDBRANCH   5   7
ENDBRANCH   2   5
BRANCH   1  19
HETATM   19  C   UNL     1     -44.861  58.629 -54.367  1.00  0.00     0.126 C 
BRANCH  19  20
HETATM   20  C   UNL     1     -43.496  59.256 -54.613  1.00  0.00     0.160 C 
BRANCH  20  21
HETATM   21  N   UNL     1     -42.837  59.607 -53.366  1.00  0.00    -0.272 N 
HETATM   22  N   UNL     1     -43.348  60.622 -52.641  1.00  0.00    -0.176 NA
HETATM   23  C   UNL     1     -42.545  60.704 -51.572  1.00  0.00     0.070 A 
HETATM   24  C   UNL     1     -42.800  61.722 -50.525  1.00  0.00     0.074 C 
HETATM   25  C   UNL     1     -41.526  59.734 -51.635  1.00  0.00     0.060 A 
HETATM   26  C   UNL     1     -41.721  59.036 -52.804  1.00  0.00     0.046 A 
HETATM   27 BR   UNL     1     -40.190  59.481 -50.346  1.00  0.00    -0.047 Br
HETATM   28  C   UNL     1     -40.977  57.906 -53.413  1.00  0.00     0.071 C 
ENDBRANCH  20  21
ENDBRANCH  19  20
ENDBRANCH   1  19
TORSDOF 8
ENDMDL
MODEL 7
REMARK VINA RESULT:      -6.3      1.625      2.613
REMARK  8 active torsions:
REMARK  status: ('A' for Active; 'I' for Inactive)
REMARK    1  A    between atoms: N_4  and  C_5 
REMARK    2  A    between atoms: C_5  and  C_6 
REMARK    3  A    between atoms: C_6  and  C_7 
REMARK       I    between atoms: C_7  and  N_8 
REMARK    4  A    between atoms: N_8  and  N_9 
REMARK    5  A    between atoms: N_9  and  C_10 
REMARK    6  A    between atoms: C_10  and  N_11 
REMARK    7  A    between atoms: N_11  and  C_12 
REMARK    8  A    between atoms: C_13  and  O_14 
ROOT
HETATM    1  C   UNL     1     -43.192  55.193 -54.195  1.00  0.00     0.237 C 
HETATM    2  N   UNL     1     -43.932  55.874 -55.140  1.00  0.00    -0.268 N 
HETATM    3  O   UNL     1     -43.394  55.296 -52.988  1.00  0.00    -0.272 OA
HETATM    4  H   UNL     1     -43.916  55.624 -56.128  1.00  0.00     0.190 HD
ENDROOT
BRANCH   2   5
HETATM    5  N   UNL     1     -45.066  56.579 -54.695  1.00  0.00    -0.274 N 
HETATM    6  H   UNL     1     -45.879  55.983 -54.538  1.00  0.00     0.189 HD
BRANCH   5   7
HETATM    7  C   UNL     1     -45.283  57.900 -55.099  1.00  0.00     0.191 C 
HETATM    8  S   UNL     1     -45.909  58.278 -56.609  1.00  0.00    -0.039 SA
BRANCH   7   9
HETATM    9  N   UNL     1     -44.845  58.766 -54.113  1.00  0.00    -0.330 N 
HETATM   10  H   UNL     1     -45.572  59.349 -53.707  1.00  0.00     0.168 HD
BRANCH   9  11
HETATM   11  C   UNL     1     -43.621  58.898 -53.412  1.00  0.00     0.068 A 
HETATM   12  C   UNL     1     -43.668  58.638 -52.021  1.00  0.00     0.095 A 
HETATM   13  C   UNL     1     -42.512  58.768 -51.246  1.00  0.00     0.039 A 
HETATM   14  C   UNL     1     -41.314  59.164 -51.839  1.00  0.00     0.003 A 
HETATM   15  C   UNL     1     -41.269  59.441 -53.203  1.00  0.00     0.002 A 
HETATM   16  C   UNL     1     -42.420  59.316 -53.984  1.00  0.00     0.032 A 
BRANCH  12  17
HETATM   17  O   UNL     1     -44.903  58.267 -51.534  1.00  0.00    -0.354 OA
HETATM   18  C   UNL     1     -45.488  59.111 -50.549  1.00  0.00     0.210 C 
ENDBRANCH  12  17
ENDBRANCH   9  11
ENDBRANCH   7   9
ENDBRANCH   5   7
ENDBRANCH   2   5
BRANCH   1  19
HETATM   19  C   UNL     1     -42.143  54.293 -54.797  1.00  0.00     0.126 C 
BRANCH  19  20
HETATM   20  C   UNL     1     -40.862  54.346 -53.978  1.00  0.00     0.160 C 
BRANCH  20  21
HETATM   21  N   UNL     1     -40.454  53.022 -53.538  1.00  0.00    -0.272 N 
HETATM   22  N   UNL     1     -40.257  52.074 -54.476  1.00  0.00    -0.176 NA
HETATM   23  C   UNL     1     -39.895  50.989 -53.780  1.00  0.00     0.070 A 
HETATM   24  C   UNL     1     -39.583  49.722 -54.485  1.00  0.00     0.074 C 
HETATM   25  C   UNL     1     -39.868  51.264 -52.400  1.00  0.00     0.060 A 
HETATM   26  C   UNL     1     -40.240  52.581 -52.255  1.00  0.00     0.046 A 
HETATM   27 BR   UNL     1     -39.404  50.040 -51.060  1.00  0.00    -0.047 Br
HETATM   28  C   UNL     1     -40.395  53.435 -51.052  1.00  0.00     0.071 C 
ENDBRANCH  20  21
ENDBRANCH  19  20
ENDBRANCH   1  19
TORSDOF 8
ENDMDL
MODEL 8
REMARK VINA RESULT:      -6.3      4.442      7.270
REMARK  8 active torsions:
REMARK  status: ('A' for Active; 'I' for Inactive)
REMARK    1  A    between atoms: N_4  and  C_5 
REMARK    2  A    between atoms: C_5  and  C_6 
REMARK    3  A    between atoms: C_6  and  C_7 
REMARK       I    between atoms: C_7  and  N_8 
REMARK    4  A    between atoms: N_8  and  N_9 
REMARK    5  A    between atoms: N_9  and  C_10 
REMARK    6  A    between atoms: C_10  and  N_11 
REMARK    7  A    between atoms: N_11  and  C_12 
REMARK    8  A    between atoms: C_13  and  O_14 
ROOT
HETATM    1  C   UNL     1     -43.952  56.514 -55.147  1.00  0.00     0.237 C 
HETATM    2  N   UNL     1     -43.570  55.288 -54.641  1.00  0.00    -0.268 N 
HETATM    3  O   UNL     1     -44.725  57.266 -54.558  1.00  0.00    -0.272 OA
HETATM    4  H   UNL     1     -42.772  54.773 -55.010  1.00  0.00     0.190 HD
ENDROOT
BRANCH   2   5
HETATM    5  N   UNL     1     -43.957  54.978 -53.324  1.00  0.00    -0.274 N 
HETATM    6  H   UNL     1     -44.968  54.906 -53.204  1.00  0.00     0.189 HD
BRANCH   5   7
HETATM    7  C   UNL     1     -43.193  55.417 -52.238  1.00  0.00     0.191 C 
HETATM    8  S   UNL     1     -43.865  56.285 -50.969  1.00  0.00    -0.039 SA
BRANCH   7   9
HETATM    9  N   UNL     1     -41.865  55.084 -52.438  1.00  0.00    -0.330 N 
HETATM   10  H   UNL     1     -41.272  55.859 -52.723  1.00  0.00     0.168 HD
BRANCH   9  11
HETATM   11  C   UNL     1     -41.105  53.922 -52.162  1.00  0.00     0.068 A 
HETATM   12  C   UNL     1     -40.734  53.137 -53.280  1.00  0.00     0.095 A 
HETATM   13  C   UNL     1     -40.004  51.959 -53.097  1.00  0.00     0.039 A 
HETATM   14  C   UNL     1     -39.647  51.550 -51.812  1.00  0.00     0.003 A 
HETATM   15  C   UNL     1     -40.028  52.309 -50.708  1.00  0.00     0.002 A 
HETATM   16  C   UNL     1     -40.760  53.486 -50.882  1.00  0.00     0.032 A 
BRANCH  12  17
HETATM   17  O   UNL     1     -41.148  53.623 -54.501  1.00  0.00    -0.354 OA
HETATM   18  C   UNL     1     -40.146  54.162 -55.355  1.00  0.00     0.210 C 
ENDBRANCH  12  17
ENDBRANCH   9  11
ENDBRANCH   7   9
ENDBRANCH   5   7
ENDBRANCH   2   5
BRANCH   1  19
HETATM   19  C   UNL     1     -43.301  56.842 -56.466  1.00  0.00     0.126 C 
BRANCH  19  20
HETATM   20  C   UNL     1     -44.118  57.882 -57.219  1.00  0.00     0.160 C 
BRANCH  20  21
HETATM   21  N   UNL     1     -44.810  57.297 -58.356  1.00  0.00    -0.272 N 
HETATM   22  N   UNL     1     -44.217  56.272 -59.002  1.00  0.00    -0.176 NA
HETATM   23  C   UNL     1     -45.076  55.953 -59.978  1.00  0.00     0.070 A 
HETATM   24  C   UNL     1     -44.764  54.844 -60.911  1.00  0.00     0.074 C 
HETATM   25  C   UNL     1     -46.209  56.787 -59.940  1.00  0.00     0.060 A 
HETATM   26  C   UNL     1     -46.022  57.658 -58.892  1.00  0.00     0.046 A 
HETATM   27 BR   UNL     1     -47.668  56.686 -61.112  1.00  0.00    -0.047 Br
HETATM   28  C   UNL     1     -46.864  58.757 -58.361  1.00  0.00     0.071 C 
ENDBRANCH  20  21
ENDBRANCH  19  20
ENDBRANCH   1  19
TORSDOF 8
ENDMDL
MODEL 9
REMARK VINA RESULT:      -6.2      2.318      4.675
REMARK  8 active torsions:
REMARK  status: ('A' for Active; 'I' for Inactive)
REMARK    1  A    between atoms: N_4  and  C_5 
REMARK    2  A    between atoms: C_5  and  C_6 
REMARK    3  A    between atoms: C_6  and  C_7 
REMARK       I    between atoms: C_7  and  N_8 
REMARK    4  A    between atoms: N_8  and  N_9 
REMARK    5  A    between atoms: N_9  and  C_10 
REMARK    6  A    between atoms: C_10  and  N_11 
REMARK    7  A    between atoms: N_11  and  C_12 
REMARK    8  A    between atoms: C_13  and  O_14 
ROOT
HETATM    1  C   UNL     1     -42.794  56.323 -52.251  1.00  0.00     0.237 C 
HETATM    2  N   UNL     1     -42.364  56.992 -53.379  1.00  0.00    -0.268 N 
HETATM    3  O   UNL     1     -43.455  56.863 -51.367  1.00  0.00    -0.272 OA
HETATM    4  H   UNL     1     -42.017  56.502 -54.202  1.00  0.00     0.190 HD
ENDROOT
BRANCH   2   5
HETATM    5  N   UNL     1     -42.854  58.294 -53.590  1.00  0.00    -0.274 N 
HETATM    6  H   UNL     1     -43.481  58.618 -52.852  1.00  0.00     0.189 HD
BRANCH   5   7
HETATM    7  C   UNL     1     -43.061  58.772 -54.888  1.00  0.00     0.191 C 
HETATM    8  S   UNL     1     -44.223  59.931 -55.237  1.00  0.00    -0.039 SA
BRANCH   7   9
HETATM    9  N   UNL     1     -42.234  58.098 -55.769  1.00  0.00    -0.330 N 
HETATM   10  H   UNL     1     -41.341  57.812 -55.377  1.00  0.00     0.168 HD
BRANCH   9  11
HETATM   11  C   UNL     1     -42.431  57.556 -57.063  1.00  0.00     0.068 A 
HETATM   12  C   UNL     1     -42.971  56.249 -57.118  1.00  0.00     0.095 A 
HETATM   13  C   UNL     1     -43.175  55.627 -58.353  1.00  0.00     0.039 A 
HETATM   14  C   UNL     1     -42.837  56.290 -59.533  1.00  0.00     0.003 A 
HETATM   15  C   UNL     1     -42.287  57.567 -59.482  1.00  0.00     0.002 A 
HETATM   16  C   UNL     1     -42.077  58.195 -58.252  1.00  0.00     0.032 A 
BRANCH  12  17
HETATM   17  O   UNL     1     -43.255  55.680 -55.895  1.00  0.00    -0.354 OA
HETATM   18  C   UNL     1     -43.015  54.284 -55.761  1.00  0.00     0.210 C 
ENDBRANCH  12  17
ENDBRANCH   9  11
ENDBRANCH   7   9
ENDBRANCH   5   7
ENDBRANCH   2   5
BRANCH   1  19
HETATM   19  C   UNL     1     -42.398  54.870 -52.234  1.00  0.00     0.126 C 
BRANCH  19  20
HETATM   20  C   UNL     1     -40.920  54.716 -52.562  1.00  0.00     0.160 C 
BRANCH  20  21
HETATM   21  N   UNL     1     -40.502  53.326 -52.509  1.00  0.00    -0.272 N 
HETATM   22  N   UNL     1     -40.353  52.662 -53.674  1.00  0.00    -0.176 NA
HETATM   23  C   UNL     1     -39.968  51.433 -53.309  1.00  0.00     0.070 A 
HETATM   24  C   UNL     1     -39.696  50.401 -54.338  1.00  0.00     0.074 C 
HETATM   25  C   UNL     1     -39.879  51.330 -51.907  1.00  0.00     0.060 A 
HETATM   26  C   UNL     1     -40.234  52.559 -51.401  1.00  0.00     0.046 A 
HETATM   27 BR   UNL     1     -39.364  49.796 -50.963  1.00  0.00    -0.047 Br
HETATM   28  C   UNL     1     -40.331  53.061 -50.009  1.00  0.00     0.071 C 
ENDBRANCH  20  21
ENDBRANCH  19  20
ENDBRANCH   1  19
TORSDOF 8
ENDMDL
MODEL 10
REMARK VINA RESULT:      -6.1      4.327      5.459
REMARK  8 active torsions:
REMARK  status: ('A' for Active; 'I' for Inactive)
REMARK    1  A    between atoms: N_4  and  C_5 
REMARK    2  A    between atoms: C_5  and  C_6 
REMARK    3  A    between atoms: C_6  and  C_7 
REMARK       I    between atoms: C_7  and  N_8 
REMARK    4  A    between atoms: N_8  and  N_9 
REMARK    5  A    between atoms: N_9  and  C_10 
REMARK    6  A    between atoms: C_10  and  N_11 
REMARK    7  A    between atoms: N_11  and  C_12 
REMARK    8  A    between atoms: C_13  and  O_14 
ROOT
HETATM    1  C   UNL     1     -43.812  56.859 -51.092  1.00  0.00     0.237 C 
HETATM    2  N   UNL     1     -43.950  58.226 -50.965  1.00  0.00    -0.268 N 
HETATM    3  O   UNL     1     -44.569  56.060 -50.546  1.00  0.00    -0.272 OA
HETATM    4  H   UNL     1     -43.471  58.880 -51.584  1.00  0.00     0.190 HD
ENDROOT
BRANCH   2   5
HETATM    5  N   UNL     1     -45.105  58.708 -50.322  1.00  0.00    -0.274 N 
HETATM    6  H   UNL     1     -45.930  58.129 -50.481  1.00  0.00     0.189 HD
BRANCH   5   7
HETATM    7  C   UNL     1     -45.289  60.081 -50.131  1.00  0.00     0.191 C 
HETATM    8  S   UNL     1     -45.925  61.071 -51.326  1.00  0.00    -0.039 SA
BRANCH   7   9
HETATM    9  N   UNL     1     -44.811  60.445 -48.884  1.00  0.00    -0.330 N 
HETATM   10  H   UNL     1     -43.942  59.991 -48.615  1.00  0.00     0.168 HD
BRANCH   9  11
HETATM   11  C   UNL     1     -45.178  61.455 -47.961  1.00  0.00     0.068 A 
HETATM   12  C   UNL     1     -46.081  61.070 -46.941  1.00  0.00     0.095 A 
HETATM   13  C   UNL     1     -46.517  62.009 -46.001  1.00  0.00     0.039 A 
HETATM   14  C   UNL     1     -46.070  63.328 -46.073  1.00  0.00     0.003 A 
HETATM   15  C   UNL     1     -45.199  63.715 -47.088  1.00  0.00     0.002 A 
HETATM   16  C   UNL     1     -44.761  62.783 -48.032  1.00  0.00     0.032 A 
BRANCH  12  17
HETATM   17  O   UNL     1     -46.470  59.748 -46.968  1.00  0.00    -0.354 OA
HETATM   18  C   UNL     1     -46.745  59.129 -45.717  1.00  0.00     0.210 C 
ENDBRANCH  12  17
ENDBRANCH   9  11
ENDBRANCH   7   9
ENDBRANCH   5   7
ENDBRANCH   2   5
BRANCH   1  19
HETATM   19  C   UNL     1     -42.668  56.456 -51.986  1.00  0.00     0.126 C 
BRANCH  19  20
HETATM   20  C   UNL     1     -41.492  55.961 -51.157  1.00  0.00     0.160 C 
BRANCH  20  21
HETATM   21  N   UNL     1     -41.010  54.674 -51.628  1.00  0.00    -0.272 N 
HETATM   22  N   UNL     1     -40.976  54.457 -52.959  1.00  0.00    -0.176 NA
HETATM   23  C   UNL     1     -40.495  53.213 -53.080  1.00  0.00     0.070 A 
HETATM   24  C   UNL     1     -40.306  52.615 -54.424  1.00  0.00     0.074 C 
HETATM   25  C   UNL     1     -40.230  52.652 -51.817  1.00  0.00     0.060 A 
HETATM   26  C   UNL     1     -40.575  53.604 -50.885  1.00  0.00     0.046 A 
HETATM   27 BR   UNL     1     -39.536  50.938 -51.516  1.00  0.00    -0.047 Br
HETATM   28  C   UNL     1     -40.521  53.597 -49.403  1.00  0.00     0.071 C 
ENDBRANCH  20  21
ENDBRANCH  19  20
ENDBRANCH   1  19
TORSDOF 8
ENDMDL
