MODEL 1
REMARK VINA RESULT:      -8.4      0.000      0.000
REMARK  5 active torsions:
REMARK  status: ('A' for Active; 'I' for Inactive)
REMARK    1  A    between atoms: C_6  and  C_7 
REMARK    2  A    between atoms: C_7  and  C_8 
REMARK       I    between atoms: C_8  and  N_9 
REMARK    3  A    between atoms: N_9  and  N_10 
REMARK       I    between atoms: N_10  and  C_11 
REMARK    4  A    between atoms: C_11  and  C_12 
REMARK    5  A    between atoms: C_12  and  C_13 
ROOT
HETATM    1  C   UNL     1     -42.461  57.122 -51.940  1.00  0.00     0.243 C 
HETATM    2  N   UNL     1     -41.819  57.553 -53.079  1.00  0.00    -0.267 N 
HETATM    3  O   UNL     1     -43.687  57.139 -51.823  1.00  0.00    -0.271 OA
HETATM    4  H   UNL     1     -40.813  57.427 -53.226  1.00  0.00     0.190 HD
ENDROOT
BRANCH   1   5
HETATM    5  C   UNL     1     -41.563  56.551 -50.873  1.00  0.00     0.183 C 
BRANCH   5   6
HETATM    6  C   UNL     1     -41.088  55.152 -51.148  1.00  0.00     0.116 A 
HETATM    7  N   UNL     1     -40.945  54.745 -52.372  1.00  0.00    -0.227 NA
HETATM    8  C   UNL     1     -40.526  53.458 -52.498  1.00  0.00     0.116 A 
HETATM    9  C   UNL     1     -40.275  52.564 -51.479  1.00  0.00     0.075 A 
HETATM   10  S   UNL     1     -40.246  52.765 -54.024  1.00  0.00    -0.074 SA
HETATM   11  C   UNL     1     -39.855  51.272 -51.955  1.00  0.00    -0.031 A 
HETATM   12  C   UNL     1     -40.468  53.040 -50.122  1.00  0.00     0.260 A 
HETATM   13  C   UNL     1     -39.535  50.109 -51.070  1.00  0.00     0.050 C 
HETATM   14  C   UNL     1     -39.802  51.258 -53.343  1.00  0.00    -0.012 A 
HETATM   15  C   UNL     1     -39.421  50.129 -54.245  1.00  0.00     0.057 C 
HETATM   16  N   UNL     1     -40.858  54.360 -50.044  1.00  0.00    -0.310 N 
HETATM   17  O   UNL     1     -40.316  52.357 -49.115  1.00  0.00    -0.267 OA
HETATM   18  H   UNL     1     -40.992  54.706 -49.105  1.00  0.00     0.170 HD
ENDBRANCH   5   6
ENDBRANCH   1   5
BRANCH   2  19
HETATM   19  N   UNL     1     -42.596  57.821 -54.214  1.00  0.00    -0.267 N 
HETATM   20  C   UNL     1     -42.569  56.880 -55.231  1.00  0.00     0.240 C 
HETATM   21  O   UNL     1     -41.754  55.959 -55.259  1.00  0.00    -0.272 OA
HETATM   22  H   UNL     1     -43.433  58.379 -54.041  1.00  0.00     0.190 HD
BRANCH  20  23
HETATM   23  C   UNL     1     -43.611  57.117 -56.309  1.00  0.00     0.148 C 
BRANCH  23  24
HETATM   24  C   UNL     1     -43.015  57.190 -57.692  1.00  0.00     0.011 A 
HETATM   25  C   UNL     1     -42.417  58.353 -58.199  1.00  0.00     0.043 A 
HETATM   26 CL   UNL     1     -42.286  59.791 -57.249  1.00  0.00    -0.084 Cl
HETATM   27  C   UNL     1     -41.896  58.382 -59.499  1.00  0.00     0.024 A 
HETATM   28  C   UNL     1     -41.968  57.252 -60.312  1.00  0.00     0.005 A 
HETATM   29  C   UNL     1     -42.561  56.092 -59.824  1.00  0.00     0.043 A 
HETATM   30  C   UNL     1     -43.078  56.072 -58.531  1.00  0.00     0.124 A 
HETATM   31  F   UNL     1     -43.637  54.936 -58.087  1.00  0.00    -0.205 F 
ENDBRANCH  23  24
ENDBRANCH  20  23
ENDBRANCH   2  19
TORSDOF 5
ENDMDL
MODEL 2
REMARK VINA RESULT:      -8.3      1.859      2.152
REMARK  5 active torsions:
REMARK  status: ('A' for Active; 'I' for Inactive)
REMARK    1  A    between atoms: C_6  and  C_7 
REMARK    2  A    between atoms: C_7  and  C_8 
REMARK       I    between atoms: C_8  and  N_9 
REMARK    3  A    between atoms: N_9  and  N_10 
REMARK       I    between atoms: N_10  and  C_11 
REMARK    4  A    between atoms: C_11  and  C_12 
REMARK    5  A    between atoms: C_12  and  C_13 
ROOT
HETATM    1  C   UNL     1     -41.603  57.445 -53.522  1.00  0.00     0.243 C 
HETATM    2  N   UNL     1     -42.434  56.939 -54.496  1.00  0.00    -0.267 N 
HETATM    3  O   UNL     1     -40.880  58.424 -53.709  1.00  0.00    -0.271 OA
HETATM    4  H   UNL     1     -43.124  56.206 -54.307  1.00  0.00     0.190 HD
ENDROOT
BRANCH   1   5
HETATM    5  C   UNL     1     -41.701  56.768 -52.179  1.00  0.00     0.183 C 
BRANCH   5   6
HETATM    6  C   UNL     1     -41.194  55.353 -52.163  1.00  0.00     0.116 A 
HETATM    7  N   UNL     1     -41.028  54.710 -53.278  1.00  0.00    -0.227 NA
HETATM    8  C   UNL     1     -40.579  53.436 -53.139  1.00  0.00     0.116 A 
HETATM    9  C   UNL     1     -40.320  52.772 -51.958  1.00  0.00     0.075 A 
HETATM   10  S   UNL     1     -40.267  52.455 -54.491  1.00  0.00    -0.074 SA
HETATM   11  C   UNL     1     -39.866  51.421 -52.160  1.00  0.00    -0.031 A 
HETATM   12  C   UNL     1     -40.538  53.508 -50.727  1.00  0.00     0.260 A 
HETATM   13  C   UNL     1     -39.530  50.469 -51.056  1.00  0.00     0.050 C 
HETATM   14  C   UNL     1     -39.798  51.127 -53.516  1.00  0.00    -0.012 A 
HETATM   15  C   UNL     1     -39.382  49.850 -54.169  1.00  0.00     0.057 C 
HETATM   16  N   UNL     1     -40.957  54.807 -50.920  1.00  0.00    -0.310 N 
HETATM   17  O   UNL     1     -40.382  53.046 -49.601  1.00  0.00    -0.267 OA
HETATM   18  H   UNL     1     -41.110  55.332 -50.071  1.00  0.00     0.170 HD
ENDBRANCH   5   6
ENDBRANCH   1   5
BRANCH   2  19
HETATM   19  N   UNL     1     -42.612  57.689 -55.668  1.00  0.00    -0.267 N 
HETATM   20  C   UNL     1     -42.841  56.982 -56.837  1.00  0.00     0.240 C 
HETATM   21  O   UNL     1     -42.687  55.765 -56.915  1.00  0.00    -0.272 OA
HETATM   22  H   UNL     1     -43.019  58.614 -55.528  1.00  0.00     0.190 HD
BRANCH  20  23
HETATM   23  C   UNL     1     -43.261  57.856 -58.006  1.00  0.00     0.148 C 
BRANCH  23  24
HETATM   24  C   UNL     1     -44.272  57.188 -58.902  1.00  0.00     0.011 A 
HETATM   25  C   UNL     1     -45.654  57.380 -58.760  1.00  0.00     0.043 A 
HETATM   26 CL   UNL     1     -46.301  58.440 -57.557  1.00  0.00    -0.084 Cl
HETATM   27  C   UNL     1     -46.560  56.721 -59.601  1.00  0.00     0.024 A 
HETATM   28  C   UNL     1     -46.098  55.857 -60.593  1.00  0.00     0.005 A 
HETATM   29  C   UNL     1     -44.730  55.653 -60.744  1.00  0.00     0.043 A 
HETATM   30  C   UNL     1     -43.836  56.312 -59.902  1.00  0.00     0.124 A 
HETATM   31  F   UNL     1     -42.524  56.100 -60.077  1.00  0.00    -0.205 F 
ENDBRANCH  23  24
ENDBRANCH  20  23
ENDBRANCH   2  19
TORSDOF 5
ENDMDL
MODEL 3
REMARK VINA RESULT:      -8.0      2.988      7.409
REMARK  5 active torsions:
REMARK  status: ('A' for Active; 'I' for Inactive)
REMARK    1  A    between atoms: C_6  and  C_7 
REMARK    2  A    between atoms: C_7  and  C_8 
REMARK       I    between atoms: C_8  and  N_9 
REMARK    3  A    between atoms: N_9  and  N_10 
REMARK       I    between atoms: N_10  and  C_11 
REMARK    4  A    between atoms: C_11  and  C_12 
REMARK    5  A    between atoms: C_12  and  C_13 
ROOT
HETATM    1  C   UNL     1     -41.999  57.382 -51.212  1.00  0.00     0.243 C 
HETATM    2  N   UNL     1     -42.213  56.050 -50.940  1.00  0.00    -0.267 N 
HETATM    3  O   UNL     1     -40.887  57.905 -51.136  1.00  0.00    -0.271 OA
HETATM    4  H   UNL     1     -43.108  55.586 -51.121  1.00  0.00     0.190 HD
ENDROOT
BRANCH   1   5
HETATM    5  C   UNL     1     -43.210  58.142 -51.691  1.00  0.00     0.183 C 
BRANCH   5   6
HETATM    6  C   UNL     1     -43.496  57.986 -53.159  1.00  0.00     0.116 A 
HETATM    7  N   UNL     1     -42.903  57.054 -53.840  1.00  0.00    -0.227 NA
HETATM    8  C   UNL     1     -43.228  57.019 -55.158  1.00  0.00     0.116 A 
HETATM    9  C   UNL     1     -44.080  57.874 -55.825  1.00  0.00     0.075 A 
HETATM   10  S   UNL     1     -42.580  55.841 -56.198  1.00  0.00    -0.074 SA
HETATM   11  C   UNL     1     -44.198  57.569 -57.228  1.00  0.00    -0.031 A 
HETATM   12  C   UNL     1     -44.708  58.921 -55.043  1.00  0.00     0.260 A 
HETATM   13  C   UNL     1     -45.038  58.344 -58.192  1.00  0.00     0.050 C 
HETATM   14  C   UNL     1     -43.416  56.468 -57.555  1.00  0.00    -0.012 A 
HETATM   15  C   UNL     1     -43.241  55.818 -58.888  1.00  0.00     0.057 C 
HETATM   16  N   UNL     1     -44.377  58.894 -53.705  1.00  0.00    -0.310 N 
HETATM   17  O   UNL     1     -45.463  59.774 -55.498  1.00  0.00    -0.267 OA
HETATM   18  H   UNL     1     -44.810  59.616 -53.148  1.00  0.00     0.170 HD
ENDBRANCH   5   6
ENDBRANCH   1   5
BRANCH   2  19
HETATM   19  N   UNL     1     -41.093  55.222 -50.774  1.00  0.00    -0.267 N 
HETATM   20  C   UNL     1     -41.168  53.948 -51.314  1.00  0.00     0.240 C 
HETATM   21  O   UNL     1     -42.220  53.467 -51.732  1.00  0.00    -0.272 OA
HETATM   22  H   UNL     1     -40.200  55.712 -50.714  1.00  0.00     0.190 HD
BRANCH  20  23
HETATM   23  C   UNL     1     -39.845  53.204 -51.307  1.00  0.00     0.148 C 
BRANCH  23  24
HETATM   24  C   UNL     1     -39.833  52.023 -52.246  1.00  0.00     0.011 A 
HETATM   25  C   UNL     1     -39.960  52.159 -53.635  1.00  0.00     0.043 A 
HETATM   26 CL   UNL     1     -40.103  53.711 -54.384  1.00  0.00    -0.084 Cl
HETATM   27  C   UNL     1     -39.966  51.033 -54.468  1.00  0.00     0.024 A 
HETATM   28  C   UNL     1     -39.849  49.754 -53.923  1.00  0.00     0.005 A 
HETATM   29  C   UNL     1     -39.726  49.604 -52.546  1.00  0.00     0.043 A 
HETATM   30  C   UNL     1     -39.722  50.730 -51.725  1.00  0.00     0.124 A 
HETATM   31  F   UNL     1     -39.595  50.552 -50.402  1.00  0.00    -0.205 F 
ENDBRANCH  23  24
ENDBRANCH  20  23
ENDBRANCH   2  19
TORSDOF 5
ENDMDL
MODEL 4
REMARK VINA RESULT:      -8.0      2.170      2.869
REMARK  5 active torsions:
REMARK  status: ('A' for Active; 'I' for Inactive)
REMARK    1  A    between atoms: C_6  and  C_7 
REMARK    2  A    between atoms: C_7  and  C_8 
REMARK       I    between atoms: C_8  and  N_9 
REMARK    3  A    between atoms: N_9  and  N_10 
REMARK       I    between atoms: N_10  and  C_11 
REMARK    4  A    between atoms: C_11  and  C_12 
REMARK    5  A    between atoms: C_12  and  C_13 
ROOT
HETATM    1  C   UNL     1     -44.542  58.110 -54.381  1.00  0.00     0.243 C 
HETATM    2  N   UNL     1     -43.343  58.587 -54.864  1.00  0.00    -0.267 N 
HETATM    3  O   UNL     1     -45.563  58.066 -55.068  1.00  0.00    -0.271 OA
HETATM    4  H   UNL     1     -42.468  58.510 -54.338  1.00  0.00     0.190 HD
ENDROOT
BRANCH   1   5
HETATM    5  C   UNL     1     -44.498  57.566 -52.976  1.00  0.00     0.183 C 
BRANCH   5   6
HETATM    6  C   UNL     1     -43.460  56.500 -52.759  1.00  0.00     0.116 A 
HETATM    7  N   UNL     1     -43.212  55.636 -53.694  1.00  0.00    -0.227 NA
HETATM    8  C   UNL     1     -42.267  54.712 -53.379  1.00  0.00     0.116 A 
HETATM    9  C   UNL     1     -41.589  54.594 -52.184  1.00  0.00     0.075 A 
HETATM   10  S   UNL     1     -41.783  53.525 -54.495  1.00  0.00    -0.074 SA
HETATM   11  C   UNL     1     -40.659  53.495 -52.172  1.00  0.00    -0.031 A 
HETATM   12  C   UNL     1     -41.906  55.558 -51.148  1.00  0.00     0.260 A 
HETATM   13  C   UNL     1     -39.806  53.124 -51.000  1.00  0.00     0.050 C 
HETATM   14  C   UNL     1     -40.676  52.828 -53.390  1.00  0.00    -0.012 A 
HETATM   15  C   UNL     1     -39.875  51.638 -53.807  1.00  0.00     0.057 C 
HETATM   16  N   UNL     1     -42.843  56.497 -51.527  1.00  0.00    -0.310 N 
HETATM   17  O   UNL     1     -41.412  55.564 -50.025  1.00  0.00    -0.267 OA
HETATM   18  H   UNL     1     -43.070  57.177 -50.816  1.00  0.00     0.170 HD
ENDBRANCH   5   6
ENDBRANCH   1   5
BRANCH   2  19
HETATM   19  N   UNL     1     -43.237  58.835 -56.239  1.00  0.00    -0.267 N 
HETATM   20  C   UNL     1     -42.734  57.810 -57.025  1.00  0.00     0.240 C 
HETATM   21  O   UNL     1     -42.202  56.810 -56.547  1.00  0.00    -0.272 OA
HETATM   22  H   UNL     1     -43.923  59.491 -56.613  1.00  0.00     0.190 HD
BRANCH  20  23
HETATM   23  C   UNL     1     -42.874  58.060 -58.516  1.00  0.00     0.148 C 
BRANCH  23  24
HETATM   24  C   UNL     1     -43.915  57.182 -59.162  1.00  0.00     0.011 A 
HETATM   25  C   UNL     1     -45.280  57.506 -59.169  1.00  0.00     0.043 A 
HETATM   26 CL   UNL     1     -45.866  58.970 -58.462  1.00  0.00    -0.084 Cl
HETATM   27  C   UNL     1     -46.216  56.649 -59.761  1.00  0.00     0.024 A 
HETATM   28  C   UNL     1     -45.803  55.455 -60.352  1.00  0.00     0.005 A 
HETATM   29  C   UNL     1     -44.453  55.119 -60.349  1.00  0.00     0.043 A 
HETATM   30  C   UNL     1     -43.529  55.977 -59.757  1.00  0.00     0.124 A 
HETATM   31  F   UNL     1     -42.234  55.628 -59.777  1.00  0.00    -0.205 F 
ENDBRANCH  23  24
ENDBRANCH  20  23
ENDBRANCH   2  19
TORSDOF 5
ENDMDL
MODEL 5
REMARK VINA RESULT:      -8.0      5.095     10.079
REMARK  5 active torsions:
REMARK  status: ('A' for Active; 'I' for Inactive)
REMARK    1  A    between atoms: C_6  and  C_7 
REMARK    2  A    between atoms: C_7  and  C_8 
REMARK       I    between atoms: C_8  and  N_9 
REMARK    3  A    between atoms: N_9  and  N_10 
REMARK       I    between atoms: N_10  and  C_11 
REMARK    4  A    between atoms: C_11  and  C_12 
REMARK    5  A    between atoms: C_12  and  C_13 
ROOT
HETATM    1  C   UNL     1     -43.396  55.483 -58.939  1.00  0.00     0.243 C 
HETATM    2  N   UNL     1     -43.493  55.457 -57.566  1.00  0.00    -0.267 N 
HETATM    3  O   UNL     1     -42.362  55.807 -59.525  1.00  0.00    -0.271 OA
HETATM    4  H   UNL     1     -44.307  55.072 -57.078  1.00  0.00     0.190 HD
ENDROOT
BRANCH   1   5
HETATM    5  C   UNL     1     -44.620  55.007 -59.679  1.00  0.00     0.183 C 
BRANCH   5   6
HETATM    6  C   UNL     1     -45.567  56.105 -60.076  1.00  0.00     0.116 A 
HETATM    7  N   UNL     1     -45.579  57.222 -59.416  1.00  0.00    -0.227 NA
HETATM    8  C   UNL     1     -46.485  58.133 -59.856  1.00  0.00     0.116 A 
HETATM    9  C   UNL     1     -47.386  57.975 -60.888  1.00  0.00     0.075 A 
HETATM   10  S   UNL     1     -46.616  59.668 -59.139  1.00  0.00    -0.074 SA
HETATM   11  C   UNL     1     -48.218  59.133 -61.091  1.00  0.00    -0.031 A 
HETATM   12  C   UNL     1     -47.367  56.706 -61.590  1.00  0.00     0.260 A 
HETATM   13  C   UNL     1     -49.292  59.230 -62.127  1.00  0.00     0.050 C 
HETATM   14  C   UNL     1     -47.889  60.133 -60.185  1.00  0.00    -0.012 A 
HETATM   15  C   UNL     1     -48.498  61.490 -60.041  1.00  0.00     0.057 C 
HETATM   16  N   UNL     1     -46.407  55.829 -61.133  1.00  0.00    -0.310 N 
HETATM   17  O   UNL     1     -48.126  56.404 -62.506  1.00  0.00    -0.267 OA
HETATM   18  H   UNL     1     -46.381  54.942 -61.616  1.00  0.00     0.170 HD
ENDBRANCH   5   6
ENDBRANCH   1   5
BRANCH   2  19
HETATM   19  N   UNL     1     -42.317  55.603 -56.818  1.00  0.00    -0.267 N 
HETATM   20  C   UNL     1     -42.118  54.708 -55.779  1.00  0.00     0.240 C 
HETATM   21  O   UNL     1     -43.003  53.956 -55.374  1.00  0.00    -0.272 OA
HETATM   22  H   UNL     1     -41.525  55.992 -57.332  1.00  0.00     0.190 HD
BRANCH  20  23
HETATM   23  C   UNL     1     -40.726  54.773 -55.175  1.00  0.00     0.148 C 
BRANCH  23  24
HETATM   24  C   UNL     1     -40.646  54.124 -53.817  1.00  0.00     0.011 A 
HETATM   25  C   UNL     1     -40.929  54.814 -52.630  1.00  0.00     0.043 A 
HETATM   26 CL   UNL     1     -41.432  56.468 -52.642  1.00  0.00    -0.084 Cl
HETATM   27  C   UNL     1     -40.820  54.177 -51.387  1.00  0.00     0.024 A 
HETATM   28  C   UNL     1     -40.422  52.842 -51.313  1.00  0.00     0.005 A 
HETATM   29  C   UNL     1     -40.135  52.145 -52.483  1.00  0.00     0.043 A 
HETATM   30  C   UNL     1     -40.246  52.787 -53.714  1.00  0.00     0.124 A 
HETATM   31  F   UNL     1     -39.969  52.087 -54.824  1.00  0.00    -0.205 F 
ENDBRANCH  23  24
ENDBRANCH  20  23
ENDBRANCH   2  19
TORSDOF 5
ENDMDL
MODEL 6
REMARK VINA RESULT:      -7.9      1.542      1.825
REMARK  5 active torsions:
REMARK  status: ('A' for Active; 'I' for Inactive)
REMARK    1  A    between atoms: C_6  and  C_7 
REMARK    2  A    between atoms: C_7  and  C_8 
REMARK       I    between atoms: C_8  and  N_9 
REMARK    3  A    between atoms: N_9  and  N_10 
REMARK       I    between atoms: N_10  and  C_11 
REMARK    4  A    between atoms: C_11  and  C_12 
REMARK    5  A    between atoms: C_12  and  C_13 
ROOT
HETATM    1  C   UNL     1     -42.607  57.314 -52.610  1.00  0.00     0.243 C 
HETATM    2  N   UNL     1     -42.010  57.934 -53.684  1.00  0.00    -0.267 N 
HETATM    3  O   UNL     1     -43.819  57.098 -52.557  1.00  0.00    -0.271 OA
HETATM    4  H   UNL     1     -40.993  58.004 -53.786  1.00  0.00     0.190 HD
ENDROOT
BRANCH   1   5
HETATM    5  C   UNL     1     -41.662  56.842 -51.534  1.00  0.00     0.183 C 
BRANCH   5   6
HETATM    6  C   UNL     1     -41.176  55.431 -51.715  1.00  0.00     0.116 A 
HETATM    7  N   UNL     1     -41.083  54.925 -52.906  1.00  0.00    -0.227 NA
HETATM    8  C   UNL     1     -40.646  53.639 -52.945  1.00  0.00     0.116 A 
HETATM    9  C   UNL     1     -40.331  52.837 -51.868  1.00  0.00     0.075 A 
HETATM   10  S   UNL     1     -40.424  52.824 -54.420  1.00  0.00    -0.074 SA
HETATM   11  C   UNL     1     -39.910  51.516 -52.255  1.00  0.00    -0.031 A 
HETATM   12  C   UNL     1     -40.469  53.422 -50.549  1.00  0.00     0.260 A 
HETATM   13  C   UNL     1     -39.527  50.436 -51.294  1.00  0.00     0.050 C 
HETATM   14  C   UNL     1     -39.922  51.386 -53.639  1.00  0.00    -0.012 A 
HETATM   15  C   UNL     1     -39.562  50.192 -54.461  1.00  0.00     0.057 C 
HETATM   16  N   UNL     1     -40.879  54.738 -50.562  1.00  0.00    -0.310 N 
HETATM   17  O   UNL     1     -40.258  52.828 -49.496  1.00  0.00    -0.267 OA
HETATM   18  H   UNL     1     -40.976  55.160 -49.649  1.00  0.00     0.170 HD
ENDBRANCH   5   6
ENDBRANCH   1   5
BRANCH   2  19
HETATM   19  N   UNL     1     -42.777  58.136 -54.840  1.00  0.00    -0.267 N 
HETATM   20  C   UNL     1     -42.662  57.188 -55.844  1.00  0.00     0.240 C 
HETATM   21  O   UNL     1     -41.786  56.325 -55.842  1.00  0.00    -0.272 OA
HETATM   22  H   UNL     1     -43.653  58.637 -54.693  1.00  0.00     0.190 HD
BRANCH  20  23
HETATM   23  C   UNL     1     -43.691  57.341 -56.949  1.00  0.00     0.148 C 
BRANCH  23  24
HETATM   24  C   UNL     1     -43.131  58.002 -58.183  1.00  0.00     0.011 A 
HETATM   25  C   UNL     1     -42.667  57.274 -59.288  1.00  0.00     0.043 A 
HETATM   26 CL   UNL     1     -42.740  55.547 -59.329  1.00  0.00    -0.084 Cl
HETATM   27  C   UNL     1     -42.134  57.928 -60.405  1.00  0.00     0.024 A 
HETATM   28  C   UNL     1     -42.052  59.320 -60.433  1.00  0.00     0.005 A 
HETATM   29  C   UNL     1     -42.505  60.056 -59.342  1.00  0.00     0.043 A 
HETATM   30  C   UNL     1     -43.034  59.396 -58.235  1.00  0.00     0.124 A 
HETATM   31  F   UNL     1     -43.468  60.134 -57.203  1.00  0.00    -0.205 F 
ENDBRANCH  23  24
ENDBRANCH  20  23
ENDBRANCH   2  19
TORSDOF 5
ENDMDL
MODEL 7
REMARK VINA RESULT:      -7.7      2.201      2.850
REMARK  5 active torsions:
REMARK  status: ('A' for Active; 'I' for Inactive)
REMARK    1  A    between atoms: C_6  and  C_7 
REMARK    2  A    between atoms: C_7  and  C_8 
REMARK       I    between atoms: C_8  and  N_9 
REMARK    3  A    between atoms: N_9  and  N_10 
REMARK       I    between atoms: N_10  and  C_11 
REMARK    4  A    between atoms: C_11  and  C_12 
REMARK    5  A    between atoms: C_12  and  C_13 
ROOT
HETATM    1  C   UNL     1     -42.755  57.617 -52.232  1.00  0.00     0.243 C 
HETATM    2  N   UNL     1     -42.600  58.978 -52.372  1.00  0.00    -0.267 N 
HETATM    3  O   UNL     1     -43.508  56.958 -52.951  1.00  0.00    -0.271 OA
HETATM    4  H   UNL     1     -41.888  59.507 -51.861  1.00  0.00     0.190 HD
ENDROOT
BRANCH   1   5
HETATM    5  C   UNL     1     -41.876  56.974 -51.190  1.00  0.00     0.183 C 
BRANCH   5   6
HETATM    6  C   UNL     1     -41.367  55.611 -51.568  1.00  0.00     0.116 A 
HETATM    7  N   UNL     1     -41.164  54.717 -50.650  1.00  0.00    -0.227 NA
HETATM    8  C   UNL     1     -40.690  53.529 -51.107  1.00  0.00     0.116 A 
HETATM    9  C   UNL     1     -40.385  53.205 -52.413  1.00  0.00     0.075 A 
HETATM   10  S   UNL     1     -40.403  52.226 -50.054  1.00  0.00    -0.074 SA
HETATM   11  C   UNL     1     -39.890  51.861 -52.557  1.00  0.00    -0.031 A 
HETATM   12  C   UNL     1     -40.598  54.233 -53.413  1.00  0.00     0.260 A 
HETATM   13  C   UNL     1     -39.466  51.253 -53.856  1.00  0.00     0.050 C 
HETATM   14  C   UNL     1     -39.851  51.220 -51.325  1.00  0.00    -0.012 A 
HETATM   15  C   UNL     1     -39.405  49.828 -51.017  1.00  0.00     0.057 C 
HETATM   16  N   UNL     1     -41.114  55.407 -52.907  1.00  0.00    -0.310 N 
HETATM   17  O   UNL     1     -40.345  54.108 -54.607  1.00  0.00    -0.267 OA
HETATM   18  H   UNL     1     -41.271  56.131 -53.594  1.00  0.00     0.170 HD
ENDBRANCH   5   6
ENDBRANCH   1   5
BRANCH   2  19
HETATM   19  N   UNL     1     -43.159  59.594 -53.501  1.00  0.00    -0.267 N 
HETATM   20  C   UNL     1     -42.335  59.751 -54.603  1.00  0.00     0.240 C 
HETATM   21  O   UNL     1     -41.119  59.569 -54.552  1.00  0.00    -0.272 OA
HETATM   22  H   UNL     1     -44.163  59.453 -53.615  1.00  0.00     0.190 HD
BRANCH  20  23
HETATM   23  C   UNL     1     -43.068  60.199 -55.855  1.00  0.00     0.148 C 
BRANCH  23  24
HETATM   24  C   UNL     1     -43.058  59.157 -56.944  1.00  0.00     0.011 A 
HETATM   25  C   UNL     1     -44.004  58.125 -57.014  1.00  0.00     0.043 A 
HETATM   26 CL   UNL     1     -45.289  57.995 -55.864  1.00  0.00    -0.084 Cl
HETATM   27  C   UNL     1     -43.943  57.164 -58.031  1.00  0.00     0.024 A 
HETATM   28  C   UNL     1     -42.933  57.219 -58.991  1.00  0.00     0.005 A 
HETATM   29  C   UNL     1     -41.984  58.235 -58.933  1.00  0.00     0.043 A 
HETATM   30  C   UNL     1     -42.052  59.186 -57.916  1.00  0.00     0.124 A 
HETATM   31  F   UNL     1     -41.127  60.156 -57.891  1.00  0.00    -0.205 F 
ENDBRANCH  23  24
ENDBRANCH  20  23
ENDBRANCH   2  19
TORSDOF 5
ENDMDL
MODEL 8
REMARK VINA RESULT:      -7.6      3.219      7.822
REMARK  5 active torsions:
REMARK  status: ('A' for Active; 'I' for Inactive)
REMARK    1  A    between atoms: C_6  and  C_7 
REMARK    2  A    between atoms: C_7  and  C_8 
REMARK       I    between atoms: C_8  and  N_9 
REMARK    3  A    between atoms: N_9  and  N_10 
REMARK       I    between atoms: N_10  and  C_11 
REMARK    4  A    between atoms: C_11  and  C_12 
REMARK    5  A    between atoms: C_12  and  C_13 
ROOT
HETATM    1  C   UNL     1     -43.345  56.810 -52.231  1.00  0.00     0.243 C 
HETATM    2  N   UNL     1     -42.452  56.084 -52.987  1.00  0.00    -0.267 N 
HETATM    3  O   UNL     1     -43.361  56.768 -51.000  1.00  0.00    -0.271 OA
HETATM    4  H   UNL     1     -42.355  56.210 -53.998  1.00  0.00     0.190 HD
ENDROOT
BRANCH   1   5
HETATM    5  C   UNL     1     -44.251  57.727 -53.013  1.00  0.00     0.183 C 
BRANCH   5   6
HETATM    6  C   UNL     1     -43.758  58.051 -54.395  1.00  0.00     0.116 A 
HETATM    7  N   UNL     1     -43.755  57.135 -55.314  1.00  0.00    -0.227 NA
HETATM    8  C   UNL     1     -43.274  57.539 -56.519  1.00  0.00     0.116 A 
HETATM    9  C   UNL     1     -42.776  58.785 -56.837  1.00  0.00     0.075 A 
HETATM   10  S   UNL     1     -43.231  56.487 -57.853  1.00  0.00    -0.074 SA
HETATM   11  C   UNL     1     -42.334  58.882 -58.204  1.00  0.00    -0.031 A 
HETATM   12  C   UNL     1     -42.769  59.781 -55.782  1.00  0.00     0.260 A 
HETATM   13  C   UNL     1     -41.734  60.109 -58.813  1.00  0.00     0.050 C 
HETATM   14  C   UNL     1     -42.531  57.676 -58.866  1.00  0.00    -0.012 A 
HETATM   15  C   UNL     1     -42.214  57.335 -60.286  1.00  0.00     0.057 C 
HETATM   16  N   UNL     1     -43.300  59.336 -54.591  1.00  0.00    -0.310 N 
HETATM   17  O   UNL     1     -42.330  60.920 -55.902  1.00  0.00    -0.267 OA
HETATM   18  H   UNL     1     -43.304  60.020 -53.848  1.00  0.00     0.170 HD
ENDBRANCH   5   6
ENDBRANCH   1   5
BRANCH   2  19
HETATM   19  N   UNL     1     -41.397  55.440 -52.325  1.00  0.00    -0.267 N 
HETATM   20  C   UNL     1     -41.562  54.094 -52.041  1.00  0.00     0.240 C 
HETATM   21  O   UNL     1     -42.645  53.521 -52.155  1.00  0.00    -0.272 OA
HETATM   22  H   UNL     1     -40.471  55.824 -52.516  1.00  0.00     0.190 HD
BRANCH  20  23
HETATM   23  C   UNL     1     -40.297  53.415 -51.548  1.00  0.00     0.148 C 
BRANCH  23  24
HETATM   24  C   UNL     1     -40.033  52.099 -52.236  1.00  0.00     0.011 A 
HETATM   25  C   UNL     1     -39.971  50.881 -51.544  1.00  0.00     0.043 A 
HETATM   26 CL   UNL     1     -40.235  50.796 -49.837  1.00  0.00    -0.084 Cl
HETATM   27  C   UNL     1     -39.700  49.685 -52.220  1.00  0.00     0.024 A 
HETATM   28  C   UNL     1     -39.483  49.690 -53.598  1.00  0.00     0.005 A 
HETATM   29  C   UNL     1     -39.537  50.891 -54.298  1.00  0.00     0.043 A 
HETATM   30  C   UNL     1     -39.807  52.076 -53.616  1.00  0.00     0.124 A 
HETATM   31  F   UNL     1     -39.859  53.216 -54.320  1.00  0.00    -0.205 F 
ENDBRANCH  23  24
ENDBRANCH  20  23
ENDBRANCH   2  19
TORSDOF 5
ENDMDL
MODEL 9
REMARK VINA RESULT:      -7.6      3.317      8.244
REMARK  5 active torsions:
REMARK  status: ('A' for Active; 'I' for Inactive)
REMARK    1  A    between atoms: C_6  and  C_7 
REMARK    2  A    between atoms: C_7  and  C_8 
REMARK       I    between atoms: C_8  and  N_9 
REMARK    3  A    between atoms: N_9  and  N_10 
REMARK       I    between atoms: N_10  and  C_11 
REMARK    4  A    between atoms: C_11  and  C_12 
REMARK    5  A    between atoms: C_12  and  C_13 
ROOT
HETATM    1  C   UNL     1     -43.390  56.780 -52.916  1.00  0.00     0.243 C 
HETATM    2  N   UNL     1     -42.647  55.746 -53.439  1.00  0.00    -0.267 N 
HETATM    3  O   UNL     1     -43.208  57.219 -51.779  1.00  0.00    -0.271 OA
HETATM    4  H   UNL     1     -42.712  55.462 -54.421  1.00  0.00     0.190 HD
ENDROOT
BRANCH   1   5
HETATM    5  C   UNL     1     -44.390  57.396 -53.861  1.00  0.00     0.183 C 
BRANCH   5   6
HETATM    6  C   UNL     1     -43.842  57.698 -55.228  1.00  0.00     0.116 A 
HETATM    7  N   UNL     1     -43.561  58.921 -55.559  1.00  0.00    -0.227 NA
HETATM    8  C   UNL     1     -43.087  59.074 -56.823  1.00  0.00     0.116 A 
HETATM    9  C   UNL     1     -42.909  58.085 -57.767  1.00  0.00     0.075 A 
HETATM   10  S   UNL     1     -42.629  60.599 -57.418  1.00  0.00    -0.074 SA
HETATM   11  C   UNL     1     -42.398  58.586 -59.016  1.00  0.00    -0.031 A 
HETATM   12  C   UNL     1     -43.255  56.731 -57.377  1.00  0.00     0.260 A 
HETATM   13  C   UNL     1     -42.130  57.738 -60.219  1.00  0.00     0.050 C 
HETATM   14  C   UNL     1     -42.205  59.960 -58.949  1.00  0.00    -0.012 A 
HETATM   15  C   UNL     1     -41.696  60.879 -60.011  1.00  0.00     0.057 C 
HETATM   16  N   UNL     1     -43.696  56.621 -56.075  1.00  0.00    -0.310 N 
HETATM   17  O   UNL     1     -43.182  55.753 -58.113  1.00  0.00    -0.267 OA
HETATM   18  H   UNL     1     -43.937  55.683 -55.789  1.00  0.00     0.170 HD
ENDBRANCH   5   6
ENDBRANCH   1   5
BRANCH   2  19
HETATM   19  N   UNL     1     -41.514  55.322 -52.731  1.00  0.00    -0.267 N 
HETATM   20  C   UNL     1     -41.602  54.103 -52.078  1.00  0.00     0.240 C 
HETATM   21  O   UNL     1     -42.667  53.507 -51.928  1.00  0.00    -0.272 OA
HETATM   22  H   UNL     1     -40.624  55.651 -53.107  1.00  0.00     0.190 HD
BRANCH  20  23
HETATM   23  C   UNL     1     -40.273  53.601 -51.542  1.00  0.00     0.148 C 
BRANCH  23  24
HETATM   24  C   UNL     1     -40.031  52.145 -51.847  1.00  0.00     0.011 A 
HETATM   25  C   UNL     1     -39.830  51.667 -53.149  1.00  0.00     0.043 A 
HETATM   26 CL   UNL     1     -39.806  52.732 -54.511  1.00  0.00    -0.084 Cl
HETATM   27  C   UNL     1     -39.631  50.302 -53.389  1.00  0.00     0.024 A 
HETATM   28  C   UNL     1     -39.635  49.393 -52.331  1.00  0.00     0.005 A 
HETATM   29  C   UNL     1     -39.837  49.852 -51.033  1.00  0.00     0.043 A 
HETATM   30  C   UNL     1     -40.034  51.212 -50.804  1.00  0.00     0.124 A 
HETATM   31  F   UNL     1     -40.220  51.623 -49.542  1.00  0.00    -0.205 F 
ENDBRANCH  23  24
ENDBRANCH  20  23
ENDBRANCH   2  19
TORSDOF 5
ENDMDL
MODEL 10
REMARK VINA RESULT:      -7.6      2.967      3.496
REMARK  5 active torsions:
REMARK  status: ('A' for Active; 'I' for Inactive)
REMARK    1  A    between atoms: C_6  and  C_7 
REMARK    2  A    between atoms: C_7  and  C_8 
REMARK       I    between atoms: C_8  and  N_9 
REMARK    3  A    between atoms: N_9  and  N_10 
REMARK       I    between atoms: N_10  and  C_11 
REMARK    4  A    between atoms: C_11  and  C_12 
REMARK    5  A    between atoms: C_12  and  C_13 
ROOT
HETATM    1  C   UNL     1     -44.051  57.696 -54.607  1.00  0.00     0.243 C 
HETATM    2  N   UNL     1     -44.467  56.975 -55.704  1.00  0.00    -0.267 N 
HETATM    3  O   UNL     1     -43.537  58.811 -54.702  1.00  0.00    -0.271 OA
HETATM    4  H   UNL     1     -45.004  56.107 -55.622  1.00  0.00     0.190 HD
ENDROOT
BRANCH   1   5
HETATM    5  C   UNL     1     -44.345  57.060 -53.272  1.00  0.00     0.183 C 
BRANCH   5   6
HETATM    6  C   UNL     1     -43.379  55.979 -52.877  1.00  0.00     0.116 A 
HETATM    7  N   UNL     1     -42.758  55.298 -53.790  1.00  0.00    -0.227 NA
HETATM    8  C   UNL     1     -41.922  54.338 -53.315  1.00  0.00     0.116 A 
HETATM    9  C   UNL     1     -41.701  54.011 -51.994  1.00  0.00     0.075 A 
HETATM   10  S   UNL     1     -40.995  53.374 -54.364  1.00  0.00    -0.074 SA
HETATM   11  C   UNL     1     -40.760  52.934 -51.831  1.00  0.00    -0.031 A 
HETATM   12  C   UNL     1     -42.429  54.772 -50.996  1.00  0.00     0.260 A 
HETATM   13  C   UNL     1     -40.350  52.363 -50.511  1.00  0.00     0.050 C 
HETATM   14  C   UNL     1     -40.301  52.496 -53.068  1.00  0.00    -0.012 A 
HETATM   15  C   UNL     1     -39.324  51.405 -53.361  1.00  0.00     0.057 C 
HETATM   16  N   UNL     1     -43.235  55.757 -51.524  1.00  0.00    -0.310 N 
HETATM   17  O   UNL     1     -42.363  54.579 -49.786  1.00  0.00    -0.267 OA
HETATM   18  H   UNL     1     -43.745  56.298 -50.840  1.00  0.00     0.170 HD
ENDBRANCH   5   6
ENDBRANCH   1   5
BRANCH   2  19
HETATM   19  N   UNL     1     -44.493  57.621 -56.948  1.00  0.00    -0.267 N 
HETATM   20  C   UNL     1     -43.488  57.297 -57.845  1.00  0.00     0.240 C 
HETATM   21  O   UNL     1     -42.494  56.649 -57.520  1.00  0.00    -0.272 OA
HETATM   22  H   UNL     1     -45.423  57.883 -57.277  1.00  0.00     0.190 HD
BRANCH  20  23
HETATM   23  C   UNL     1     -43.717  57.846 -59.241  1.00  0.00     0.148 C 
BRANCH  23  24
HETATM   24  C   UNL     1     -45.024  57.393 -59.842  1.00  0.00     0.011 A 
HETATM   25  C   UNL     1     -45.270  56.060 -60.202  1.00  0.00     0.043 A 
HETATM   26 CL   UNL     1     -44.092  54.821 -59.944  1.00  0.00    -0.084 Cl
HETATM   27  C   UNL     1     -46.491  55.687 -60.778  1.00  0.00     0.024 A 
HETATM   28  C   UNL     1     -47.482  56.641 -61.007  1.00  0.00     0.005 A 
HETATM   29  C   UNL     1     -47.250  57.968 -60.658  1.00  0.00     0.043 A 
HETATM   30  C   UNL     1     -46.033  58.330 -60.086  1.00  0.00     0.124 A 
HETATM   31  F   UNL     1     -45.843  59.616 -59.755  1.00  0.00    -0.205 F 
ENDBRANCH  23  24
ENDBRANCH  20  23
ENDBRANCH   2  19
TORSDOF 5
ENDMDL
