MODEL 1
REMARK VINA RESULT:      -9.6      0.000      0.000
REMARK  7 active torsions:
REMARK  status: ('A' for Active; 'I' for Inactive)
REMARK    1  A    between atoms: C_3  and  N_4 
REMARK       I    between atoms: N_4  and  C_5 
REMARK    2  A    between atoms: C_5  and  C_6 
REMARK    3  A    between atoms: C_6  and  N_7 
REMARK    4  A    between atoms: N_10  and  C_11 
REMARK    5  A    between atoms: C_11  and  C_12 
REMARK    6  A    between atoms: C_27  and  C_28 
REMARK       I    between atoms: C_28  and  N_29 
REMARK    7  A    between atoms: N_29  and  C_30 
ROOT
HETATM    1  N   UNL     1     -42.666  59.119 -53.558  1.00  0.00    -0.290 N 
HETATM    2  C   UNL     1     -41.771  58.211 -52.990  1.00  0.00     0.332 C 
HETATM    3  O   UNL     1     -40.577  58.222 -53.306  1.00  0.00    -0.246 OA
HETATM    4  N   UNL     1     -42.275  57.337 -52.041  1.00  0.00    -0.261 N 
HETATM    5  C   UNL     1     -43.519  57.464 -51.449  1.00  0.00     0.264 C 
HETATM    6  O   UNL     1     -43.930  56.745 -50.540  1.00  0.00    -0.267 OA
HETATM    7  C   UNL     1     -44.374  58.564 -51.925  1.00  0.00     0.059 A 
HETATM    8  C   UNL     1     -43.956  59.345 -53.002  1.00  0.00     0.056 A 
HETATM    9  C   UNL     1     -45.582  58.830 -51.258  1.00  0.00     0.020 A 
HETATM   10  C   UNL     1     -46.401  59.884 -51.665  1.00  0.00     0.018 A 
HETATM   11  C   UNL     1     -46.031  60.650 -52.771  1.00  0.00     0.034 A 
HETATM   12  C   UNL     1     -44.820  60.363 -53.437  1.00  0.00     0.048 A 
ENDROOT
BRANCH   1  13
HETATM   13  C   UNL     1     -42.081  60.003 -54.566  1.00  0.00     0.237 C 
BRANCH  13  14
HETATM   14  C   UNL     1     -42.527  59.645 -55.998  1.00  0.00     0.240 C 
HETATM   15  N   UNL     1     -42.179  58.348 -56.339  1.00  0.00    -0.323 N 
HETATM   16  H   UNL     1     -41.816  57.751 -55.601  1.00  0.00     0.169 HD
HETATM   17  O   UNL     1     -43.076  60.466 -56.729  1.00  0.00    -0.271 OA
BRANCH  15  18
HETATM   18  C   UNL     1     -42.353  57.683 -57.570  1.00  0.00     0.073 A 
HETATM   19  C   UNL     1     -41.880  58.141 -58.798  1.00  0.00     0.033 A 
HETATM   20  C   UNL     1     -42.102  57.386 -59.959  1.00  0.00     0.002 A 
HETATM   21  C   UNL     1     -42.793  56.173 -59.900  1.00  0.00     0.003 A 
HETATM   22  C   UNL     1     -43.267  55.708 -58.679  1.00  0.00     0.044 A 
HETATM   23  C   UNL     1     -43.046  56.464 -57.532  1.00  0.00     0.143 A 
HETATM   24  F   UNL     1     -43.503  56.004 -56.354  1.00  0.00    -0.204 F 
ENDBRANCH  15  18
ENDBRANCH  13  14
ENDBRANCH   1  13
BRANCH   4  25
HETATM   25  C   UNL     1     -41.363  56.334 -51.502  1.00  0.00     0.175 C 
BRANCH  25  26
HETATM   26  C   UNL     1     -41.296  55.071 -52.338  1.00  0.00    -0.037 A 
HETATM   27  C   UNL     1     -40.402  54.038 -52.011  1.00  0.00     0.048 A 
HETATM   28  C   UNL     1     -40.387  52.916 -52.813  1.00  0.00     0.105 A 
HETATM   29  C   UNL     1     -41.205  52.795 -53.913  1.00  0.00     0.105 A 
HETATM   30  O   UNL     1     -39.595  51.823 -52.637  1.00  0.00    -0.323 OA
HETATM   31  O   UNL     1     -41.031  51.616 -54.566  1.00  0.00    -0.323 OA
HETATM   32  C   UNL     1     -42.086  53.790 -54.272  1.00  0.00     0.040 A 
HETATM   33  C   UNL     1     -40.032  50.992 -53.733  1.00  0.00     0.352 A 
HETATM   34  C   UNL     1     -42.130  54.936 -53.474  1.00  0.00     0.012 A 
ENDBRANCH  25  26
ENDBRANCH   4  25
BRANCH  11  35
HETATM   35  C   UNL     1     -46.832  61.811 -53.266  1.00  0.00     0.252 C 
HETATM   36  N   UNL     1     -48.200  61.776 -53.087  1.00  0.00    -0.352 N 
HETATM   37  H   UNL     1     -48.644  60.951 -52.712  1.00  0.00     0.163 HD
HETATM   38  O   UNL     1     -46.257  62.743 -53.821  1.00  0.00    -0.268 OA
BRANCH  36  39
HETATM   39  C   UNL     1     -49.060  62.846 -53.590  1.00  0.00     0.084 C 
HETATM   40  C   UNL     1     -50.340  62.271 -54.216  1.00  0.00     0.025 C 
HETATM   41  C   UNL     1     -51.334  61.754 -53.175  1.00  0.00     0.002 C 
HETATM   42  C   UNL     1     -51.654  62.815 -52.128  1.00  0.00     0.000 C 
HETATM   43  C   UNL     1     -50.387  63.346 -51.467  1.00  0.00     0.002 C 
HETATM   44  C   UNL     1     -49.395  63.876 -52.500  1.00  0.00     0.025 C 
ENDBRANCH  36  39
ENDBRANCH  11  35
TORSDOF 7
ENDMDL
MODEL 2
REMARK VINA RESULT:      -9.1      3.826      7.005
REMARK  7 active torsions:
REMARK  status: ('A' for Active; 'I' for Inactive)
REMARK    1  A    between atoms: C_3  and  N_4 
REMARK       I    between atoms: N_4  and  C_5 
REMARK    2  A    between atoms: C_5  and  C_6 
REMARK    3  A    between atoms: C_6  and  N_7 
REMARK    4  A    between atoms: N_10  and  C_11 
REMARK    5  A    between atoms: C_11  and  C_12 
REMARK    6  A    between atoms: C_27  and  C_28 
REMARK       I    between atoms: C_28  and  N_29 
REMARK    7  A    between atoms: N_29  and  C_30 
ROOT
HETATM    1  N   UNL     1     -43.618  58.230 -55.395  1.00  0.00    -0.290 N 
HETATM    2  C   UNL     1     -43.961  57.076 -54.689  1.00  0.00     0.332 C 
HETATM    3  O   UNL     1     -44.557  57.151 -53.609  1.00  0.00    -0.246 OA
HETATM    4  N   UNL     1     -43.638  55.860 -55.269  1.00  0.00    -0.261 N 
HETATM    5  C   UNL     1     -43.234  55.709 -56.584  1.00  0.00     0.264 C 
HETATM    6  O   UNL     1     -43.038  54.624 -57.127  1.00  0.00    -0.267 OA
HETATM    7  C   UNL     1     -43.075  56.939 -57.378  1.00  0.00     0.059 A 
HETATM    8  C   UNL     1     -43.223  58.180 -56.761  1.00  0.00     0.056 A 
HETATM    9  C   UNL     1     -42.812  56.836 -58.755  1.00  0.00     0.020 A 
HETATM   10  C   UNL     1     -42.686  57.981 -59.540  1.00  0.00     0.018 A 
HETATM   11  C   UNL     1     -42.780  59.237 -58.940  1.00  0.00     0.034 A 
HETATM   12  C   UNL     1     -43.033  59.324 -57.554  1.00  0.00     0.048 A 
ENDROOT
BRANCH   1  13
HETATM   13  C   UNL     1     -43.968  59.481 -54.724  1.00  0.00     0.237 C 
BRANCH  13  14
HETATM   14  C   UNL     1     -42.805  60.046 -53.882  1.00  0.00     0.240 C 
HETATM   15  N   UNL     1     -42.170  59.057 -53.149  1.00  0.00    -0.323 N 
HETATM   16  H   UNL     1     -42.427  58.093 -53.343  1.00  0.00     0.169 HD
HETATM   17  O   UNL     1     -42.547  61.247 -53.859  1.00  0.00    -0.271 OA
BRANCH  15  18
HETATM   18  C   UNL     1     -41.118  59.187 -52.220  1.00  0.00     0.073 A 
HETATM   19  C   UNL     1     -39.770  58.986 -52.509  1.00  0.00     0.033 A 
HETATM   20  C   UNL     1     -38.805  59.157 -51.505  1.00  0.00     0.002 A 
HETATM   21  C   UNL     1     -39.180  59.530 -50.212  1.00  0.00     0.003 A 
HETATM   22  C   UNL     1     -40.524  59.734 -49.915  1.00  0.00     0.044 A 
HETATM   23  C   UNL     1     -41.475  59.558 -50.916  1.00  0.00     0.143 A 
HETATM   24  F   UNL     1     -42.770  59.763 -50.621  1.00  0.00    -0.204 F 
ENDBRANCH  15  18
ENDBRANCH  13  14
ENDBRANCH   1  13
BRANCH   4  25
HETATM   25  C   UNL     1     -43.922  54.653 -54.500  1.00  0.00     0.175 C 
BRANCH  25  26
HETATM   26  C   UNL     1     -42.769  54.218 -53.617  1.00  0.00    -0.037 A 
HETATM   27  C   UNL     1     -42.785  54.469 -52.236  1.00  0.00     0.048 A 
HETATM   28  C   UNL     1     -41.704  54.051 -51.488  1.00  0.00     0.105 A 
HETATM   29  C   UNL     1     -40.625  53.416 -52.058  1.00  0.00     0.105 A 
HETATM   30  O   UNL     1     -41.560  54.203 -50.143  1.00  0.00    -0.323 OA
HETATM   31  O   UNL     1     -39.669  53.091 -51.148  1.00  0.00    -0.323 OA
HETATM   32  C   UNL     1     -40.567  53.161 -53.410  1.00  0.00     0.040 A 
HETATM   33  C   UNL     1     -40.284  53.565 -49.932  1.00  0.00     0.352 A 
HETATM   34  C   UNL     1     -41.651  53.566 -54.193  1.00  0.00     0.012 A 
ENDBRANCH  25  26
ENDBRANCH   4  25
BRANCH  11  35
HETATM   35  C   UNL     1     -42.681  60.518 -59.704  1.00  0.00     0.252 C 
HETATM   36  N   UNL     1     -41.562  61.303 -59.508  1.00  0.00    -0.352 N 
HETATM   37  H   UNL     1     -40.881  61.054 -58.806  1.00  0.00     0.163 HD
HETATM   38  O   UNL     1     -43.592  60.837 -60.462  1.00  0.00    -0.268 OA
BRANCH  36  39
HETATM   39  C   UNL     1     -41.413  62.595 -60.174  1.00  0.00     0.084 C 
HETATM   40  C   UNL     1     -42.040  63.719 -59.336  1.00  0.00     0.025 C 
HETATM   41  C   UNL     1     -41.204  64.085 -58.108  1.00  0.00     0.002 C 
HETATM   42  C   UNL     1     -39.763  64.408 -58.484  1.00  0.00     0.000 C 
HETATM   43  C   UNL     1     -39.122  63.269 -59.269  1.00  0.00     0.002 C 
HETATM   44  C   UNL     1     -39.945  62.907 -60.504  1.00  0.00     0.025 C 
ENDBRANCH  36  39
ENDBRANCH  11  35
TORSDOF 7
ENDMDL
MODEL 3
REMARK VINA RESULT:      -9.1      3.093      6.589
REMARK  7 active torsions:
REMARK  status: ('A' for Active; 'I' for Inactive)
REMARK    1  A    between atoms: C_3  and  N_4 
REMARK       I    between atoms: N_4  and  C_5 
REMARK    2  A    between atoms: C_5  and  C_6 
REMARK    3  A    between atoms: C_6  and  N_7 
REMARK    4  A    between atoms: N_10  and  C_11 
REMARK    5  A    between atoms: C_11  and  C_12 
REMARK    6  A    between atoms: C_27  and  C_28 
REMARK       I    between atoms: C_28  and  N_29 
REMARK    7  A    between atoms: N_29  and  C_30 
ROOT
HETATM    1  N   UNL     1     -43.447  57.291 -54.330  1.00  0.00    -0.290 N 
HETATM    2  C   UNL     1     -43.060  56.954 -55.628  1.00  0.00     0.332 C 
HETATM    3  O   UNL     1     -42.920  55.772 -55.957  1.00  0.00    -0.246 OA
HETATM    4  N   UNL     1     -42.883  57.995 -56.524  1.00  0.00    -0.261 N 
HETATM    5  C   UNL     1     -43.294  59.296 -56.296  1.00  0.00     0.264 C 
HETATM    6  O   UNL     1     -43.222  60.201 -57.126  1.00  0.00    -0.267 OA
HETATM    7  C   UNL     1     -43.891  59.586 -54.982  1.00  0.00     0.059 A 
HETATM    8  C   UNL     1     -43.916  58.594 -54.003  1.00  0.00     0.056 A 
HETATM    9  C   UNL     1     -44.460  60.851 -54.752  1.00  0.00     0.020 A 
HETATM   10  C   UNL     1     -45.061  61.147 -53.528  1.00  0.00     0.018 A 
HETATM   11  C   UNL     1     -45.056  60.189 -52.514  1.00  0.00     0.034 A 
HETATM   12  C   UNL     1     -44.471  58.927 -52.756  1.00  0.00     0.048 A 
ENDROOT
BRANCH   1  13
HETATM   13  C   UNL     1     -43.601  56.152 -53.425  1.00  0.00     0.237 C 
BRANCH  13  14
HETATM   14  C   UNL     1     -42.249  55.519 -53.035  1.00  0.00     0.240 C 
HETATM   15  N   UNL     1     -42.250  54.146 -53.218  1.00  0.00    -0.323 N 
HETATM   16  H   UNL     1     -43.045  53.739 -53.702  1.00  0.00     0.169 HD
HETATM   17  O   UNL     1     -41.331  56.191 -52.571  1.00  0.00    -0.271 OA
BRANCH  15  18
HETATM   18  C   UNL     1     -41.234  53.216 -52.916  1.00  0.00     0.073 A 
HETATM   19  C   UNL     1     -40.486  52.517 -53.860  1.00  0.00     0.033 A 
HETATM   20  C   UNL     1     -39.489  51.624 -53.442  1.00  0.00     0.002 A 
HETATM   21  C   UNL     1     -39.233  51.426 -52.082  1.00  0.00     0.003 A 
HETATM   22  C   UNL     1     -39.975  52.120 -51.133  1.00  0.00     0.044 A 
HETATM   23  C   UNL     1     -40.965  53.002 -51.556  1.00  0.00     0.143 A 
HETATM   24  F   UNL     1     -41.672  53.674 -50.631  1.00  0.00    -0.204 F 
ENDBRANCH  15  18
ENDBRANCH  13  14
ENDBRANCH   1  13
BRANCH   4  25
HETATM   25  C   UNL     1     -42.403  57.656 -57.860  1.00  0.00     0.175 C 
BRANCH  25  26
HETATM   26  C   UNL     1     -43.473  57.051 -58.747  1.00  0.00    -0.037 A 
HETATM   27  C   UNL     1     -44.690  57.717 -58.964  1.00  0.00     0.048 A 
HETATM   28  C   UNL     1     -45.624  57.112 -59.779  1.00  0.00     0.105 A 
HETATM   29  C   UNL     1     -45.397  55.886 -60.363  1.00  0.00     0.105 A 
HETATM   30  O   UNL     1     -46.845  57.619 -60.102  1.00  0.00    -0.323 OA
HETATM   31  O   UNL     1     -46.444  55.469 -61.123  1.00  0.00    -0.323 OA
HETATM   32  C   UNL     1     -44.222  55.198 -60.166  1.00  0.00     0.040 A 
HETATM   33  C   UNL     1     -47.344  56.587 -60.979  1.00  0.00     0.352 A 
HETATM   34  C   UNL     1     -43.253  55.789 -59.351  1.00  0.00     0.012 A 
ENDBRANCH  25  26
ENDBRANCH   4  25
BRANCH  11  35
HETATM   35  C   UNL     1     -45.694  60.407 -51.180  1.00  0.00     0.252 C 
HETATM   36  N   UNL     1     -45.515  61.633 -50.570  1.00  0.00    -0.352 N 
HETATM   37  H   UNL     1     -44.901  62.321 -50.980  1.00  0.00     0.163 HD
HETATM   38  O   UNL     1     -46.338  59.497 -50.666  1.00  0.00    -0.268 OA
BRANCH  36  39
HETATM   39  C   UNL     1     -46.059  61.909 -49.242  1.00  0.00     0.084 C 
HETATM   40  C   UNL     1     -44.936  62.239 -48.247  1.00  0.00     0.025 C 
HETATM   41  C   UNL     1     -44.342  63.632 -48.460  1.00  0.00     0.002 C 
HETATM   42  C   UNL     1     -45.419  64.710 -48.460  1.00  0.00     0.000 C 
HETATM   43  C   UNL     1     -46.506  64.411 -49.487  1.00  0.00     0.002 C 
HETATM   44  C   UNL     1     -47.114  63.026 -49.273  1.00  0.00     0.025 C 
ENDBRANCH  36  39
ENDBRANCH  11  35
TORSDOF 7
ENDMDL
MODEL 4
REMARK VINA RESULT:      -8.9      2.628      8.789
REMARK  7 active torsions:
REMARK  status: ('A' for Active; 'I' for Inactive)
REMARK    1  A    between atoms: C_3  and  N_4 
REMARK       I    between atoms: N_4  and  C_5 
REMARK    2  A    between atoms: C_5  and  C_6 
REMARK    3  A    between atoms: C_6  and  N_7 
REMARK    4  A    between atoms: N_10  and  C_11 
REMARK    5  A    between atoms: C_11  and  C_12 
REMARK    6  A    between atoms: C_27  and  C_28 
REMARK       I    between atoms: C_28  and  N_29 
REMARK    7  A    between atoms: N_29  and  C_30 
ROOT
HETATM    1  N   UNL     1     -42.764  58.888 -53.246  1.00  0.00    -0.290 N 
HETATM    2  C   UNL     1     -43.863  59.688 -52.931  1.00  0.00     0.332 C 
HETATM    3  O   UNL     1     -44.035  60.775 -53.494  1.00  0.00    -0.246 OA
HETATM    4  N   UNL     1     -44.760  59.192 -51.998  1.00  0.00    -0.261 N 
HETATM    5  C   UNL     1     -44.773  57.882 -51.554  1.00  0.00     0.264 C 
HETATM    6  O   UNL     1     -45.624  57.416 -50.798  1.00  0.00    -0.267 OA
HETATM    7  C   UNL     1     -43.714  56.994 -52.063  1.00  0.00     0.059 A 
HETATM    8  C   UNL     1     -42.700  57.520 -52.862  1.00  0.00     0.056 A 
HETATM    9  C   UNL     1     -43.768  55.622 -51.762  1.00  0.00     0.020 A 
HETATM   10  C   UNL     1     -42.797  54.750 -52.254  1.00  0.00     0.018 A 
HETATM   11  C   UNL     1     -41.743  55.257 -53.016  1.00  0.00     0.034 A 
HETATM   12  C   UNL     1     -41.698  56.638 -53.300  1.00  0.00     0.048 A 
ENDROOT
BRANCH   1  13
HETATM   13  C   UNL     1     -41.845  59.473 -54.223  1.00  0.00     0.237 C 
BRANCH  13  14
HETATM   14  C   UNL     1     -42.341  59.309 -55.674  1.00  0.00     0.240 C 
HETATM   15  N   UNL     1     -42.110  58.033 -56.158  1.00  0.00    -0.323 N 
HETATM   16  H   UNL     1     -41.789  57.332 -55.496  1.00  0.00     0.169 HD
HETATM   17  O   UNL     1     -42.830  60.248 -56.300  1.00  0.00    -0.271 OA
BRANCH  15  18
HETATM   18  C   UNL     1     -42.358  57.521 -57.448  1.00  0.00     0.073 A 
HETATM   19  C   UNL     1     -41.996  58.148 -58.638  1.00  0.00     0.033 A 
HETATM   20  C   UNL     1     -42.283  57.536 -59.867  1.00  0.00     0.002 A 
HETATM   21  C   UNL     1     -42.931  56.299 -59.915  1.00  0.00     0.003 A 
HETATM   22  C   UNL     1     -43.295  55.666 -58.732  1.00  0.00     0.044 A 
HETATM   23  C   UNL     1     -43.010  56.281 -57.516  1.00  0.00     0.143 A 
HETATM   24  F   UNL     1     -43.360  55.658 -56.378  1.00  0.00    -0.204 F 
ENDBRANCH  15  18
ENDBRANCH  13  14
ENDBRANCH   1  13
BRANCH   4  25
HETATM   25  C   UNL     1     -45.867  60.056 -51.607  1.00  0.00     0.175 C 
BRANCH  25  26
HETATM   26  C   UNL     1     -45.577  60.882 -50.369  1.00  0.00    -0.037 A 
HETATM   27  C   UNL     1     -45.715  60.329 -49.085  1.00  0.00     0.048 A 
HETATM   28  C   UNL     1     -45.439  61.133 -47.999  1.00  0.00     0.105 A 
HETATM   29  C   UNL     1     -45.050  62.445 -48.144  1.00  0.00     0.105 A 
HETATM   30  O   UNL     1     -45.512  60.759 -46.693  1.00  0.00    -0.323 OA
HETATM   31  O   UNL     1     -44.830  63.059 -46.952  1.00  0.00    -0.323 OA
HETATM   32  C   UNL     1     -44.913  63.026 -49.384  1.00  0.00     0.040 A 
HETATM   33  C   UNL     1     -45.095  61.974 -46.038  1.00  0.00     0.352 A 
HETATM   34  C   UNL     1     -45.178  62.234 -50.505  1.00  0.00     0.012 A 
ENDBRANCH  25  26
ENDBRANCH   4  25
BRANCH  11  35
HETATM   35  C   UNL     1     -40.671  54.397 -53.604  1.00  0.00     0.252 C 
HETATM   36  N   UNL     1     -40.426  53.174 -53.011  1.00  0.00    -0.352 N 
HETATM   37  H   UNL     1     -40.900  52.916 -52.159  1.00  0.00     0.163 HD
HETATM   38  O   UNL     1     -40.040  54.804 -54.574  1.00  0.00    -0.268 OA
BRANCH  36  39
HETATM   39  C   UNL     1     -39.359  52.297 -53.490  1.00  0.00     0.084 C 
HETATM   40  C   UNL     1     -38.669  51.582 -52.319  1.00  0.00     0.025 C 
HETATM   41  C   UNL     1     -39.523  50.466 -51.715  1.00  0.00     0.002 C 
HETATM   42  C   UNL     1     -39.986  49.475 -52.776  1.00  0.00     0.000 C 
HETATM   43  C   UNL     1     -40.720  50.178 -53.913  1.00  0.00     0.002 C 
HETATM   44  C   UNL     1     -39.868  51.286 -54.530  1.00  0.00     0.025 C 
ENDBRANCH  36  39
ENDBRANCH  11  35
TORSDOF 7
ENDMDL
MODEL 5
REMARK VINA RESULT:      -8.8      2.794      7.024
REMARK  7 active torsions:
REMARK  status: ('A' for Active; 'I' for Inactive)
REMARK    1  A    between atoms: C_3  and  N_4 
REMARK       I    between atoms: N_4  and  C_5 
REMARK    2  A    between atoms: C_5  and  C_6 
REMARK    3  A    between atoms: C_6  and  N_7 
REMARK    4  A    between atoms: N_10  and  C_11 
REMARK    5  A    between atoms: C_11  and  C_12 
REMARK    6  A    between atoms: C_27  and  C_28 
REMARK       I    between atoms: C_28  and  N_29 
REMARK    7  A    between atoms: N_29  and  C_30 
ROOT
HETATM    1  N   UNL     1     -42.148  58.249 -55.410  1.00  0.00    -0.290 N 
HETATM    2  C   UNL     1     -42.625  57.298 -54.507  1.00  0.00     0.332 C 
HETATM    3  O   UNL     1     -42.795  57.587 -53.318  1.00  0.00    -0.246 OA
HETATM    4  N   UNL     1     -42.931  56.045 -55.012  1.00  0.00    -0.261 N 
HETATM    5  C   UNL     1     -43.031  55.754 -56.361  1.00  0.00     0.264 C 
HETATM    6  O   UNL     1     -43.393  54.668 -56.810  1.00  0.00    -0.267 OA
HETATM    7  C   UNL     1     -42.717  56.841 -57.303  1.00  0.00     0.059 A 
HETATM    8  C   UNL     1     -42.236  58.056 -56.817  1.00  0.00     0.056 A 
HETATM    9  C   UNL     1     -42.946  56.645 -58.676  1.00  0.00     0.020 A 
HETATM   10  C   UNL     1     -42.688  57.666 -59.591  1.00  0.00     0.018 A 
HETATM   11  C   UNL     1     -42.159  58.875 -59.137  1.00  0.00     0.034 A 
HETATM   12  C   UNL     1     -41.925  59.052 -57.757  1.00  0.00     0.048 A 
ENDROOT
BRANCH   1  13
HETATM   13  C   UNL     1     -41.826  59.546 -54.815  1.00  0.00     0.237 C 
BRANCH  13  14
HETATM   14  C   UNL     1     -43.082  60.395 -54.530  1.00  0.00     0.240 C 
HETATM   15  N   UNL     1     -43.319  60.527 -53.172  1.00  0.00    -0.323 N 
HETATM   16  H   UNL     1     -42.600  60.193 -52.537  1.00  0.00     0.169 HD
HETATM   17  O   UNL     1     -43.784  60.836 -55.438  1.00  0.00    -0.271 OA
BRANCH  15  18
HETATM   18  C   UNL     1     -44.395  61.166 -52.524  1.00  0.00     0.073 A 
HETATM   19  C   UNL     1     -44.363  62.463 -52.016  1.00  0.00     0.033 A 
HETATM   20  C   UNL     1     -45.502  63.002 -51.400  1.00  0.00     0.002 A 
HETATM   21  C   UNL     1     -46.676  62.252 -51.290  1.00  0.00     0.003 A 
HETATM   22  C   UNL     1     -46.717  60.957 -51.795  1.00  0.00     0.044 A 
HETATM   23  C   UNL     1     -45.582  60.428 -52.401  1.00  0.00     0.143 A 
HETATM   24  F   UNL     1     -45.632  59.178 -52.892  1.00  0.00    -0.204 F 
ENDBRANCH  15  18
ENDBRANCH  13  14
ENDBRANCH   1  13
BRANCH   4  25
HETATM   25  C   UNL     1     -43.355  55.023 -54.061  1.00  0.00     0.175 C 
BRANCH  25  26
HETATM   26  C   UNL     1     -42.222  54.131 -53.593  1.00  0.00    -0.037 A 
HETATM   27  C   UNL     1     -41.793  53.045 -54.372  1.00  0.00     0.048 A 
HETATM   28  C   UNL     1     -40.760  52.268 -53.889  1.00  0.00     0.105 A 
HETATM   29  C   UNL     1     -40.161  52.525 -52.676  1.00  0.00     0.105 A 
HETATM   30  O   UNL     1     -40.215  51.190 -54.514  1.00  0.00    -0.323 OA
HETATM   31  O   UNL     1     -39.168  51.642 -52.387  1.00  0.00    -0.323 OA
HETATM   32  C   UNL     1     -40.561  53.573 -51.880  1.00  0.00     0.040 A 
HETATM   33  C   UNL     1     -39.188  50.818 -53.572  1.00  0.00     0.352 A 
HETATM   34  C   UNL     1     -41.600  54.382 -52.345  1.00  0.00     0.012 A 
ENDBRANCH  25  26
ENDBRANCH   4  25
BRANCH  11  35
HETATM   35  C   UNL     1     -41.872  60.032 -60.039  1.00  0.00     0.252 C 
HETATM   36  N   UNL     1     -41.655  61.266 -59.459  1.00  0.00    -0.352 N 
HETATM   37  H   UNL     1     -41.773  61.389 -58.464  1.00  0.00     0.163 HD
HETATM   38  O   UNL     1     -41.853  59.855 -61.254  1.00  0.00    -0.268 OA
BRANCH  36  39
HETATM   39  C   UNL     1     -41.422  62.458 -60.272  1.00  0.00     0.084 C 
HETATM   40  C   UNL     1     -42.123  63.681 -59.663  1.00  0.00     0.025 C 
HETATM   41  C   UNL     1     -41.420  64.211 -58.412  1.00  0.00     0.002 C 
HETATM   42  C   UNL     1     -39.943  64.487 -58.671  1.00  0.00     0.000 C 
HETATM   43  C   UNL     1     -39.234  63.255 -59.224  1.00  0.00     0.002 C 
HETATM   44  C   UNL     1     -39.924  62.729 -60.481  1.00  0.00     0.025 C 
ENDBRANCH  36  39
ENDBRANCH  11  35
TORSDOF 7
ENDMDL
MODEL 6
REMARK VINA RESULT:      -8.6      3.257      8.342
REMARK  7 active torsions:
REMARK  status: ('A' for Active; 'I' for Inactive)
REMARK    1  A    between atoms: C_3  and  N_4 
REMARK       I    between atoms: N_4  and  C_5 
REMARK    2  A    between atoms: C_5  and  C_6 
REMARK    3  A    between atoms: C_6  and  N_7 
REMARK    4  A    between atoms: N_10  and  C_11 
REMARK    5  A    between atoms: C_11  and  C_12 
REMARK    6  A    between atoms: C_27  and  C_28 
REMARK       I    between atoms: C_28  and  N_29 
REMARK    7  A    between atoms: N_29  and  C_30 
ROOT
HETATM    1  N   UNL     1     -43.104  59.475 -53.128  1.00  0.00    -0.290 N 
HETATM    2  C   UNL     1     -42.642  60.280 -52.086  1.00  0.00     0.332 C 
HETATM    3  O   UNL     1     -41.581  60.019 -51.509  1.00  0.00    -0.246 OA
HETATM    4  N   UNL     1     -43.402  61.392 -51.763  1.00  0.00    -0.261 N 
HETATM    5  C   UNL     1     -44.429  61.887 -52.547  1.00  0.00     0.264 C 
HETATM    6  O   UNL     1     -45.042  62.926 -52.310  1.00  0.00    -0.267 OA
HETATM    7  C   UNL     1     -44.767  61.125 -53.761  1.00  0.00     0.059 A 
HETATM    8  C   UNL     1     -44.133  59.908 -54.009  1.00  0.00     0.056 A 
HETATM    9  C   UNL     1     -45.698  61.660 -54.668  1.00  0.00     0.020 A 
HETATM   10  C   UNL     1     -46.017  60.978 -55.842  1.00  0.00     0.018 A 
HETATM   11  C   UNL     1     -45.435  59.735 -56.092  1.00  0.00     0.034 A 
HETATM   12  C   UNL     1     -44.510  59.206 -55.166  1.00  0.00     0.048 A 
ENDROOT
BRANCH   1  13
HETATM   13  C   UNL     1     -42.270  58.307 -53.411  1.00  0.00     0.237 C 
BRANCH  13  14
HETATM   14  C   UNL     1     -42.492  57.162 -52.401  1.00  0.00     0.240 C 
HETATM   15  N   UNL     1     -41.304  56.747 -51.822  1.00  0.00    -0.323 N 
HETATM   16  H   UNL     1     -40.474  57.305 -52.003  1.00  0.00     0.169 HD
HETATM   17  O   UNL     1     -43.604  56.678 -52.207  1.00  0.00    -0.271 OA
BRANCH  15  18
HETATM   18  C   UNL     1     -41.089  55.693 -50.911  1.00  0.00     0.073 A 
HETATM   19  C   UNL     1     -41.246  55.787 -49.530  1.00  0.00     0.033 A 
HETATM   20  C   UNL     1     -41.017  54.665 -48.721  1.00  0.00     0.002 A 
HETATM   21  C   UNL     1     -40.632  53.446 -49.284  1.00  0.00     0.003 A 
HETATM   22  C   UNL     1     -40.474  53.342 -50.662  1.00  0.00     0.044 A 
HETATM   23  C   UNL     1     -40.700  54.461 -51.457  1.00  0.00     0.143 A 
HETATM   24  F   UNL     1     -40.551  54.349 -52.789  1.00  0.00    -0.204 F 
ENDBRANCH  15  18
ENDBRANCH  13  14
ENDBRANCH   1  13
BRANCH   4  25
HETATM   25  C   UNL     1     -42.967  62.194 -50.624  1.00  0.00     0.175 C 
BRANCH  25  26
HETATM   26  C   UNL     1     -43.954  62.187 -49.473  1.00  0.00    -0.037 A 
HETATM   27  C   UNL     1     -44.530  60.987 -49.026  1.00  0.00     0.048 A 
HETATM   28  C   UNL     1     -45.424  61.048 -47.976  1.00  0.00     0.105 A 
HETATM   29  C   UNL     1     -45.765  62.239 -47.378  1.00  0.00     0.105 A 
HETATM   30  O   UNL     1     -46.064  59.987 -47.414  1.00  0.00    -0.323 OA
HETATM   31  O   UNL     1     -46.660  62.079 -46.368  1.00  0.00    -0.323 OA
HETATM   32  C   UNL     1     -45.230  63.437 -47.795  1.00  0.00     0.040 A 
HETATM   33  C   UNL     1     -46.820  60.645 -46.377  1.00  0.00     0.352 A 
HETATM   34  C   UNL     1     -44.316  63.407 -48.851  1.00  0.00     0.012 A 
ENDBRANCH  25  26
ENDBRANCH   4  25
BRANCH  11  35
HETATM   35  C   UNL     1     -45.698  58.942 -57.332  1.00  0.00     0.252 C 
HETATM   36  N   UNL     1     -44.613  58.545 -58.088  1.00  0.00    -0.352 N 
HETATM   37  H   UNL     1     -43.684  58.858 -57.849  1.00  0.00     0.163 HD
HETATM   38  O   UNL     1     -46.857  58.684 -57.644  1.00  0.00    -0.268 OA
BRANCH  36  39
HETATM   39  C   UNL     1     -44.786  57.815 -59.342  1.00  0.00     0.084 C 
HETATM   40  C   UNL     1     -43.830  58.344 -60.421  1.00  0.00     0.025 C 
HETATM   41  C   UNL     1     -42.380  57.915 -60.195  1.00  0.00     0.002 C 
HETATM   42  C   UNL     1     -42.258  56.404 -60.036  1.00  0.00     0.000 C 
HETATM   43  C   UNL     1     -43.166  55.885 -58.927  1.00  0.00     0.002 C 
HETATM   44  C   UNL     1     -44.619  56.299 -59.153  1.00  0.00     0.025 C 
ENDBRANCH  36  39
ENDBRANCH  11  35
TORSDOF 7
ENDMDL
MODEL 7
REMARK VINA RESULT:      -8.5      3.610      8.929
REMARK  7 active torsions:
REMARK  status: ('A' for Active; 'I' for Inactive)
REMARK    1  A    between atoms: C_3  and  N_4 
REMARK       I    between atoms: N_4  and  C_5 
REMARK    2  A    between atoms: C_5  and  C_6 
REMARK    3  A    between atoms: C_6  and  N_7 
REMARK    4  A    between atoms: N_10  and  C_11 
REMARK    5  A    between atoms: C_11  and  C_12 
REMARK    6  A    between atoms: C_27  and  C_28 
REMARK       I    between atoms: C_28  and  N_29 
REMARK    7  A    between atoms: N_29  and  C_30 
ROOT
HETATM    1  N   UNL     1     -44.598  59.026 -56.272  1.00  0.00    -0.290 N 
HETATM    2  C   UNL     1     -44.654  60.027 -57.243  1.00  0.00     0.332 C 
HETATM    3  O   UNL     1     -44.858  61.203 -56.926  1.00  0.00    -0.246 OA
HETATM    4  N   UNL     1     -44.434  59.645 -58.557  1.00  0.00    -0.261 N 
HETATM    5  C   UNL     1     -43.928  58.414 -58.934  1.00  0.00     0.264 C 
HETATM    6  O   UNL     1     -43.644  58.108 -60.091  1.00  0.00    -0.267 OA
HETATM    7  C   UNL     1     -43.683  57.436 -57.861  1.00  0.00     0.059 A 
HETATM    8  C   UNL     1     -44.064  57.738 -56.555  1.00  0.00     0.056 A 
HETATM    9  C   UNL     1     -43.032  56.230 -58.170  1.00  0.00     0.020 A 
HETATM   10  C   UNL     1     -42.758  55.296 -57.171  1.00  0.00     0.018 A 
HETATM   11  C   UNL     1     -43.173  55.550 -55.863  1.00  0.00     0.034 A 
HETATM   12  C   UNL     1     -43.835  56.762 -55.571  1.00  0.00     0.048 A 
ENDROOT
BRANCH   1  13
HETATM   13  C   UNL     1     -44.857  59.486 -54.908  1.00  0.00     0.237 C 
BRANCH  13  14
HETATM   14  C   UNL     1     -43.576  59.961 -54.191  1.00  0.00     0.240 C 
HETATM   15  N   UNL     1     -43.218  59.111 -53.157  1.00  0.00    -0.323 N 
HETATM   16  H   UNL     1     -43.723  58.234 -53.076  1.00  0.00     0.169 HD
HETATM   17  O   UNL     1     -43.008  61.004 -54.505  1.00  0.00    -0.271 OA
BRANCH  15  18
HETATM   18  C   UNL     1     -42.158  59.241 -52.237  1.00  0.00     0.073 A 
HETATM   19  C   UNL     1     -42.290  59.694 -50.927  1.00  0.00     0.033 A 
HETATM   20  C   UNL     1     -41.164  59.769 -50.095  1.00  0.00     0.002 A 
HETATM   21  C   UNL     1     -39.903  59.391 -50.564  1.00  0.00     0.003 A 
HETATM   22  C   UNL     1     -39.762  58.935 -51.871  1.00  0.00     0.044 A 
HETATM   23  C   UNL     1     -40.884  58.868 -52.691  1.00  0.00     0.143 A 
HETATM   24  F   UNL     1     -40.739  58.421 -53.950  1.00  0.00    -0.204 F 
ENDBRANCH  15  18
ENDBRANCH  13  14
ENDBRANCH   1  13
BRANCH   4  25
HETATM   25  C   UNL     1     -44.568  60.672 -59.585  1.00  0.00     0.175 C 
BRANCH  25  26
HETATM   26  C   UNL     1     -43.242  61.261 -60.023  1.00  0.00    -0.037 A 
HETATM   27  C   UNL     1     -42.382  61.869 -59.094  1.00  0.00     0.048 A 
HETATM   28  C   UNL     1     -41.191  62.390 -59.557  1.00  0.00     0.105 A 
HETATM   29  C   UNL     1     -40.841  62.337 -60.886  1.00  0.00     0.105 A 
HETATM   30  O   UNL     1     -40.242  63.001 -58.797  1.00  0.00    -0.323 OA
HETATM   31  O   UNL     1     -39.631  62.908 -61.130  1.00  0.00    -0.323 OA
HETATM   32  C   UNL     1     -41.661  61.759 -61.828  1.00  0.00     0.040 A 
HETATM   33  C   UNL     1     -39.244  63.298 -59.796  1.00  0.00     0.352 A 
HETATM   34  C   UNL     1     -42.871  61.216 -61.389  1.00  0.00     0.012 A 
ENDBRANCH  25  26
ENDBRANCH   4  25
BRANCH  11  35
HETATM   35  C   UNL     1     -42.904  54.620 -54.724  1.00  0.00     0.252 C 
HETATM   36  N   UNL     1     -43.230  55.045 -53.451  1.00  0.00    -0.352 N 
HETATM   37  H   UNL     1     -43.558  55.987 -53.297  1.00  0.00     0.163 HD
HETATM   38  O   UNL     1     -42.395  53.526 -54.950  1.00  0.00    -0.268 OA
BRANCH  36  39
HETATM   39  C   UNL     1     -42.949  54.219 -52.278  1.00  0.00     0.084 C 
HETATM   40  C   UNL     1     -41.440  54.158 -52.000  1.00  0.00     0.025 C 
HETATM   41  C   UNL     1     -40.890  55.456 -51.406  1.00  0.00     0.002 C 
HETATM   42  C   UNL     1     -41.669  55.882 -50.167  1.00  0.00     0.000 C 
HETATM   43  C   UNL     1     -43.161  55.997 -50.458  1.00  0.00     0.002 C 
HETATM   44  C   UNL     1     -43.720  54.699 -51.039  1.00  0.00     0.025 C 
ENDBRANCH  36  39
ENDBRANCH  11  35
TORSDOF 7
ENDMDL
MODEL 8
REMARK VINA RESULT:      -8.4      3.713      9.098
REMARK  7 active torsions:
REMARK  status: ('A' for Active; 'I' for Inactive)
REMARK    1  A    between atoms: C_3  and  N_4 
REMARK       I    between atoms: N_4  and  C_5 
REMARK    2  A    between atoms: C_5  and  C_6 
REMARK    3  A    between atoms: C_6  and  N_7 
REMARK    4  A    between atoms: N_10  and  C_11 
REMARK    5  A    between atoms: C_11  and  C_12 
REMARK    6  A    between atoms: C_27  and  C_28 
REMARK       I    between atoms: C_28  and  N_29 
REMARK    7  A    between atoms: N_29  and  C_30 
ROOT
HETATM    1  N   UNL     1     -44.408  59.476 -56.252  1.00  0.00    -0.290 N 
HETATM    2  C   UNL     1     -44.370  60.540 -57.154  1.00  0.00     0.332 C 
HETATM    3  O   UNL     1     -44.501  61.704 -56.762  1.00  0.00    -0.246 OA
HETATM    4  N   UNL     1     -44.143  60.232 -58.485  1.00  0.00    -0.261 N 
HETATM    5  C   UNL     1     -43.713  58.996 -58.935  1.00  0.00     0.264 C 
HETATM    6  O   UNL     1     -43.421  58.748 -60.104  1.00  0.00    -0.267 OA
HETATM    7  C   UNL     1     -43.563  57.935 -57.926  1.00  0.00     0.059 A 
HETATM    8  C   UNL     1     -43.956  58.175 -56.610  1.00  0.00     0.056 A 
HETATM    9  C   UNL     1     -42.989  56.708 -58.303  1.00  0.00     0.020 A 
HETATM   10  C   UNL     1     -42.804  55.693 -57.364  1.00  0.00     0.018 A 
HETATM   11  C   UNL     1     -43.234  55.889 -56.051  1.00  0.00     0.034 A 
HETATM   12  C   UNL     1     -43.819  57.122 -55.691  1.00  0.00     0.048 A 
ENDROOT
BRANCH   1  13
HETATM   13  C   UNL     1     -44.669  59.861 -54.865  1.00  0.00     0.237 C 
BRANCH  13  14
HETATM   14  C   UNL     1     -43.384  60.263 -54.111  1.00  0.00     0.240 C 
HETATM   15  N   UNL     1     -42.918  59.239 -53.304  1.00  0.00    -0.323 N 
HETATM   16  H   UNL     1     -43.362  58.329 -53.397  1.00  0.00     0.169 HD
HETATM   17  O   UNL     1     -42.902  61.388 -54.210  1.00  0.00    -0.271 OA
BRANCH  15  18
HETATM   18  C   UNL     1     -41.821  59.244 -52.418  1.00  0.00     0.073 A 
HETATM   19  C   UNL     1     -40.505  58.963 -52.778  1.00  0.00     0.033 A 
HETATM   20  C   UNL     1     -39.489  59.012 -51.812  1.00  0.00     0.002 A 
HETATM   21  C   UNL     1     -39.781  59.342 -50.486  1.00  0.00     0.003 A 
HETATM   22  C   UNL     1     -41.092  59.626 -50.118  1.00  0.00     0.044 A 
HETATM   23  C   UNL     1     -42.094  59.571 -51.082  1.00  0.00     0.143 A 
HETATM   24  F   UNL     1     -43.357  59.853 -50.719  1.00  0.00    -0.204 F 
ENDBRANCH  15  18
ENDBRANCH  13  14
ENDBRANCH   1  13
BRANCH   4  25
HETATM   25  C   UNL     1     -44.181  61.331 -59.444  1.00  0.00     0.175 C 
BRANCH  25  26
HETATM   26  C   UNL     1     -42.805  61.821 -59.851  1.00  0.00    -0.037 A 
HETATM   27  C   UNL     1     -42.464  61.965 -61.205  1.00  0.00     0.048 A 
HETATM   28  C   UNL     1     -41.195  62.412 -61.510  1.00  0.00     0.105 A 
HETATM   29  C   UNL     1     -40.270  62.703 -60.534  1.00  0.00     0.105 A 
HETATM   30  O   UNL     1     -40.703  62.617 -62.763  1.00  0.00    -0.323 OA
HETATM   31  O   UNL     1     -39.084  63.125 -61.046  1.00  0.00    -0.323 OA
HETATM   32  C   UNL     1     -40.563  62.565 -59.196  1.00  0.00     0.040 A 
HETATM   33  C   UNL     1     -39.377  63.097 -62.459  1.00  0.00     0.352 A 
HETATM   34  C   UNL     1     -41.843  62.121 -58.855  1.00  0.00     0.012 A 
ENDBRANCH  25  26
ENDBRANCH   4  25
BRANCH  11  35
HETATM   35  C   UNL     1     -43.059  54.868 -54.972  1.00  0.00     0.252 C 
HETATM   36  N   UNL     1     -43.036  55.308 -53.664  1.00  0.00    -0.352 N 
HETATM   37  H   UNL     1     -43.051  56.296 -53.458  1.00  0.00     0.163 HD
HETATM   38  O   UNL     1     -42.928  53.687 -55.279  1.00  0.00    -0.268 OA
BRANCH  36  39
HETATM   39  C   UNL     1     -42.814  54.383 -52.554  1.00  0.00     0.084 C 
HETATM   40  C   UNL     1     -41.325  54.323 -52.181  1.00  0.00     0.025 C 
HETATM   41  C   UNL     1     -40.845  55.570 -51.437  1.00  0.00     0.002 C 
HETATM   42  C   UNL     1     -41.713  55.867 -50.219  1.00  0.00     0.000 C 
HETATM   43  C   UNL     1     -43.185  55.983 -50.598  1.00  0.00     0.002 C 
HETATM   44  C   UNL     1     -43.675  54.734 -51.331  1.00  0.00     0.025 C 
ENDBRANCH  36  39
ENDBRANCH  11  35
TORSDOF 7
ENDMDL
MODEL 9
REMARK VINA RESULT:      -8.3     17.894     20.955
REMARK  7 active torsions:
REMARK  status: ('A' for Active; 'I' for Inactive)
REMARK    1  A    between atoms: C_3  and  N_4 
REMARK       I    between atoms: N_4  and  C_5 
REMARK    2  A    between atoms: C_5  and  C_6 
REMARK    3  A    between atoms: C_6  and  N_7 
REMARK    4  A    between atoms: N_10  and  C_11 
REMARK    5  A    between atoms: C_11  and  C_12 
REMARK    6  A    between atoms: C_27  and  C_28 
REMARK       I    between atoms: C_28  and  N_29 
REMARK    7  A    between atoms: N_29  and  C_30 
ROOT
HETATM    1  N   UNL     1     -39.281  40.373 -51.817  1.00  0.00    -0.290 N 
HETATM    2  C   UNL     1     -40.463  39.715 -51.474  1.00  0.00     0.332 C 
HETATM    3  O   UNL     1     -41.559  40.156 -51.837  1.00  0.00    -0.246 OA
HETATM    4  N   UNL     1     -40.345  38.539 -50.750  1.00  0.00    -0.261 N 
HETATM    5  C   UNL     1     -39.155  37.858 -50.564  1.00  0.00     0.264 C 
HETATM    6  O   UNL     1     -39.063  36.767 -50.003  1.00  0.00    -0.267 OA
HETATM    7  C   UNL     1     -37.939  38.476 -51.117  1.00  0.00     0.059 A 
HETATM    8  C   UNL     1     -38.011  39.743 -51.693  1.00  0.00     0.056 A 
HETATM    9  C   UNL     1     -36.731  37.757 -51.087  1.00  0.00     0.020 A 
HETATM   10  C   UNL     1     -35.568  38.302 -51.630  1.00  0.00     0.018 A 
HETATM   11  C   UNL     1     -35.601  39.589 -52.168  1.00  0.00     0.034 A 
HETATM   12  C   UNL     1     -36.819  40.302 -52.181  1.00  0.00     0.048 A 
ENDROOT
BRANCH   1  13
HETATM   13  C   UNL     1     -39.471  41.616 -52.565  1.00  0.00     0.237 C 
BRANCH  13  14
HETATM   14  C   UNL     1     -39.491  41.391 -54.091  1.00  0.00     0.240 C 
HETATM   15  N   UNL     1     -38.215  41.400 -54.631  1.00  0.00    -0.323 N 
HETATM   16  H   UNL     1     -37.433  41.406 -53.983  1.00  0.00     0.169 HD
HETATM   17  O   UNL     1     -40.544  41.277 -54.714  1.00  0.00    -0.271 OA
BRANCH  15  18
HETATM   18  C   UNL     1     -37.830  41.295 -55.983  1.00  0.00     0.073 A 
HETATM   19  C   UNL     1     -38.522  40.578 -56.956  1.00  0.00     0.033 A 
HETATM   20  C   UNL     1     -38.050  40.556 -58.277  1.00  0.00     0.002 A 
HETATM   21  C   UNL     1     -36.890  41.248 -58.632  1.00  0.00     0.003 A 
HETATM   22  C   UNL     1     -36.193  41.968 -57.667  1.00  0.00     0.044 A 
HETATM   23  C   UNL     1     -36.666  41.982 -56.358  1.00  0.00     0.143 A 
HETATM   24  F   UNL     1     -35.990  42.685 -55.433  1.00  0.00    -0.204 F 
ENDBRANCH  15  18
ENDBRANCH  13  14
ENDBRANCH   1  13
BRANCH   4  25
HETATM   25  C   UNL     1     -41.578  37.889 -50.321  1.00  0.00     0.175 C 
BRANCH  25  26
HETATM   26  C   UNL     1     -41.893  38.106 -48.854  1.00  0.00    -0.037 A 
HETATM   27  C   UNL     1     -41.115  38.976 -48.072  1.00  0.00     0.048 A 
HETATM   28  C   UNL     1     -41.450  39.127 -46.742  1.00  0.00     0.105 A 
HETATM   29  C   UNL     1     -42.503  38.448 -46.174  1.00  0.00     0.105 A 
HETATM   30  O   UNL     1     -40.814  39.931 -45.848  1.00  0.00    -0.323 OA
HETATM   31  O   UNL     1     -42.661  38.737 -44.856  1.00  0.00    -0.323 OA
HETATM   32  C   UNL     1     -43.283  37.579 -46.905  1.00  0.00     0.040 A 
HETATM   33  C   UNL     1     -41.606  39.702 -44.664  1.00  0.00     0.352 A 
HETATM   34  C   UNL     1     -42.972  37.410 -48.257  1.00  0.00     0.012 A 
ENDBRANCH  25  26
ENDBRANCH   4  25
BRANCH  11  35
HETATM   35  C   UNL     1     -34.411  40.245 -52.792  1.00  0.00     0.252 C 
HETATM   36  N   UNL     1     -34.063  39.869 -54.074  1.00  0.00    -0.352 N 
HETATM   37  H   UNL     1     -34.550  39.114 -54.534  1.00  0.00     0.163 HD
HETATM   38  O   UNL     1     -33.779  41.078 -52.148  1.00  0.00    -0.268 OA
BRANCH  36  39
HETATM   39  C   UNL     1     -32.883  40.422 -54.735  1.00  0.00     0.084 C 
HETATM   40  C   UNL     1     -31.642  39.563 -54.450  1.00  0.00     0.025 C 
HETATM   41  C   UNL     1     -31.642  38.242 -55.220  1.00  0.00     0.002 C 
HETATM   42  C   UNL     1     -31.834  38.462 -56.716  1.00  0.00     0.000 C 
HETATM   43  C   UNL     1     -33.097  39.268 -57.003  1.00  0.00     0.002 C 
HETATM   44  C   UNL     1     -33.098  40.596 -56.247  1.00  0.00     0.025 C 
ENDBRANCH  36  39
ENDBRANCH  11  35
TORSDOF 7
ENDMDL
MODEL 10
REMARK VINA RESULT:      -8.3      3.278      7.045
REMARK  7 active torsions:
REMARK  status: ('A' for Active; 'I' for Inactive)
REMARK    1  A    between atoms: C_3  and  N_4 
REMARK       I    between atoms: N_4  and  C_5 
REMARK    2  A    between atoms: C_5  and  C_6 
REMARK    3  A    between atoms: C_6  and  N_7 
REMARK    4  A    between atoms: N_10  and  C_11 
REMARK    5  A    between atoms: C_11  and  C_12 
REMARK    6  A    between atoms: C_27  and  C_28 
REMARK       I    between atoms: C_28  and  N_29 
REMARK    7  A    between atoms: N_29  and  C_30 
ROOT
HETATM    1  N   UNL     1     -41.856  58.461 -54.136  1.00  0.00    -0.290 N 
HETATM    2  C   UNL     1     -42.363  57.404 -53.379  1.00  0.00     0.332 C 
HETATM    3  O   UNL     1     -42.450  57.494 -52.150  1.00  0.00    -0.246 OA
HETATM    4  N   UNL     1     -42.794  56.282 -54.068  1.00  0.00    -0.261 N 
HETATM    5  C   UNL     1     -42.984  56.236 -55.437  1.00  0.00     0.264 C 
HETATM    6  O   UNL     1     -43.455  55.273 -56.039  1.00  0.00    -0.267 OA
HETATM    7  C   UNL     1     -42.630  57.445 -56.200  1.00  0.00     0.059 A 
HETATM    8  C   UNL     1     -42.029  58.520 -55.547  1.00  0.00     0.056 A 
HETATM    9  C   UNL     1     -42.942  57.506 -57.570  1.00  0.00     0.020 A 
HETATM   10  C   UNL     1     -42.648  58.648 -58.314  1.00  0.00     0.018 A 
HETATM   11  C   UNL     1     -42.002  59.720 -57.697  1.00  0.00     0.034 A 
HETATM   12  C   UNL     1     -41.686  59.639 -56.324  1.00  0.00     0.048 A 
ENDROOT
BRANCH   1  13
HETATM   13  C   UNL     1     -41.401  59.609 -53.353  1.00  0.00     0.237 C 
BRANCH  13  14
HETATM   14  C   UNL     1     -42.570  60.470 -52.831  1.00  0.00     0.240 C 
HETATM   15  N   UNL     1     -42.544  60.593 -51.452  1.00  0.00    -0.323 N 
HETATM   16  H   UNL     1     -41.723  60.246 -50.966  1.00  0.00     0.169 HD
HETATM   17  O   UNL     1     -43.424  60.926 -53.587  1.00  0.00    -0.271 OA
BRANCH  15  18
HETATM   18  C   UNL     1     -43.470  61.239 -50.608  1.00  0.00     0.073 A 
HETATM   19  C   UNL     1     -43.351  62.548 -50.147  1.00  0.00     0.033 A 
HETATM   20  C   UNL     1     -44.344  63.093 -49.319  1.00  0.00     0.002 A 
HETATM   21  C   UNL     1     -45.459  62.336 -48.950  1.00  0.00     0.003 A 
HETATM   22  C   UNL     1     -45.587  61.028 -49.406  1.00  0.00     0.044 A 
HETATM   23  C   UNL     1     -44.596  60.494 -50.224  1.00  0.00     0.143 A 
HETATM   24  F   UNL     1     -44.731  59.232 -50.666  1.00  0.00    -0.204 F 
ENDBRANCH  15  18
ENDBRANCH  13  14
ENDBRANCH   1  13
BRANCH   4  25
HETATM   25  C   UNL     1     -43.251  55.144 -53.277  1.00  0.00     0.175 C 
BRANCH  25  26
HETATM   26  C   UNL     1     -42.156  54.139 -52.983  1.00  0.00    -0.037 A 
HETATM   27  C   UNL     1     -41.720  53.239 -53.969  1.00  0.00     0.048 A 
HETATM   28  C   UNL     1     -40.722  52.346 -53.637  1.00  0.00     0.105 A 
HETATM   29  C   UNL     1     -40.165  52.310 -52.379  1.00  0.00     0.105 A 
HETATM   30  O   UNL     1     -40.177  51.417 -54.469  1.00  0.00    -0.323 OA
HETATM   31  O   UNL     1     -39.203  51.357 -52.262  1.00  0.00    -0.323 OA
HETATM   32  C   UNL     1     -40.573  53.168 -51.383  1.00  0.00     0.040 A 
HETATM   33  C   UNL     1     -39.195  50.817 -53.599  1.00  0.00     0.352 A 
HETATM   34  C   UNL     1     -41.577  54.089 -51.691  1.00  0.00     0.012 A 
ENDBRANCH  25  26
ENDBRANCH   4  25
BRANCH  11  35
HETATM   35  C   UNL     1     -41.667  60.992 -58.407  1.00  0.00     0.252 C 
HETATM   36  N   UNL     1     -42.493  61.392 -59.439  1.00  0.00    -0.352 N 
HETATM   37  H   UNL     1     -43.244  60.795 -59.753  1.00  0.00     0.163 HD
HETATM   38  O   UNL     1     -40.675  61.628 -58.065  1.00  0.00    -0.268 OA
BRANCH  36  39
HETATM   39  C   UNL     1     -42.206  62.595 -60.220  1.00  0.00     0.084 C 
HETATM   40  C   UNL     1     -41.330  62.261 -61.437  1.00  0.00     0.025 C 
HETATM   41  C   UNL     1     -42.099  61.540 -62.546  1.00  0.00     0.002 C 
HETATM   42  C   UNL     1     -43.351  62.309 -62.954  1.00  0.00     0.000 C 
HETATM   43  C   UNL     1     -44.248  62.591 -61.753  1.00  0.00     0.002 C 
HETATM   44  C   UNL     1     -43.490  63.323 -60.647  1.00  0.00     0.025 C 
ENDBRANCH  36  39
ENDBRANCH  11  35
TORSDOF 7
ENDMDL
