MODEL 1
REMARK VINA RESULT:      -8.0      0.000      0.000
REMARK  9 active torsions:
REMARK  status: ('A' for Active; 'I' for Inactive)
REMARK       I    between atoms: N_2  and  C_3 
REMARK    1  A    between atoms: C_3  and  C_4 
REMARK    2  A    between atoms: C_4  and  S_5 
REMARK    3  A    between atoms: S_5  and  C_6 
REMARK    4  A    between atoms: N_7  and  C_8 
REMARK    5  A    between atoms: C_8  and  C_9 
REMARK    6  A    between atoms: C_11  and  C_12 
REMARK    7  A    between atoms: C_12  and  O_13 
REMARK    8  A    between atoms: O_13  and  C_14 
REMARK    9  A    between atoms: C_15  and  C_16 
ROOT
HETATM    1  C   UNL     1     -42.787  56.216 -56.081  1.00  0.00     0.192 A 
HETATM    2  N   UNL     1     -42.855  56.362 -54.722  1.00  0.00    -0.306 N 
HETATM    3  C   UNL     1     -43.178  55.108 -54.241  1.00  0.00     0.155 A 
HETATM    4  N   UNL     1     -43.233  54.266 -55.257  1.00  0.00    -0.132 NA
HETATM    5  N   UNL     1     -42.995  54.966 -56.411  1.00  0.00    -0.123 NA
ENDROOT
BRANCH   3   6
HETATM    6  C   UNL     1     -43.438  54.763 -52.815  1.00  0.00     0.256 C 
BRANCH   6   7
HETATM    7  O   UNL     1     -42.594  53.649 -52.511  1.00  0.00    -0.343 OA
BRANCH   7   8
HETATM    8  C   UNL     1     -41.648  53.979 -51.573  1.00  0.00     0.080 A 
HETATM    9  C   UNL     1     -40.476  53.210 -51.425  1.00  0.00     0.007 A 
HETATM   10  C   UNL     1     -39.596  53.584 -50.386  1.00  0.00     0.015 A 
HETATM   11  C   UNL     1     -39.869  54.663 -49.540  1.00  0.00     0.001 A 
HETATM   12  C   UNL     1     -41.042  55.392 -49.700  1.00  0.00     0.003 A 
HETATM   13  C   UNL     1     -41.937  55.043 -50.707  1.00  0.00     0.037 A 
BRANCH   9  14
HETATM   14  C   UNL     1     -40.134  52.049 -52.282  1.00  0.00    -0.023 A 
HETATM   15  C   UNL     1     -39.793  50.806 -51.714  1.00  0.00     0.012 A 
HETATM   16  C   UNL     1     -39.513  49.689 -52.508  1.00  0.00     0.001 A 
HETATM   17  C   UNL     1     -39.559  49.794 -53.894  1.00  0.00     0.000 A 
HETATM   18  C   UNL     1     -39.882  51.014 -54.482  1.00  0.00     0.001 A 
HETATM   19  C   UNL     1     -40.172  52.126 -53.684  1.00  0.00     0.012 A 
ENDBRANCH   9  14
ENDBRANCH   7   8
ENDBRANCH   6   7
ENDBRANCH   3   6
BRANCH   2  20
HETATM   20  C   UNL     1     -42.512  57.538 -53.941  1.00  0.00     0.159 C 
BRANCH  20  21
HETATM   21  C   UNL     1     -41.111  57.603 -53.404  1.00  0.00    -0.017 C 
HETATM   22  C   UNL     1     -40.616  58.432 -52.475  1.00  0.00     0.008 C 
ENDBRANCH  20  21
ENDBRANCH   2  20
BRANCH   1  23
HETATM   23  S   UNL     1     -42.465  57.475 -57.216  1.00  0.00    -0.081 SA
BRANCH  23  24
HETATM   24  C   UNL     1     -44.082  57.633 -58.012  1.00  0.00     0.185 C 
BRANCH  24  25
HETATM   25  C   UNL     1     -44.327  56.792 -59.256  1.00  0.00     0.226 C 
HETATM   26  N   UNL     1     -44.762  55.501 -59.100  1.00  0.00    -0.365 N 
HETATM   27  C   UNL     1     -44.836  54.591 -60.214  1.00  0.00     0.149 C 
HETATM   28  H   UNL     1     -44.710  55.085 -58.172  1.00  0.00     0.161 HD
HETATM   29  O   UNL     1     -44.081  57.268 -60.368  1.00  0.00    -0.273 OA
ENDBRANCH  24  25
ENDBRANCH  23  24
ENDBRANCH   1  23
TORSDOF 9
ENDMDL
MODEL 2
REMARK VINA RESULT:      -7.6      2.256      4.627
REMARK  9 active torsions:
REMARK  status: ('A' for Active; 'I' for Inactive)
REMARK       I    between atoms: N_2  and  C_3 
REMARK    1  A    between atoms: C_3  and  C_4 
REMARK    2  A    between atoms: C_4  and  S_5 
REMARK    3  A    between atoms: S_5  and  C_6 
REMARK    4  A    between atoms: N_7  and  C_8 
REMARK    5  A    between atoms: C_8  and  C_9 
REMARK    6  A    between atoms: C_11  and  C_12 
REMARK    7  A    between atoms: C_12  and  O_13 
REMARK    8  A    between atoms: O_13  and  C_14 
REMARK    9  A    between atoms: C_15  and  C_16 
ROOT
HETATM    1  C   UNL     1     -43.299  56.810 -55.806  1.00  0.00     0.192 A 
HETATM    2  N   UNL     1     -43.213  55.943 -54.751  1.00  0.00    -0.306 N 
HETATM    3  C   UNL     1     -42.576  54.826 -55.254  1.00  0.00     0.155 A 
HETATM    4  N   UNL     1     -42.253  55.054 -56.514  1.00  0.00    -0.132 NA
HETATM    5  N   UNL     1     -42.715  56.296 -56.860  1.00  0.00    -0.123 NA
ENDROOT
BRANCH   3   6
HETATM    6  C   UNL     1     -42.311  53.564 -54.506  1.00  0.00     0.256 C 
BRANCH   6   7
HETATM    7  O   UNL     1     -40.946  53.629 -54.081  1.00  0.00    -0.343 OA
BRANCH   7   8
HETATM    8  C   UNL     1     -40.503  52.411 -53.631  1.00  0.00     0.080 A 
HETATM    9  C   UNL     1     -40.288  52.181 -52.257  1.00  0.00     0.007 A 
HETATM   10  C   UNL     1     -39.764  50.921 -51.896  1.00  0.00     0.015 A 
HETATM   11  C   UNL     1     -39.469  49.943 -52.852  1.00  0.00     0.001 A 
HETATM   12  C   UNL     1     -39.676  50.206 -54.201  1.00  0.00     0.003 A 
HETATM   13  C   UNL     1     -40.180  51.442 -54.592  1.00  0.00     0.037 A 
BRANCH   9  14
HETATM   14  C   UNL     1     -40.571  53.178 -51.197  1.00  0.00    -0.023 A 
HETATM   15  C   UNL     1     -41.895  53.544 -50.882  1.00  0.00     0.012 A 
HETATM   16  C   UNL     1     -42.180  54.447 -49.853  1.00  0.00     0.001 A 
HETATM   17  C   UNL     1     -41.144  55.015 -49.120  1.00  0.00     0.000 A 
HETATM   18  C   UNL     1     -39.826  54.680 -49.417  1.00  0.00     0.001 A 
HETATM   19  C   UNL     1     -39.544  53.768 -50.440  1.00  0.00     0.012 A 
ENDBRANCH   9  14
ENDBRANCH   7   8
ENDBRANCH   6   7
ENDBRANCH   3   6
BRANCH   2  20
HETATM   20  C   UNL     1     -43.572  56.198 -53.367  1.00  0.00     0.159 C 
BRANCH  20  21
HETATM   21  C   UNL     1     -42.533  56.871 -52.516  1.00  0.00    -0.017 C 
HETATM   22  C   UNL     1     -41.202  56.731 -52.567  1.00  0.00     0.008 C 
ENDBRANCH  20  21
ENDBRANCH   2  20
BRANCH   1  23
HETATM   23  S   UNL     1     -44.051  58.363 -55.778  1.00  0.00    -0.081 SA
BRANCH  23  24
HETATM   24  C   UNL     1     -42.598  59.438 -55.677  1.00  0.00     0.185 C 
BRANCH  24  25
HETATM   25  C   UNL     1     -42.164  59.887 -54.290  1.00  0.00     0.226 C 
HETATM   26  N   UNL     1     -43.110  60.399 -53.440  1.00  0.00    -0.365 N 
HETATM   27  C   UNL     1     -42.746  61.014 -52.190  1.00  0.00     0.149 C 
HETATM   28  H   UNL     1     -44.017  60.651 -53.827  1.00  0.00     0.161 HD
HETATM   29  O   UNL     1     -40.971  59.831 -53.980  1.00  0.00    -0.273 OA
ENDBRANCH  24  25
ENDBRANCH  23  24
ENDBRANCH   1  23
TORSDOF 9
ENDMDL
MODEL 3
REMARK VINA RESULT:      -7.5      2.127      5.108
REMARK  9 active torsions:
REMARK  status: ('A' for Active; 'I' for Inactive)
REMARK       I    between atoms: N_2  and  C_3 
REMARK    1  A    between atoms: C_3  and  C_4 
REMARK    2  A    between atoms: C_4  and  S_5 
REMARK    3  A    between atoms: S_5  and  C_6 
REMARK    4  A    between atoms: N_7  and  C_8 
REMARK    5  A    between atoms: C_8  and  C_9 
REMARK    6  A    between atoms: C_11  and  C_12 
REMARK    7  A    between atoms: C_12  and  O_13 
REMARK    8  A    between atoms: O_13  and  C_14 
REMARK    9  A    between atoms: C_15  and  C_16 
ROOT
HETATM    1  C   UNL     1     -43.459  57.063 -54.609  1.00  0.00     0.192 A 
HETATM    2  N   UNL     1     -42.754  56.102 -55.280  1.00  0.00    -0.306 N 
HETATM    3  C   UNL     1     -42.796  54.988 -54.465  1.00  0.00     0.155 A 
HETATM    4  N   UNL     1     -43.538  55.265 -53.408  1.00  0.00    -0.132 NA
HETATM    5  N   UNL     1     -43.946  56.570 -53.497  1.00  0.00    -0.123 NA
ENDROOT
BRANCH   3   6
HETATM    6  C   UNL     1     -42.106  53.693 -54.724  1.00  0.00     0.256 C 
BRANCH   6   7
HETATM    7  O   UNL     1     -40.878  53.738 -53.992  1.00  0.00    -0.343 OA
BRANCH   7   8
HETATM    8  C   UNL     1     -40.490  52.486 -53.586  1.00  0.00     0.080 A 
HETATM    9  C   UNL     1     -40.309  52.191 -52.220  1.00  0.00     0.007 A 
HETATM   10  C   UNL     1     -39.840  50.897 -51.904  1.00  0.00     0.015 A 
HETATM   11  C   UNL     1     -39.565  49.950 -52.895  1.00  0.00     0.001 A 
HETATM   12  C   UNL     1     -39.736  50.276 -54.235  1.00  0.00     0.003 A 
HETATM   13  C   UNL     1     -40.186  51.547 -54.582  1.00  0.00     0.037 A 
BRANCH   9  14
HETATM   14  C   UNL     1     -40.574  53.153 -51.123  1.00  0.00    -0.023 A 
HETATM   15  C   UNL     1     -39.532  53.603 -50.288  1.00  0.00     0.012 A 
HETATM   16  C   UNL     1     -39.756  54.546 -49.280  1.00  0.00     0.001 A 
HETATM   17  C   UNL     1     -41.035  55.054 -49.076  1.00  0.00     0.000 A 
HETATM   18  C   UNL     1     -42.085  54.618 -49.879  1.00  0.00     0.001 A 
HETATM   19  C   UNL     1     -41.855  53.683 -50.894  1.00  0.00     0.012 A 
ENDBRANCH   9  14
ENDBRANCH   7   8
ENDBRANCH   6   7
ENDBRANCH   3   6
BRANCH   2  20
HETATM   20  C   UNL     1     -42.210  56.183 -56.625  1.00  0.00     0.159 C 
BRANCH  20  21
HETATM   21  C   UNL     1     -43.094  55.700 -57.738  1.00  0.00    -0.017 C 
HETATM   22  C   UNL     1     -43.038  56.015 -59.039  1.00  0.00     0.008 C 
ENDBRANCH  20  21
ENDBRANCH   2  20
BRANCH   1  23
HETATM   23  S   UNL     1     -43.700  58.689 -55.132  1.00  0.00    -0.081 SA
BRANCH  23  24
HETATM   24  C   UNL     1     -43.107  59.599 -53.684  1.00  0.00     0.185 C 
BRANCH  24  25
HETATM   25  C   UNL     1     -41.778  59.163 -53.087  1.00  0.00     0.226 C 
HETATM   26  N   UNL     1     -41.784  58.497 -51.888  1.00  0.00    -0.365 N 
HETATM   27  C   UNL     1     -40.565  58.219 -51.175  1.00  0.00     0.149 C 
HETATM   28  H   UNL     1     -42.644  58.498 -51.343  1.00  0.00     0.161 HD
HETATM   29  O   UNL     1     -40.728  59.460 -53.663  1.00  0.00    -0.273 OA
ENDBRANCH  24  25
ENDBRANCH  23  24
ENDBRANCH   1  23
TORSDOF 9
ENDMDL
MODEL 4
REMARK VINA RESULT:      -7.4      1.427      3.543
REMARK  9 active torsions:
REMARK  status: ('A' for Active; 'I' for Inactive)
REMARK       I    between atoms: N_2  and  C_3 
REMARK    1  A    between atoms: C_3  and  C_4 
REMARK    2  A    between atoms: C_4  and  S_5 
REMARK    3  A    between atoms: S_5  and  C_6 
REMARK    4  A    between atoms: N_7  and  C_8 
REMARK    5  A    between atoms: C_8  and  C_9 
REMARK    6  A    between atoms: C_11  and  C_12 
REMARK    7  A    between atoms: C_12  and  O_13 
REMARK    8  A    between atoms: O_13  and  C_14 
REMARK    9  A    between atoms: C_15  and  C_16 
ROOT
HETATM    1  C   UNL     1     -43.239  57.019 -55.786  1.00  0.00     0.192 A 
HETATM    2  N   UNL     1     -43.183  56.112 -54.763  1.00  0.00    -0.306 N 
HETATM    3  C   UNL     1     -42.558  55.003 -55.298  1.00  0.00     0.155 A 
HETATM    4  N   UNL     1     -42.211  55.273 -56.544  1.00  0.00    -0.132 NA
HETATM    5  N   UNL     1     -42.647  56.535 -56.850  1.00  0.00    -0.123 NA
ENDROOT
BRANCH   3   6
HETATM    6  C   UNL     1     -42.325  53.711 -54.594  1.00  0.00     0.256 C 
BRANCH   6   7
HETATM    7  O   UNL     1     -40.990  53.767 -54.084  1.00  0.00    -0.343 OA
BRANCH   7   8
HETATM    8  C   UNL     1     -40.563  52.533 -53.662  1.00  0.00     0.080 A 
HETATM    9  C   UNL     1     -40.347  52.270 -52.294  1.00  0.00     0.007 A 
HETATM   10  C   UNL     1     -39.840  50.995 -51.962  1.00  0.00     0.015 A 
HETATM   11  C   UNL     1     -39.561  50.034 -52.939  1.00  0.00     0.001 A 
HETATM   12  C   UNL     1     -39.768  50.329 -54.282  1.00  0.00     0.003 A 
HETATM   13  C   UNL     1     -40.256  51.581 -54.645  1.00  0.00     0.037 A 
BRANCH   9  14
HETATM   14  C   UNL     1     -40.613  53.247 -51.211  1.00  0.00    -0.023 A 
HETATM   15  C   UNL     1     -41.928  53.653 -50.909  1.00  0.00     0.012 A 
HETATM   16  C   UNL     1     -42.200  54.538 -49.861  1.00  0.00     0.001 A 
HETATM   17  C   UNL     1     -41.157  55.047 -49.094  1.00  0.00     0.000 A 
HETATM   18  C   UNL     1     -39.847  54.672 -49.378  1.00  0.00     0.001 A 
HETATM   19  C   UNL     1     -39.580  53.778 -50.420  1.00  0.00     0.012 A 
ENDBRANCH   9  14
ENDBRANCH   7   8
ENDBRANCH   6   7
ENDBRANCH   3   6
BRANCH   2  20
HETATM   20  C   UNL     1     -43.560  56.322 -53.376  1.00  0.00     0.159 C 
BRANCH  20  21
HETATM   21  C   UNL     1     -42.501  56.883 -52.470  1.00  0.00    -0.017 C 
HETATM   22  C   UNL     1     -41.195  57.043 -52.720  1.00  0.00     0.008 C 
ENDBRANCH  20  21
ENDBRANCH   2  20
BRANCH   1  23
HETATM   23  S   UNL     1     -43.965  58.582 -55.710  1.00  0.00    -0.081 SA
BRANCH  23  24
HETATM   24  C   UNL     1     -44.390  58.840 -57.451  1.00  0.00     0.185 C 
BRANCH  24  25
HETATM   25  C   UNL     1     -45.466  57.941 -58.042  1.00  0.00     0.226 C 
HETATM   26  N   UNL     1     -45.097  56.999 -58.968  1.00  0.00    -0.365 N 
HETATM   27  C   UNL     1     -46.077  56.243 -59.705  1.00  0.00     0.149 C 
HETATM   28  H   UNL     1     -44.168  57.067 -59.379  1.00  0.00     0.161 HD
HETATM   29  O   UNL     1     -46.644  58.111 -57.718  1.00  0.00    -0.273 OA
ENDBRANCH  24  25
ENDBRANCH  23  24
ENDBRANCH   1  23
TORSDOF 9
ENDMDL
MODEL 5
REMARK VINA RESULT:      -7.2      1.816      2.539
REMARK  9 active torsions:
REMARK  status: ('A' for Active; 'I' for Inactive)
REMARK       I    between atoms: N_2  and  C_3 
REMARK    1  A    between atoms: C_3  and  C_4 
REMARK    2  A    between atoms: C_4  and  S_5 
REMARK    3  A    between atoms: S_5  and  C_6 
REMARK    4  A    between atoms: N_7  and  C_8 
REMARK    5  A    between atoms: C_8  and  C_9 
REMARK    6  A    between atoms: C_11  and  C_12 
REMARK    7  A    between atoms: C_12  and  O_13 
REMARK    8  A    between atoms: O_13  and  C_14 
REMARK    9  A    between atoms: C_15  and  C_16 
ROOT
HETATM    1  C   UNL     1     -43.100  57.020 -56.810  1.00  0.00     0.192 A 
HETATM    2  N   UNL     1     -42.764  57.809 -55.744  1.00  0.00    -0.306 N 
HETATM    3  C   UNL     1     -41.923  57.033 -54.971  1.00  0.00     0.155 A 
HETATM    4  N   UNL     1     -41.728  55.880 -55.585  1.00  0.00    -0.132 NA
HETATM    5  N   UNL     1     -42.474  55.872 -56.735  1.00  0.00    -0.123 NA
ENDROOT
BRANCH   3   6
HETATM    6  C   UNL     1     -41.342  57.423 -53.655  1.00  0.00     0.256 C 
BRANCH   6   7
HETATM    7  O   UNL     1     -40.940  56.207 -53.018  1.00  0.00    -0.343 OA
BRANCH   7   8
HETATM    8  C   UNL     1     -41.920  55.732 -52.183  1.00  0.00     0.080 A 
HETATM    9  C   UNL     1     -42.061  54.350 -51.945  1.00  0.00     0.007 A 
HETATM   10  C   UNL     1     -43.141  53.951 -51.128  1.00  0.00     0.015 A 
HETATM   11  C   UNL     1     -44.033  54.877 -50.579  1.00  0.00     0.001 A 
HETATM   12  C   UNL     1     -43.878  56.233 -50.847  1.00  0.00     0.003 A 
HETATM   13  C   UNL     1     -42.831  56.659 -51.657  1.00  0.00     0.037 A 
BRANCH   9  14
HETATM   14  C   UNL     1     -41.156  53.317 -52.503  1.00  0.00    -0.023 A 
HETATM   15  C   UNL     1     -40.169  52.709 -51.702  1.00  0.00     0.012 A 
HETATM   16  C   UNL     1     -39.339  51.700 -52.201  1.00  0.00     0.001 A 
HETATM   17  C   UNL     1     -39.471  51.282 -53.521  1.00  0.00     0.000 A 
HETATM   18  C   UNL     1     -40.429  51.873 -54.338  1.00  0.00     0.001 A 
HETATM   19  C   UNL     1     -41.265  52.875 -53.833  1.00  0.00     0.012 A 
ENDBRANCH   9  14
ENDBRANCH   7   8
ENDBRANCH   6   7
ENDBRANCH   3   6
BRANCH   2  20
HETATM   20  C   UNL     1     -43.095  59.210 -55.543  1.00  0.00     0.159 C 
BRANCH  20  21
HETATM   21  C   UNL     1     -44.396  59.500 -54.850  1.00  0.00    -0.017 C 
HETATM   22  C   UNL     1     -44.964  58.831 -53.838  1.00  0.00     0.008 C 
ENDBRANCH  20  21
ENDBRANCH   2  20
BRANCH   1  23
HETATM   23  S   UNL     1     -44.175  57.453 -58.087  1.00  0.00    -0.081 SA
BRANCH  23  24
HETATM   24  C   UNL     1     -43.957  56.045 -59.203  1.00  0.00     0.185 C 
BRANCH  24  25
HETATM   25  C   UNL     1     -44.956  55.901 -60.341  1.00  0.00     0.226 C 
HETATM   26  N   UNL     1     -46.154  56.562 -60.249  1.00  0.00    -0.365 N 
HETATM   27  C   UNL     1     -47.218  56.327 -61.191  1.00  0.00     0.149 C 
HETATM   28  H   UNL     1     -46.419  56.953 -59.347  1.00  0.00     0.161 HD
HETATM   29  O   UNL     1     -44.692  55.157 -61.289  1.00  0.00    -0.273 OA
ENDBRANCH  24  25
ENDBRANCH  23  24
ENDBRANCH   1  23
TORSDOF 9
ENDMDL
MODEL 6
REMARK VINA RESULT:      -7.2      2.855      4.002
REMARK  9 active torsions:
REMARK  status: ('A' for Active; 'I' for Inactive)
REMARK       I    between atoms: N_2  and  C_3 
REMARK    1  A    between atoms: C_3  and  C_4 
REMARK    2  A    between atoms: C_4  and  S_5 
REMARK    3  A    between atoms: S_5  and  C_6 
REMARK    4  A    between atoms: N_7  and  C_8 
REMARK    5  A    between atoms: C_8  and  C_9 
REMARK    6  A    between atoms: C_11  and  C_12 
REMARK    7  A    between atoms: C_12  and  O_13 
REMARK    8  A    between atoms: O_13  and  C_14 
REMARK    9  A    between atoms: C_15  and  C_16 
ROOT
HETATM    1  C   UNL     1     -43.533  57.190 -54.029  1.00  0.00     0.192 A 
HETATM    2  N   UNL     1     -43.711  56.746 -52.747  1.00  0.00    -0.306 N 
HETATM    3  C   UNL     1     -43.582  55.373 -52.821  1.00  0.00     0.155 A 
HETATM    4  N   UNL     1     -43.283  55.042 -54.063  1.00  0.00    -0.132 NA
HETATM    5  N   UNL     1     -43.260  56.183 -54.821  1.00  0.00    -0.123 NA
ENDROOT
BRANCH   3   6
HETATM    6  C   UNL     1     -43.766  54.420 -51.689  1.00  0.00     0.256 C 
BRANCH   6   7
HETATM    7  O   UNL     1     -42.722  53.450 -51.809  1.00  0.00    -0.343 OA
BRANCH   7   8
HETATM    8  C   UNL     1     -41.663  53.749 -50.989  1.00  0.00     0.080 A 
HETATM    9  C   UNL     1     -40.422  53.101 -51.143  1.00  0.00     0.007 A 
HETATM   10  C   UNL     1     -39.414  53.423 -50.208  1.00  0.00     0.015 A 
HETATM   11  C   UNL     1     -39.632  54.340 -49.175  1.00  0.00     0.001 A 
HETATM   12  C   UNL     1     -40.873  54.950 -49.038  1.00  0.00     0.003 A 
HETATM   13  C   UNL     1     -41.892  54.647 -49.936  1.00  0.00     0.037 A 
BRANCH   9  14
HETATM   14  C   UNL     1     -40.130  52.113 -52.210  1.00  0.00    -0.023 A 
HETATM   15  C   UNL     1     -39.769  50.789 -51.892  1.00  0.00     0.012 A 
HETATM   16  C   UNL     1     -39.538  49.834 -52.886  1.00  0.00     0.001 A 
HETATM   17  C   UNL     1     -39.652  50.185 -54.227  1.00  0.00     0.000 A 
HETATM   18  C   UNL     1     -39.996  51.490 -54.570  1.00  0.00     0.001 A 
HETATM   19  C   UNL     1     -40.238  52.440 -53.573  1.00  0.00     0.012 A 
ENDBRANCH   9  14
ENDBRANCH   7   8
ENDBRANCH   6   7
ENDBRANCH   3   6
BRANCH   2  20
HETATM   20  C   UNL     1     -43.852  57.551 -51.546  1.00  0.00     0.159 C 
BRANCH  20  21
HETATM   21  C   UNL     1     -45.242  58.008 -51.203  1.00  0.00    -0.017 C 
HETATM   22  C   UNL     1     -45.699  59.263 -51.098  1.00  0.00     0.008 C 
ENDBRANCH  20  21
ENDBRANCH   2  20
BRANCH   1  23
HETATM   23  S   UNL     1     -43.635  58.831 -54.552  1.00  0.00    -0.081 SA
BRANCH  23  24
HETATM   24  C   UNL     1     -41.902  59.337 -54.412  1.00  0.00     0.185 C 
BRANCH  24  25
HETATM   25  C   UNL     1     -41.375  59.619 -53.013  1.00  0.00     0.226 C 
HETATM   26  N   UNL     1     -40.266  58.938 -52.580  1.00  0.00    -0.365 N 
HETATM   27  C   UNL     1     -39.822  59.013 -51.212  1.00  0.00     0.149 C 
HETATM   28  H   UNL     1     -39.959  58.129 -53.117  1.00  0.00     0.161 HD
HETATM   29  O   UNL     1     -41.980  60.410 -52.285  1.00  0.00    -0.273 OA
ENDBRANCH  24  25
ENDBRANCH  23  24
ENDBRANCH   1  23
TORSDOF 9
ENDMDL
MODEL 7
REMARK VINA RESULT:      -7.1      1.649      1.917
REMARK  9 active torsions:
REMARK  status: ('A' for Active; 'I' for Inactive)
REMARK       I    between atoms: N_2  and  C_3 
REMARK    1  A    between atoms: C_3  and  C_4 
REMARK    2  A    between atoms: C_4  and  S_5 
REMARK    3  A    between atoms: S_5  and  C_6 
REMARK    4  A    between atoms: N_7  and  C_8 
REMARK    5  A    between atoms: C_8  and  C_9 
REMARK    6  A    between atoms: C_11  and  C_12 
REMARK    7  A    between atoms: C_12  and  O_13 
REMARK    8  A    between atoms: O_13  and  C_14 
REMARK    9  A    between atoms: C_15  and  C_16 
ROOT
HETATM    1  C   UNL     1     -43.305  56.399 -56.388  1.00  0.00     0.192 A 
HETATM    2  N   UNL     1     -43.625  56.513 -55.062  1.00  0.00    -0.306 N 
HETATM    3  C   UNL     1     -43.104  55.381 -54.468  1.00  0.00     0.155 A 
HETATM    4  N   UNL     1     -42.460  54.680 -55.383  1.00  0.00    -0.132 NA
HETATM    5  N   UNL     1     -42.595  55.317 -56.589  1.00  0.00    -0.123 NA
ENDROOT
BRANCH   3   6
HETATM    6  C   UNL     1     -43.254  55.003 -53.034  1.00  0.00     0.256 C 
BRANCH   6   7
HETATM    7  O   UNL     1     -42.385  53.888 -52.820  1.00  0.00    -0.343 OA
BRANCH   7   8
HETATM    8  C   UNL     1     -41.497  54.133 -51.802  1.00  0.00     0.080 A 
HETATM    9  C   UNL     1     -40.426  53.253 -51.547  1.00  0.00     0.007 A 
HETATM   10  C   UNL     1     -39.608  53.550 -50.435  1.00  0.00     0.015 A 
HETATM   11  C   UNL     1     -39.845  54.661 -49.621  1.00  0.00     0.001 A 
HETATM   12  C   UNL     1     -40.920  55.502 -49.887  1.00  0.00     0.003 A 
HETATM   13  C   UNL     1     -41.753  55.231 -50.968  1.00  0.00     0.037 A 
BRANCH   9  14
HETATM   14  C   UNL     1     -40.128  52.053 -52.366  1.00  0.00    -0.023 A 
HETATM   15  C   UNL     1     -39.726  50.846 -51.761  1.00  0.00     0.012 A 
HETATM   16  C   UNL     1     -39.486  49.693 -52.515  1.00  0.00     0.001 A 
HETATM   17  C   UNL     1     -39.634  49.724 -53.898  1.00  0.00     0.000 A 
HETATM   18  C   UNL     1     -40.018  50.907 -54.522  1.00  0.00     0.001 A 
HETATM   19  C   UNL     1     -40.268  52.056 -53.764  1.00  0.00     0.012 A 
ENDBRANCH   9  14
ENDBRANCH   7   8
ENDBRANCH   6   7
ENDBRANCH   3   6
BRANCH   2  20
HETATM   20  C   UNL     1     -44.244  57.646 -54.397  1.00  0.00     0.159 C 
BRANCH  20  21
HETATM   21  C   UNL     1     -43.315  58.668 -53.806  1.00  0.00    -0.017 C 
HETATM   22  C   UNL     1     -42.208  59.194 -54.348  1.00  0.00     0.008 C 
ENDBRANCH  20  21
ENDBRANCH   2  20
BRANCH   1  23
HETATM   23  S   UNL     1     -43.746  57.510 -57.632  1.00  0.00    -0.081 SA
BRANCH  23  24
HETATM   24  C   UNL     1     -42.115  57.958 -58.277  1.00  0.00     0.185 C 
BRANCH  24  25
HETATM   25  C   UNL     1     -42.032  58.336 -59.748  1.00  0.00     0.226 C 
HETATM   26  N   UNL     1     -41.930  59.663 -60.079  1.00  0.00    -0.365 N 
HETATM   27  C   UNL     1     -42.035  60.109 -61.445  1.00  0.00     0.149 C 
HETATM   28  H   UNL     1     -42.118  60.355 -59.357  1.00  0.00     0.161 HD
HETATM   29  O   UNL     1     -42.111  57.454 -60.607  1.00  0.00    -0.273 OA
ENDBRANCH  24  25
ENDBRANCH  23  24
ENDBRANCH   1  23
TORSDOF 9
ENDMDL
MODEL 8
REMARK VINA RESULT:      -7.1      4.062      6.140
REMARK  9 active torsions:
REMARK  status: ('A' for Active; 'I' for Inactive)
REMARK       I    between atoms: N_2  and  C_3 
REMARK    1  A    between atoms: C_3  and  C_4 
REMARK    2  A    between atoms: C_4  and  S_5 
REMARK    3  A    between atoms: S_5  and  C_6 
REMARK    4  A    between atoms: N_7  and  C_8 
REMARK    5  A    between atoms: C_8  and  C_9 
REMARK    6  A    between atoms: C_11  and  C_12 
REMARK    7  A    between atoms: C_12  and  O_13 
REMARK    8  A    between atoms: O_13  and  C_14 
REMARK    9  A    between atoms: C_15  and  C_16 
ROOT
HETATM    1  C   UNL     1     -43.003  60.468 -51.499  1.00  0.00     0.192 A 
HETATM    2  N   UNL     1     -42.718  59.173 -51.835  1.00  0.00    -0.306 N 
HETATM    3  C   UNL     1     -41.698  58.796 -50.985  1.00  0.00     0.155 A 
HETATM    4  N   UNL     1     -41.447  59.794 -50.156  1.00  0.00    -0.132 NA
HETATM    5  N   UNL     1     -42.261  60.844 -50.487  1.00  0.00    -0.123 NA
ENDROOT
BRANCH   3   6
HETATM    6  C   UNL     1     -40.986  57.486 -51.006  1.00  0.00     0.256 C 
BRANCH   6   7
HETATM    7  O   UNL     1     -41.982  56.485 -50.780  1.00  0.00    -0.343 OA
BRANCH   7   8
HETATM    8  C   UNL     1     -41.415  55.281 -50.446  1.00  0.00     0.080 A 
HETATM    9  C   UNL     1     -41.249  54.266 -51.410  1.00  0.00     0.007 A 
HETATM   10  C   UNL     1     -40.722  53.037 -50.957  1.00  0.00     0.015 A 
HETATM   11  C   UNL     1     -40.380  52.830 -49.617  1.00  0.00     0.001 A 
HETATM   12  C   UNL     1     -40.572  53.844 -48.686  1.00  0.00     0.003 A 
HETATM   13  C   UNL     1     -41.100  55.064 -49.097  1.00  0.00     0.037 A 
BRANCH   9  14
HETATM   14  C   UNL     1     -41.600  54.419 -52.842  1.00  0.00    -0.023 A 
HETATM   15  C   UNL     1     -42.942  54.364 -53.268  1.00  0.00     0.012 A 
HETATM   16  C   UNL     1     -43.294  54.553 -54.608  1.00  0.00     0.001 A 
HETATM   17  C   UNL     1     -42.307  54.793 -55.558  1.00  0.00     0.000 A 
HETATM   18  C   UNL     1     -40.972  54.841 -55.167  1.00  0.00     0.001 A 
HETATM   19  C   UNL     1     -40.624  54.662 -53.823  1.00  0.00     0.012 A 
ENDBRANCH   9  14
ENDBRANCH   7   8
ENDBRANCH   6   7
ENDBRANCH   3   6
BRANCH   2  20
HETATM   20  C   UNL     1     -43.432  58.327 -52.776  1.00  0.00     0.159 C 
BRANCH  20  21
HETATM   21  C   UNL     1     -42.806  58.151 -54.130  1.00  0.00    -0.017 C 
HETATM   22  C   UNL     1     -41.873  58.912 -54.718  1.00  0.00     0.008 C 
ENDBRANCH  20  21
ENDBRANCH   2  20
BRANCH   1  23
HETATM   23  S   UNL     1     -44.171  61.477 -52.269  1.00  0.00    -0.081 SA
BRANCH  23  24
HETATM   24  C   UNL     1     -45.701  60.832 -51.547  1.00  0.00     0.185 C 
BRANCH  24  25
HETATM   25  C   UNL     1     -45.678  60.491 -50.065  1.00  0.00     0.226 C 
HETATM   26  N   UNL     1     -45.296  61.462 -49.175  1.00  0.00    -0.365 N 
HETATM   27  C   UNL     1     -45.071  61.163 -47.784  1.00  0.00     0.149 C 
HETATM   28  H   UNL     1     -44.849  62.301 -49.541  1.00  0.00     0.161 HD
HETATM   29  O   UNL     1     -45.950  59.344 -49.702  1.00  0.00    -0.273 OA
ENDBRANCH  24  25
ENDBRANCH  23  24
ENDBRANCH   1  23
TORSDOF 9
ENDMDL
MODEL 9
REMARK VINA RESULT:      -6.9      1.757      1.796
REMARK  9 active torsions:
REMARK  status: ('A' for Active; 'I' for Inactive)
REMARK       I    between atoms: N_2  and  C_3 
REMARK    1  A    between atoms: C_3  and  C_4 
REMARK    2  A    between atoms: C_4  and  S_5 
REMARK    3  A    between atoms: S_5  and  C_6 
REMARK    4  A    between atoms: N_7  and  C_8 
REMARK    5  A    between atoms: C_8  and  C_9 
REMARK    6  A    between atoms: C_11  and  C_12 
REMARK    7  A    between atoms: C_12  and  O_13 
REMARK    8  A    between atoms: O_13  and  C_14 
REMARK    9  A    between atoms: C_15  and  C_16 
ROOT
HETATM    1  C   UNL     1     -43.599  57.278 -55.301  1.00  0.00     0.192 A 
HETATM    2  N   UNL     1     -42.946  57.120 -54.110  1.00  0.00    -0.306 N 
HETATM    3  C   UNL     1     -41.855  56.324 -54.401  1.00  0.00     0.155 A 
HETATM    4  N   UNL     1     -41.839  56.086 -55.700  1.00  0.00    -0.132 NA
HETATM    5  N   UNL     1     -42.939  56.679 -56.261  1.00  0.00    -0.123 NA
ENDROOT
BRANCH   3   6
HETATM    6  C   UNL     1     -40.867  55.806 -53.412  1.00  0.00     0.256 C 
BRANCH   6   7
HETATM    7  O   UNL     1     -41.465  54.651 -52.816  1.00  0.00    -0.343 OA
BRANCH   7   8
HETATM    8  C   UNL     1     -41.083  54.509 -51.505  1.00  0.00     0.080 A 
HETATM    9  C   UNL     1     -40.481  53.319 -51.051  1.00  0.00     0.007 A 
HETATM   10  C   UNL     1     -40.188  53.239 -49.672  1.00  0.00     0.015 A 
HETATM   11  C   UNL     1     -40.480  54.287 -48.794  1.00  0.00     0.001 A 
HETATM   12  C   UNL     1     -41.090  55.442 -49.269  1.00  0.00     0.003 A 
HETATM   13  C   UNL     1     -41.403  55.549 -50.621  1.00  0.00     0.037 A 
BRANCH   9  14
HETATM   14  C   UNL     1     -40.155  52.169 -51.928  1.00  0.00    -0.023 A 
HETATM   15  C   UNL     1     -39.784  50.924 -51.382  1.00  0.00     0.012 A 
HETATM   16  C   UNL     1     -39.520  49.817 -52.195  1.00  0.00     0.001 A 
HETATM   17  C   UNL     1     -39.611  49.932 -53.578  1.00  0.00     0.000 A 
HETATM   18  C   UNL     1     -39.964  51.154 -54.144  1.00  0.00     0.001 A 
HETATM   19  C   UNL     1     -40.239  52.256 -53.328  1.00  0.00     0.012 A 
ENDBRANCH   9  14
ENDBRANCH   7   8
ENDBRANCH   6   7
ENDBRANCH   3   6
BRANCH   2  20
HETATM   20  C   UNL     1     -43.244  57.769 -52.845  1.00  0.00     0.159 C 
BRANCH  20  21
HETATM   21  C   UNL     1     -42.392  58.950 -52.478  1.00  0.00    -0.017 C 
HETATM   22  C   UNL     1     -42.117  60.035 -53.214  1.00  0.00     0.008 C 
ENDBRANCH  20  21
ENDBRANCH   2  20
BRANCH   1  23
HETATM   23  S   UNL     1     -45.072  58.146 -55.537  1.00  0.00    -0.081 SA
BRANCH  23  24
HETATM   24  C   UNL     1     -45.061  58.345 -57.336  1.00  0.00     0.185 C 
BRANCH  24  25
HETATM   25  C   UNL     1     -46.253  57.790 -58.102  1.00  0.00     0.226 C 
HETATM   26  N   UNL     1     -46.018  56.959 -59.167  1.00  0.00    -0.365 N 
HETATM   27  C   UNL     1     -47.080  56.548 -60.049  1.00  0.00     0.149 C 
HETATM   28  H   UNL     1     -45.071  56.906 -59.536  1.00  0.00     0.161 HD
HETATM   29  O   UNL     1     -47.393  58.137 -57.784  1.00  0.00    -0.273 OA
ENDBRANCH  24  25
ENDBRANCH  23  24
ENDBRANCH   1  23
TORSDOF 9
ENDMDL
MODEL 10
REMARK VINA RESULT:      -6.8      2.411      3.103
REMARK  9 active torsions:
REMARK  status: ('A' for Active; 'I' for Inactive)
REMARK       I    between atoms: N_2  and  C_3 
REMARK    1  A    between atoms: C_3  and  C_4 
REMARK    2  A    between atoms: C_4  and  S_5 
REMARK    3  A    between atoms: S_5  and  C_6 
REMARK    4  A    between atoms: N_7  and  C_8 
REMARK    5  A    between atoms: C_8  and  C_9 
REMARK    6  A    between atoms: C_11  and  C_12 
REMARK    7  A    between atoms: C_12  and  O_13 
REMARK    8  A    between atoms: O_13  and  C_14 
REMARK    9  A    between atoms: C_15  and  C_16 
ROOT
HETATM    1  C   UNL     1     -43.501  59.037 -53.430  1.00  0.00     0.192 A 
HETATM    2  N   UNL     1     -43.626  57.675 -53.464  1.00  0.00    -0.306 N 
HETATM    3  C   UNL     1     -43.245  57.247 -52.207  1.00  0.00     0.155 A 
HETATM    4  N   UNL     1     -42.975  58.305 -51.463  1.00  0.00    -0.132 NA
HETATM    5  N   UNL     1     -43.129  59.426 -52.235  1.00  0.00    -0.123 NA
ENDROOT
BRANCH   3   6
HETATM    6  C   UNL     1     -43.140  55.827 -51.766  1.00  0.00     0.256 C 
BRANCH   6   7
HETATM    7  O   UNL     1     -41.774  55.448 -51.960  1.00  0.00    -0.343 OA
BRANCH   7   8
HETATM    8  C   UNL     1     -41.247  54.879 -50.828  1.00  0.00     0.080 A 
HETATM    9  C   UNL     1     -40.629  53.613 -50.874  1.00  0.00     0.007 A 
HETATM   10  C   UNL     1     -40.180  53.078 -49.646  1.00  0.00     0.015 A 
HETATM   11  C   UNL     1     -40.339  53.767 -48.440  1.00  0.00     0.001 A 
HETATM   12  C   UNL     1     -40.969  55.006 -48.424  1.00  0.00     0.003 A 
HETATM   13  C   UNL     1     -41.433  55.557 -49.615  1.00  0.00     0.037 A 
BRANCH   9  14
HETATM   14  C   UNL     1     -40.439  52.829 -52.118  1.00  0.00    -0.023 A 
HETATM   15  C   UNL     1     -39.696  51.632 -52.112  1.00  0.00     0.012 A 
HETATM   16  C   UNL     1     -39.547  50.857 -53.267  1.00  0.00     0.001 A 
HETATM   17  C   UNL     1     -40.132  51.268 -54.460  1.00  0.00     0.000 A 
HETATM   18  C   UNL     1     -40.862  52.453 -54.496  1.00  0.00     0.001 A 
HETATM   19  C   UNL     1     -41.018  53.220 -53.337  1.00  0.00     0.012 A 
ENDBRANCH   9  14
ENDBRANCH   7   8
ENDBRANCH   6   7
ENDBRANCH   3   6
BRANCH   2  20
HETATM   20  C   UNL     1     -44.182  56.866 -54.534  1.00  0.00     0.159 C 
BRANCH  20  21
HETATM   21  C   UNL     1     -43.226  55.963 -55.260  1.00  0.00    -0.017 C 
HETATM   22  C   UNL     1     -41.933  56.177 -55.540  1.00  0.00     0.008 C 
ENDBRANCH  20  21
ENDBRANCH   2  20
BRANCH   1  23
HETATM   23  S   UNL     1     -43.797  60.111 -54.747  1.00  0.00    -0.081 SA
BRANCH  23  24
HETATM   24  C   UNL     1     -42.148  60.194 -55.490  1.00  0.00     0.185 C 
BRANCH  24  25
HETATM   25  C   UNL     1     -42.038  59.858 -56.970  1.00  0.00     0.226 C 
HETATM   26  N   UNL     1     -42.939  58.978 -57.512  1.00  0.00    -0.365 N 
HETATM   27  C   UNL     1     -42.785  58.471 -58.851  1.00  0.00     0.149 C 
HETATM   28  H   UNL     1     -43.513  58.426 -56.877  1.00  0.00     0.161 HD
HETATM   29  O   UNL     1     -41.117  60.340 -57.634  1.00  0.00    -0.273 OA
ENDBRANCH  24  25
ENDBRANCH  23  24
ENDBRANCH   1  23
TORSDOF 9
ENDMDL
