MODEL 1
REMARK VINA RESULT:      -8.0      0.000      0.000
REMARK  4 active torsions:
REMARK  status: ('A' for Active; 'I' for Inactive)
REMARK    1  A    between atoms: O_2  and  C_3 
REMARK    2  A    between atoms: C_4  and  C_5 
REMARK    3  A    between atoms: C_9  and  N_10 
REMARK    4  A    between atoms: C_13  and  C_14 
ROOT
HETATM    1  C   UNL     1     -42.374  56.590 -56.242  1.00  0.00     0.167 C 
HETATM    2  N   UNL     1     -43.373  57.180 -55.346  1.00  0.00    -0.074 N 
HETATM    3  C   UNL     1     -43.567  56.789 -54.044  1.00  0.00     0.736 A 
HETATM    4  N   UNL     1     -44.440  57.585 -53.483  1.00  0.00     0.131 NA
HETATM    5  C   UNL     1     -44.693  58.499 -54.460  1.00  0.00     0.753 A 
HETATM    6  N   UNL     1     -44.047  58.316 -55.609  1.00  0.00     0.037 NA
HETATM    7  N   UNL     1     -42.882  55.755 -53.511  1.00  0.00    -0.214 N 
HETATM    8  C   UNL     1     -41.610  55.418 -54.138  1.00  0.00     0.135 C 
HETATM    9  C   UNL     1     -41.829  55.270 -55.651  1.00  0.00     0.063 C 
HETATM   10  H   UNL     1     -42.889  55.706 -52.495  1.00  0.00     0.178 HD
ENDROOT
BRANCH   1  11
HETATM   11  C   UNL     1     -42.861  56.356 -57.671  1.00  0.00     0.001 A 
HETATM   12  C   UNL     1     -42.522  57.283 -58.679  1.00  0.00     0.076 A 
HETATM   13  C   UNL     1     -42.961  57.091 -59.994  1.00  0.00     0.037 A 
HETATM   14  C   UNL     1     -43.701  55.959 -60.331  1.00  0.00     0.003 A 
HETATM   15  C   UNL     1     -44.005  55.015 -59.357  1.00  0.00     0.001 A 
HETATM   16  C   UNL     1     -43.585  55.207 -58.040  1.00  0.00     0.012 A 
BRANCH  12  17
HETATM   17  O   UNL     1     -41.782  58.372 -58.290  1.00  0.00    -0.355 OA
HETATM   18  C   UNL     1     -42.306  59.636 -58.691  1.00  0.00     0.210 C 
ENDBRANCH  12  17
ENDBRANCH   1  11
BRANCH   8  19
HETATM   19  C   UNL     1     -41.044  54.159 -53.509  1.00  0.00    -0.035 A 
HETATM   20  C   UNL     1     -40.917  54.026 -52.116  1.00  0.00     0.010 A 
HETATM   21  C   UNL     1     -40.411  52.852 -51.554  1.00  0.00     0.019 A 
HETATM   22  C   UNL     1     -40.019  51.802 -52.381  1.00  0.00     0.011 A 
HETATM   23 BR   UNL     1     -39.338  50.211 -51.622  1.00  0.00    -0.051 Br
HETATM   24  C   UNL     1     -40.123  51.919 -53.765  1.00  0.00     0.019 A 
HETATM   25  C   UNL     1     -40.633  53.093 -54.326  1.00  0.00     0.010 A 
ENDBRANCH   8  19
BRANCH   5  26
HETATM   26  N   UNL     1     -45.553  59.480 -54.204  1.00  0.00    -0.229 N 
HETATM   27  H   UNL     1     -45.163  60.345 -53.858  1.00  0.00     0.174 HD
HETATM   28  H   UNL     1     -46.437  59.212 -53.792  1.00  0.00     0.174 HD
ENDBRANCH   5  26
TORSDOF 4
ENDMDL
MODEL 2
REMARK VINA RESULT:      -7.2      2.635      3.132
REMARK  4 active torsions:
REMARK  status: ('A' for Active; 'I' for Inactive)
REMARK    1  A    between atoms: O_2  and  C_3 
REMARK    2  A    between atoms: C_4  and  C_5 
REMARK    3  A    between atoms: C_9  and  N_10 
REMARK    4  A    between atoms: C_13  and  C_14 
ROOT
HETATM    1  C   UNL     1     -42.032  58.170 -54.543  1.00  0.00     0.167 C 
HETATM    2  N   UNL     1     -42.120  58.596 -53.144  1.00  0.00    -0.074 N 
HETATM    3  C   UNL     1     -41.776  57.806 -52.074  1.00  0.00     0.736 A 
HETATM    4  N   UNL     1     -41.852  58.513 -50.978  1.00  0.00     0.131 NA
HETATM    5  C   UNL     1     -42.172  59.755 -51.435  1.00  0.00     0.753 A 
HETATM    6  N   UNL     1     -42.320  59.869 -52.753  1.00  0.00     0.037 NA
HETATM    7  N   UNL     1     -41.393  56.523 -52.243  1.00  0.00    -0.214 N 
HETATM    8  C   UNL     1     -40.859  56.163 -53.552  1.00  0.00     0.135 C 
HETATM    9  C   UNL     1     -41.842  56.639 -54.632  1.00  0.00     0.063 C 
HETATM   10  H   UNL     1     -40.911  56.105 -51.451  1.00  0.00     0.178 HD
ENDROOT
BRANCH   1  11
HETATM   11  C   UNL     1     -43.213  58.597 -55.414  1.00  0.00     0.001 A 
HETATM   12  C   UNL     1     -43.014  59.552 -56.433  1.00  0.00     0.076 A 
HETATM   13  C   UNL     1     -44.082  59.961 -57.239  1.00  0.00     0.037 A 
HETATM   14  C   UNL     1     -45.345  59.397 -57.073  1.00  0.00     0.003 A 
HETATM   15  C   UNL     1     -45.547  58.422 -56.102  1.00  0.00     0.001 A 
HETATM   16  C   UNL     1     -44.490  58.021 -55.283  1.00  0.00     0.012 A 
BRANCH  12  17
HETATM   17  O   UNL     1     -41.745  60.063 -56.557  1.00  0.00    -0.355 OA
HETATM   18  C   UNL     1     -41.499  60.789 -57.759  1.00  0.00     0.210 C 
ENDBRANCH  12  17
ENDBRANCH   1  11
BRANCH   8  19
HETATM   19  C   UNL     1     -40.610  54.669 -53.613  1.00  0.00    -0.035 A 
HETATM   20  C   UNL     1     -40.438  54.001 -54.837  1.00  0.00     0.010 A 
HETATM   21  C   UNL     1     -40.190  52.627 -54.872  1.00  0.00     0.019 A 
HETATM   22  C   UNL     1     -40.122  51.906 -53.682  1.00  0.00     0.011 A 
HETATM   23 BR   UNL     1     -39.783  50.047 -53.728  1.00  0.00    -0.051 Br
HETATM   24  C   UNL     1     -40.304  52.546 -52.458  1.00  0.00     0.019 A 
HETATM   25  C   UNL     1     -40.548  53.921 -52.425  1.00  0.00     0.010 A 
ENDBRANCH   8  19
BRANCH   5  26
HETATM   26  N   UNL     1     -42.317  60.739 -50.553  1.00  0.00    -0.229 N 
HETATM   27  H   UNL     1     -43.180  60.751 -50.027  1.00  0.00     0.174 HD
HETATM   28  H   UNL     1     -41.968  61.648 -50.825  1.00  0.00     0.174 HD
ENDBRANCH   5  26
TORSDOF 4
ENDMDL
MODEL 3
REMARK VINA RESULT:      -7.2      3.998      7.156
REMARK  4 active torsions:
REMARK  status: ('A' for Active; 'I' for Inactive)
REMARK    1  A    between atoms: O_2  and  C_3 
REMARK    2  A    between atoms: C_4  and  C_5 
REMARK    3  A    between atoms: C_9  and  N_10 
REMARK    4  A    between atoms: C_13  and  C_14 
ROOT
HETATM    1  C   UNL     1     -42.230  56.124 -52.770  1.00  0.00     0.167 C 
HETATM    2  N   UNL     1     -41.424  57.329 -52.558  1.00  0.00    -0.074 N 
HETATM    3  C   UNL     1     -41.525  58.469 -53.319  1.00  0.00     0.736 A 
HETATM    4  N   UNL     1     -40.763  59.397 -52.803  1.00  0.00     0.131 NA
HETATM    5  C   UNL     1     -40.275  58.804 -51.679  1.00  0.00     0.753 A 
HETATM    6  N   UNL     1     -40.668  57.551 -51.465  1.00  0.00     0.037 NA
HETATM    7  N   UNL     1     -42.344  58.528 -54.389  1.00  0.00    -0.214 N 
HETATM    8  C   UNL     1     -43.466  57.596 -54.410  1.00  0.00     0.135 C 
HETATM    9  C   UNL     1     -42.935  56.180 -54.144  1.00  0.00     0.063 C 
HETATM   10  H   UNL     1     -42.555  59.465 -54.725  1.00  0.00     0.178 HD
ENDROOT
BRANCH   1  11
HETATM   11  C   UNL     1     -41.460  54.812 -52.636  1.00  0.00     0.001 A 
HETATM   12  C   UNL     1     -41.404  54.165 -51.383  1.00  0.00     0.076 A 
HETATM   13  C   UNL     1     -40.700  52.965 -51.236  1.00  0.00     0.037 A 
HETATM   14  C   UNL     1     -40.083  52.371 -52.336  1.00  0.00     0.003 A 
HETATM   15  C   UNL     1     -40.167  52.974 -53.586  1.00  0.00     0.001 A 
HETATM   16  C   UNL     1     -40.853  54.181 -53.737  1.00  0.00     0.012 A 
BRANCH  12  17
HETATM   17  O   UNL     1     -42.041  54.791 -50.340  1.00  0.00    -0.355 OA
HETATM   18  C   UNL     1     -41.300  54.847 -49.123  1.00  0.00     0.210 C 
ENDBRANCH  12  17
ENDBRANCH   1  11
BRANCH   8  19
HETATM   19  C   UNL     1     -44.197  57.702 -55.734  1.00  0.00    -0.035 A 
HETATM   20  C   UNL     1     -45.491  58.244 -55.819  1.00  0.00     0.010 A 
HETATM   21  C   UNL     1     -46.141  58.351 -57.050  1.00  0.00     0.019 A 
HETATM   22  C   UNL     1     -45.508  57.906 -58.208  1.00  0.00     0.011 A 
HETATM   23 BR   UNL     1     -46.385  58.052 -59.876  1.00  0.00    -0.051 Br
HETATM   24  C   UNL     1     -44.231  57.351 -58.145  1.00  0.00     0.019 A 
HETATM   25  C   UNL     1     -43.581  57.249 -56.912  1.00  0.00     0.010 A 
ENDBRANCH   8  19
BRANCH   5  26
HETATM   26  N   UNL     1     -39.453  59.500 -50.898  1.00  0.00    -0.229 N 
HETATM   27  H   UNL     1     -39.320  60.473 -51.136  1.00  0.00     0.174 HD
HETATM   28  H   UNL     1     -38.626  59.022 -50.570  1.00  0.00     0.174 HD
ENDBRANCH   5  26
TORSDOF 4
ENDMDL
MODEL 4
REMARK VINA RESULT:      -7.1      2.507      4.151
REMARK  4 active torsions:
REMARK  status: ('A' for Active; 'I' for Inactive)
REMARK    1  A    between atoms: O_2  and  C_3 
REMARK    2  A    between atoms: C_4  and  C_5 
REMARK    3  A    between atoms: C_9  and  N_10 
REMARK    4  A    between atoms: C_13  and  C_14 
ROOT
HETATM    1  C   UNL     1     -43.720  57.800 -56.908  1.00  0.00     0.167 C 
HETATM    2  N   UNL     1     -43.932  56.988 -58.109  1.00  0.00    -0.074 N 
HETATM    3  C   UNL     1     -43.638  55.649 -58.197  1.00  0.00     0.736 A 
HETATM    4  N   UNL     1     -44.053  55.194 -59.350  1.00  0.00     0.131 NA
HETATM    5  C   UNL     1     -44.667  56.276 -59.903  1.00  0.00     0.753 A 
HETATM    6  N   UNL     1     -44.648  57.390 -59.177  1.00  0.00     0.037 NA
HETATM    7  N   UNL     1     -43.048  54.991 -57.176  1.00  0.00    -0.214 N 
HETATM    8  C   UNL     1     -43.206  55.566 -55.845  1.00  0.00     0.135 C 
HETATM    9  C   UNL     1     -42.819  57.051 -55.900  1.00  0.00     0.063 C 
HETATM   10  H   UNL     1     -43.109  53.977 -57.219  1.00  0.00     0.178 HD
ENDROOT
BRANCH   1  11
HETATM   11  C   UNL     1     -43.152  59.193 -57.174  1.00  0.00     0.001 A 
HETATM   12  C   UNL     1     -43.826  60.325 -56.669  1.00  0.00     0.076 A 
HETATM   13  C   UNL     1     -43.327  61.611 -56.904  1.00  0.00     0.037 A 
HETATM   14  C   UNL     1     -42.134  61.785 -57.604  1.00  0.00     0.003 A 
HETATM   15  C   UNL     1     -41.435  60.677 -58.070  1.00  0.00     0.001 A 
HETATM   16  C   UNL     1     -41.936  59.392 -57.854  1.00  0.00     0.012 A 
BRANCH  12  17
HETATM   17  O   UNL     1     -44.988  60.090 -55.977  1.00  0.00    -0.355 OA
HETATM   18  C   UNL     1     -44.980  60.515 -54.616  1.00  0.00     0.210 C 
ENDBRANCH  12  17
ENDBRANCH   1  11
BRANCH   8  19
HETATM   19  C   UNL     1     -42.374  54.786 -54.846  1.00  0.00    -0.035 A 
HETATM   20  C   UNL     1     -42.825  54.551 -53.536  1.00  0.00     0.010 A 
HETATM   21  C   UNL     1     -42.053  53.815 -52.636  1.00  0.00     0.019 A 
HETATM   22  C   UNL     1     -40.816  53.314 -53.034  1.00  0.00     0.011 A 
HETATM   23 BR   UNL     1     -39.771  52.314 -51.818  1.00  0.00    -0.051 Br
HETATM   24  C   UNL     1     -40.343  53.547 -54.323  1.00  0.00     0.019 A 
HETATM   25  C   UNL     1     -41.119  54.281 -55.224  1.00  0.00     0.010 A 
ENDBRANCH   8  19
BRANCH   5  26
HETATM   26  N   UNL     1     -45.221  56.145 -61.105  1.00  0.00    -0.229 N 
HETATM   27  H   UNL     1     -45.384  56.997 -61.623  1.00  0.00     0.174 HD
HETATM   28  H   UNL     1     -45.942  55.442 -61.198  1.00  0.00     0.174 HD
ENDBRANCH   5  26
TORSDOF 4
ENDMDL
MODEL 5
REMARK VINA RESULT:      -7.0      3.978      7.092
REMARK  4 active torsions:
REMARK  status: ('A' for Active; 'I' for Inactive)
REMARK    1  A    between atoms: O_2  and  C_3 
REMARK    2  A    between atoms: C_4  and  C_5 
REMARK    3  A    between atoms: C_9  and  N_10 
REMARK    4  A    between atoms: C_13  and  C_14 
ROOT
HETATM    1  C   UNL     1     -42.178  56.482 -54.090  1.00  0.00     0.167 C 
HETATM    2  N   UNL     1     -41.495  57.529 -53.326  1.00  0.00    -0.074 N 
HETATM    3  C   UNL     1     -41.331  58.821 -53.765  1.00  0.00     0.736 A 
HETATM    4  N   UNL     1     -40.793  59.532 -52.809  1.00  0.00     0.131 NA
HETATM    5  C   UNL     1     -40.719  58.650 -51.775  1.00  0.00     0.753 A 
HETATM    6  N   UNL     1     -41.160  57.420 -52.026  1.00  0.00     0.037 NA
HETATM    7  N   UNL     1     -41.735  59.202 -54.995  1.00  0.00    -0.214 N 
HETATM    8  C   UNL     1     -42.780  58.400 -55.621  1.00  0.00     0.135 C 
HETATM    9  C   UNL     1     -42.370  56.921 -55.559  1.00  0.00     0.063 C 
HETATM   10  H   UNL     1     -41.819  60.206 -55.134  1.00  0.00     0.178 HD
ENDROOT
BRANCH   1  11
HETATM   11  C   UNL     1     -41.499  55.115 -54.043  1.00  0.00     0.001 A 
HETATM   12  C   UNL     1     -41.970  54.136 -53.143  1.00  0.00     0.076 A 
HETATM   13  C   UNL     1     -41.360  52.878 -53.079  1.00  0.00     0.037 A 
HETATM   14  C   UNL     1     -40.307  52.563 -53.936  1.00  0.00     0.003 A 
HETATM   15  C   UNL     1     -39.860  53.502 -54.859  1.00  0.00     0.001 A 
HETATM   16  C   UNL     1     -40.452  54.765 -54.917  1.00  0.00     0.012 A 
BRANCH  12  17
HETATM   17  O   UNL     1     -43.018  54.500 -52.333  1.00  0.00    -0.355 OA
HETATM   18  C   UNL     1     -42.807  54.291 -50.938  1.00  0.00     0.210 C 
ENDBRANCH  12  17
ENDBRANCH   1  11
BRANCH   8  19
HETATM   19  C   UNL     1     -43.013  58.878 -57.041  1.00  0.00    -0.035 A 
HETATM   20  C   UNL     1     -42.018  59.561 -57.761  1.00  0.00     0.010 A 
HETATM   21  C   UNL     1     -42.245  59.977 -59.074  1.00  0.00     0.019 A 
HETATM   22  C   UNL     1     -43.474  59.723 -59.678  1.00  0.00     0.011 A 
HETATM   23 BR   UNL     1     -43.783  60.282 -61.457  1.00  0.00    -0.051 Br
HETATM   24  C   UNL     1     -44.480  59.061 -58.977  1.00  0.00     0.019 A 
HETATM   25  C   UNL     1     -44.250  58.642 -57.664  1.00  0.00     0.010 A 
ENDBRANCH   8  19
BRANCH   5  26
HETATM   26  N   UNL     1     -40.215  59.070 -50.617  1.00  0.00    -0.229 N 
HETATM   27  H   UNL     1     -39.250  58.837 -50.433  1.00  0.00     0.174 HD
HETATM   28  H   UNL     1     -40.828  59.026 -49.814  1.00  0.00     0.174 HD
ENDBRANCH   5  26
TORSDOF 4
ENDMDL
MODEL 6
REMARK VINA RESULT:      -7.0      2.852      5.258
REMARK  4 active torsions:
REMARK  status: ('A' for Active; 'I' for Inactive)
REMARK    1  A    between atoms: O_2  and  C_3 
REMARK    2  A    between atoms: C_4  and  C_5 
REMARK    3  A    between atoms: C_9  and  N_10 
REMARK    4  A    between atoms: C_13  and  C_14 
ROOT
HETATM    1  C   UNL     1     -42.707  57.194 -53.055  1.00  0.00     0.167 C 
HETATM    2  N   UNL     1     -42.593  57.523 -54.479  1.00  0.00    -0.074 N 
HETATM    3  C   UNL     1     -42.118  56.659 -55.434  1.00  0.00     0.736 A 
HETATM    4  N   UNL     1     -42.257  57.206 -56.613  1.00  0.00     0.131 NA
HETATM    5  C   UNL     1     -42.896  58.375 -56.335  1.00  0.00     0.753 A 
HETATM    6  N   UNL     1     -43.152  58.607 -55.050  1.00  0.00     0.037 NA
HETATM    7  N   UNL     1     -41.641  55.440 -55.104  1.00  0.00    -0.214 N 
HETATM    8  C   UNL     1     -42.108  54.870 -53.846  1.00  0.00     0.135 C 
HETATM    9  C   UNL     1     -41.913  55.908 -52.732  1.00  0.00     0.063 C 
HETATM   10  H   UNL     1     -41.562  54.780 -55.875  1.00  0.00     0.178 HD
ENDROOT
BRANCH   1  11
HETATM   11  C   UNL     1     -42.286  58.315 -52.107  1.00  0.00     0.001 A 
HETATM   12  C   UNL     1     -43.272  59.133 -51.518  1.00  0.00     0.076 A 
HETATM   13  C   UNL     1     -42.909  60.169 -50.650  1.00  0.00     0.037 A 
HETATM   14  C   UNL     1     -41.570  60.377 -50.324  1.00  0.00     0.003 A 
HETATM   15  C   UNL     1     -40.589  59.551 -50.863  1.00  0.00     0.001 A 
HETATM   16  C   UNL     1     -40.943  58.526 -51.742  1.00  0.00     0.012 A 
BRANCH  12  17
HETATM   17  O   UNL     1     -44.575  58.873 -51.867  1.00  0.00    -0.355 OA
HETATM   18  C   UNL     1     -45.527  59.031 -50.817  1.00  0.00     0.210 C 
ENDBRANCH  12  17
ENDBRANCH   1  11
BRANCH   8  19
HETATM   19  C   UNL     1     -41.375  53.573 -53.566  1.00  0.00    -0.035 A 
HETATM   20  C   UNL     1     -41.298  52.549 -54.525  1.00  0.00     0.010 A 
HETATM   21  C   UNL     1     -40.602  51.368 -54.255  1.00  0.00     0.019 A 
HETATM   22  C   UNL     1     -39.985  51.197 -53.019  1.00  0.00     0.011 A 
HETATM   23 BR   UNL     1     -39.040  49.601 -52.653  1.00  0.00    -0.051 Br
HETATM   24  C   UNL     1     -40.061  52.193 -52.048  1.00  0.00     0.019 A 
HETATM   25  C   UNL     1     -40.755  53.375 -52.321  1.00  0.00     0.010 A 
ENDBRANCH   8  19
BRANCH   5  26
HETATM   26  N   UNL     1     -43.204  59.186 -57.344  1.00  0.00    -0.229 N 
HETATM   27  H   UNL     1     -42.689  59.055 -58.203  1.00  0.00     0.174 HD
HETATM   28  H   UNL     1     -43.406  60.148 -57.107  1.00  0.00     0.174 HD
ENDBRANCH   5  26
TORSDOF 4
ENDMDL
MODEL 7
REMARK VINA RESULT:      -6.9     15.375     17.701
REMARK  4 active torsions:
REMARK  status: ('A' for Active; 'I' for Inactive)
REMARK    1  A    between atoms: O_2  and  C_3 
REMARK    2  A    between atoms: C_4  and  C_5 
REMARK    3  A    between atoms: C_9  and  N_10 
REMARK    4  A    between atoms: C_13  and  C_14 
ROOT
HETATM    1  C   UNL     1     -35.942  40.573 -56.617  1.00  0.00     0.167 C 
HETATM    2  N   UNL     1     -36.399  40.652 -55.227  1.00  0.00    -0.074 N 
HETATM    3  C   UNL     1     -35.602  40.397 -54.137  1.00  0.00     0.736 A 
HETATM    4  N   UNL     1     -36.268  40.669 -53.046  1.00  0.00     0.131 NA
HETATM    5  C   UNL     1     -37.445  41.164 -53.521  1.00  0.00     0.753 A 
HETATM    6  N   UNL     1     -37.567  41.202 -54.845  1.00  0.00     0.037 NA
HETATM    7  N   UNL     1     -34.329  39.974 -54.282  1.00  0.00    -0.214 N 
HETATM    8  C   UNL     1     -33.671  40.288 -55.545  1.00  0.00     0.135 C 
HETATM    9  C   UNL     1     -34.582  39.844 -56.699  1.00  0.00     0.063 C 
HETATM   10  H   UNL     1     -33.743  40.065 -53.456  1.00  0.00     0.178 HD
ENDROOT
BRANCH   1  11
HETATM   11  C   UNL     1     -36.937  39.925 -57.578  1.00  0.00     0.001 A 
HETATM   12  C   UNL     1     -37.398  40.654 -58.694  1.00  0.00     0.076 A 
HETATM   13  C   UNL     1     -38.313  40.082 -59.585  1.00  0.00     0.037 A 
HETATM   14  C   UNL     1     -38.745  38.769 -59.404  1.00  0.00     0.003 A 
HETATM   15  C   UNL     1     -38.265  38.023 -58.333  1.00  0.00     0.001 A 
HETATM   16  C   UNL     1     -37.365  38.593 -57.431  1.00  0.00     0.012 A 
BRANCH  12  17
HETATM   17  O   UNL     1     -36.928  41.937 -58.827  1.00  0.00    -0.355 OA
HETATM   18  C   UNL     1     -37.325  42.607 -60.021  1.00  0.00     0.210 C 
ENDBRANCH  12  17
ENDBRANCH   1  11
BRANCH   8  19
HETATM   19  C   UNL     1     -32.308  39.626 -55.594  1.00  0.00    -0.035 A 
HETATM   20  C   UNL     1     -31.931  38.647 -54.659  1.00  0.00     0.010 A 
HETATM   21  C   UNL     1     -30.679  38.035 -54.732  1.00  0.00     0.019 A 
HETATM   22  C   UNL     1     -29.786  38.403 -55.735  1.00  0.00     0.011 A 
HETATM   23 BR   UNL     1     -28.091  37.573 -55.837  1.00  0.00    -0.051 Br
HETATM   24  C   UNL     1     -30.133  39.382 -56.664  1.00  0.00     0.019 A 
HETATM   25  C   UNL     1     -31.389  39.991 -56.592  1.00  0.00     0.010 A 
ENDBRANCH   8  19
BRANCH   5  26
HETATM   26  N   UNL     1     -38.367  41.556 -52.647  1.00  0.00    -0.229 N 
HETATM   27  H   UNL     1     -38.706  42.504 -52.741  1.00  0.00     0.174 HD
HETATM   28  H   UNL     1     -38.258  41.233 -51.695  1.00  0.00     0.174 HD
ENDBRANCH   5  26
TORSDOF 4
ENDMDL
MODEL 8
REMARK VINA RESULT:      -6.8      3.596      6.869
REMARK  4 active torsions:
REMARK  status: ('A' for Active; 'I' for Inactive)
REMARK    1  A    between atoms: O_2  and  C_3 
REMARK    2  A    between atoms: C_4  and  C_5 
REMARK    3  A    between atoms: C_9  and  N_10 
REMARK    4  A    between atoms: C_13  and  C_14 
ROOT
HETATM    1  C   UNL     1     -42.029  56.115 -52.233  1.00  0.00     0.167 C 
HETATM    2  N   UNL     1     -41.178  57.303 -52.116  1.00  0.00    -0.074 N 
HETATM    3  C   UNL     1     -41.007  58.231 -53.114  1.00  0.00     0.736 A 
HETATM    4  N   UNL     1     -40.291  59.224 -52.658  1.00  0.00     0.131 NA
HETATM    5  C   UNL     1     -40.112  58.896 -51.348  1.00  0.00     0.753 A 
HETATM    6  N   UNL     1     -40.657  57.747 -50.957  1.00  0.00     0.037 NA
HETATM    7  N   UNL     1     -41.570  58.066 -54.330  1.00  0.00    -0.214 N 
HETATM    8  C   UNL     1     -42.743  57.202 -54.400  1.00  0.00     0.135 C 
HETATM    9  C   UNL     1     -42.416  55.870 -53.710  1.00  0.00     0.063 C 
HETATM   10  H   UNL     1     -41.615  58.904 -54.906  1.00  0.00     0.178 HD
ENDROOT
BRANCH   1  11
HETATM   11  C   UNL     1     -41.431  54.843 -51.636  1.00  0.00     0.001 A 
HETATM   12  C   UNL     1     -40.607  54.023 -52.435  1.00  0.00     0.076 A 
HETATM   13  C   UNL     1     -40.053  52.849 -51.910  1.00  0.00     0.037 A 
HETATM   14  C   UNL     1     -40.274  52.501 -50.579  1.00  0.00     0.003 A 
HETATM   15  C   UNL     1     -41.049  53.322 -49.767  1.00  0.00     0.001 A 
HETATM   16  C   UNL     1     -41.619  54.485 -50.288  1.00  0.00     0.012 A 
BRANCH  12  17
HETATM   17  O   UNL     1     -40.415  54.424 -53.734  1.00  0.00    -0.355 OA
HETATM   18  C   UNL     1     -40.189  53.369 -54.667  1.00  0.00     0.210 C 
ENDBRANCH  12  17
ENDBRANCH   1  11
BRANCH   8  19
HETATM   19  C   UNL     1     -43.160  57.019 -55.846  1.00  0.00    -0.035 A 
HETATM   20  C   UNL     1     -43.958  57.967 -56.508  1.00  0.00     0.010 A 
HETATM   21  C   UNL     1     -44.317  57.791 -57.845  1.00  0.00     0.019 A 
HETATM   22  C   UNL     1     -43.890  56.657 -58.532  1.00  0.00     0.011 A 
HETATM   23 BR   UNL     1     -44.372  56.417 -60.344  1.00  0.00    -0.051 Br
HETATM   24  C   UNL     1     -43.111  55.696 -57.891  1.00  0.00     0.019 A 
HETATM   25  C   UNL     1     -42.750  55.877 -56.554  1.00  0.00     0.010 A 
ENDBRANCH   8  19
BRANCH   5  26
HETATM   26  N   UNL     1     -39.416  59.725 -50.575  1.00  0.00    -0.229 N 
HETATM   27  H   UNL     1     -39.942  60.426 -50.074  1.00  0.00     0.174 HD
HETATM   28  H   UNL     1     -38.521  60.033 -50.932  1.00  0.00     0.174 HD
ENDBRANCH   5  26
TORSDOF 4
ENDMDL
MODEL 9
REMARK VINA RESULT:      -6.8     15.714     17.929
REMARK  4 active torsions:
REMARK  status: ('A' for Active; 'I' for Inactive)
REMARK    1  A    between atoms: O_2  and  C_3 
REMARK    2  A    between atoms: C_4  and  C_5 
REMARK    3  A    between atoms: C_9  and  N_10 
REMARK    4  A    between atoms: C_13  and  C_14 
ROOT
HETATM    1  C   UNL     1     -34.973  41.384 -56.586  1.00  0.00     0.167 C 
HETATM    2  N   UNL     1     -35.587  41.223 -55.265  1.00  0.00    -0.074 N 
HETATM    3  C   UNL     1     -34.987  40.582 -54.209  1.00  0.00     0.736 A 
HETATM    4  N   UNL     1     -35.737  40.714 -53.146  1.00  0.00     0.131 NA
HETATM    5  C   UNL     1     -36.749  41.513 -53.583  1.00  0.00     0.753 A 
HETATM    6  N   UNL     1     -36.693  41.877 -54.861  1.00  0.00     0.037 NA
HETATM    7  N   UNL     1     -33.789  39.976 -54.344  1.00  0.00    -0.214 N 
HETATM    8  C   UNL     1     -32.933  40.446 -55.427  1.00  0.00     0.135 C 
HETATM    9  C   UNL     1     -33.746  40.455 -56.730  1.00  0.00     0.063 C 
HETATM   10  H   UNL     1     -33.307  39.766 -53.473  1.00  0.00     0.178 HD
ENDROOT
BRANCH   1  11
HETATM   11  C   UNL     1     -35.926  41.169 -57.761  1.00  0.00     0.001 A 
HETATM   12  C   UNL     1     -36.338  39.860 -58.090  1.00  0.00     0.076 A 
HETATM   13  C   UNL     1     -37.206  39.639 -59.165  1.00  0.00     0.037 A 
HETATM   14  C   UNL     1     -37.708  40.715 -59.896  1.00  0.00     0.003 A 
HETATM   15  C   UNL     1     -37.345  42.013 -59.557  1.00  0.00     0.001 A 
HETATM   16  C   UNL     1     -36.466  42.240 -58.496  1.00  0.00     0.012 A 
BRANCH  12  17
HETATM   17  O   UNL     1     -35.820  38.843 -57.326  1.00  0.00    -0.355 OA
HETATM   18  C   UNL     1     -36.786  38.050 -56.638  1.00  0.00     0.210 C 
ENDBRANCH  12  17
ENDBRANCH   1  11
BRANCH   8  19
HETATM   19  C   UNL     1     -31.697  39.574 -55.521  1.00  0.00    -0.035 A 
HETATM   20  C   UNL     1     -31.453  38.540 -54.601  1.00  0.00     0.010 A 
HETATM   21  C   UNL     1     -30.319  37.734 -54.715  1.00  0.00     0.019 A 
HETATM   22  C   UNL     1     -29.410  37.962 -55.745  1.00  0.00     0.011 A 
HETATM   23 BR   UNL     1     -27.874  36.870 -55.903  1.00  0.00    -0.051 Br
HETATM   24  C   UNL     1     -29.623  38.991 -56.660  1.00  0.00     0.019 A 
HETATM   25  C   UNL     1     -30.762  39.793 -56.546  1.00  0.00     0.010 A 
ENDBRANCH   8  19
BRANCH   5  26
HETATM   26  N   UNL     1     -37.703  41.857 -52.722  1.00  0.00    -0.229 N 
HETATM   27  H   UNL     1     -37.448  41.865 -51.744  1.00  0.00     0.174 HD
HETATM   28  H   UNL     1     -38.635  41.520 -52.920  1.00  0.00     0.174 HD
ENDBRANCH   5  26
TORSDOF 4
ENDMDL
MODEL 10
REMARK VINA RESULT:      -6.8      2.352      4.548
REMARK  4 active torsions:
REMARK  status: ('A' for Active; 'I' for Inactive)
REMARK    1  A    between atoms: O_2  and  C_3 
REMARK    2  A    between atoms: C_4  and  C_5 
REMARK    3  A    between atoms: C_9  and  N_10 
REMARK    4  A    between atoms: C_13  and  C_14 
ROOT
HETATM    1  C   UNL     1     -43.419  56.784 -54.361  1.00  0.00     0.167 C 
HETATM    2  N   UNL     1     -43.306  56.636 -55.814  1.00  0.00    -0.074 N 
HETATM    3  C   UNL     1     -42.685  55.580 -56.435  1.00  0.00     0.736 A 
HETATM    4  N   UNL     1     -42.860  55.680 -57.727  1.00  0.00     0.131 NA
HETATM    5  C   UNL     1     -43.663  56.773 -57.844  1.00  0.00     0.753 A 
HETATM    6  N   UNL     1     -43.990  57.379 -56.705  1.00  0.00     0.037 NA
HETATM    7  N   UNL     1     -42.055  54.619 -55.727  1.00  0.00    -0.214 N 
HETATM    8  C   UNL     1     -42.480  54.438 -54.343  1.00  0.00     0.135 C 
HETATM    9  C   UNL     1     -42.465  55.803 -53.640  1.00  0.00     0.063 C 
HETATM   10  H   UNL     1     -41.861  53.760 -56.235  1.00  0.00     0.178 HD
ENDROOT
BRANCH   1  11
HETATM   11  C   UNL     1     -43.187  58.204 -53.846  1.00  0.00     0.001 A 
HETATM   12  C   UNL     1     -43.993  58.703 -52.801  1.00  0.00     0.076 A 
HETATM   13  C   UNL     1     -43.801  60.002 -52.317  1.00  0.00     0.037 A 
HETATM   14  C   UNL     1     -42.783  60.802 -52.833  1.00  0.00     0.003 A 
HETATM   15  C   UNL     1     -41.953  60.308 -53.833  1.00  0.00     0.001 A 
HETATM   16  C   UNL     1     -42.148  59.019 -54.332  1.00  0.00     0.012 A 
BRANCH  12  17
HETATM   17  O   UNL     1     -44.970  57.864 -52.325  1.00  0.00    -0.355 OA
HETATM   18  C   UNL     1     -44.754  57.370 -51.005  1.00  0.00     0.210 C 
ENDBRANCH  12  17
ENDBRANCH   1  11
BRANCH   8  19
HETATM   19  C   UNL     1     -41.584  53.424 -53.659  1.00  0.00    -0.035 A 
HETATM   20  C   UNL     1     -41.242  53.543 -52.301  1.00  0.00     0.010 A 
HETATM   21  C   UNL     1     -40.431  52.588 -51.683  1.00  0.00     0.019 A 
HETATM   22  C   UNL     1     -39.945  51.511 -52.420  1.00  0.00     0.011 A 
HETATM   23 BR   UNL     1     -38.850  50.217 -51.585  1.00  0.00    -0.051 Br
HETATM   24  C   UNL     1     -40.260  51.383 -53.771  1.00  0.00     0.019 A 
HETATM   25  C   UNL     1     -41.074  52.336 -54.387  1.00  0.00     0.010 A 
ENDBRANCH   8  19
BRANCH   5  26
HETATM   26  N   UNL     1     -44.047  57.152 -59.059  1.00  0.00    -0.229 N 
HETATM   27  H   UNL     1     -43.978  58.138 -59.269  1.00  0.00     0.174 HD
HETATM   28  H   UNL     1     -44.859  56.688 -59.443  1.00  0.00     0.174 HD
ENDBRANCH   5  26
TORSDOF 4
ENDMDL
