MODEL 1
REMARK VINA RESULT:      -8.1      0.000      0.000
REMARK  3 active torsions:
REMARK  status: ('A' for Active; 'I' for Inactive)
REMARK    1  A    between atoms: C_5  and  N_6 
REMARK       I    between atoms: N_6  and  C_7 
REMARK    2  A    between atoms: C_7  and  C_8 
REMARK    3  A    between atoms: C_8  and  C_9 
ROOT
HETATM    1  C   UNL     1     -43.557  56.513 -51.676  1.00  0.00     0.286 C 
HETATM    2  N   UNL     1     -43.701  55.440 -52.765  1.00  0.00    -0.056 N 
HETATM    3  H   UNL     1     -43.248  54.570 -52.442  1.00  0.00     0.278 HD
HETATM    4  H   UNL     1     -44.699  55.226 -52.887  1.00  0.00     0.278 HD
HETATM    5  C   UNL     1     -43.094  55.793 -54.101  1.00  0.00     0.209 C 
HETATM    6  C   UNL     1     -43.562  57.194 -54.537  1.00  0.00     0.115 C 
HETATM    7  N   UNL     1     -43.298  58.191 -53.515  1.00  0.00    -0.353 N 
HETATM    8  C   UNL     1     -43.424  57.966 -52.173  1.00  0.00     0.249 C 
HETATM    9  O   UNL     1     -43.353  58.906 -51.384  1.00  0.00    -0.271 OA
HETATM   10  C   UNL     1     -43.485  54.744 -55.138  1.00  0.00     0.035 C 
HETATM   11  C   UNL     1     -42.860  55.088 -56.490  1.00  0.00     0.002 C 
HETATM   12  C   UNL     1     -43.183  56.515 -56.938  1.00  0.00     0.002 C 
HETATM   13  C   UNL     1     -42.882  57.557 -55.860  1.00  0.00     0.027 C 
HETATM   14  H   UNL     1     -43.267  59.176 -53.774  1.00  0.00     0.163 HD
ENDROOT
BRANCH   1  15
HETATM   15  C   UNL     1     -42.426  56.189 -50.692  1.00  0.00     0.146 C 
BRANCH  15  16
HETATM   16  C   UNL     1     -42.056  54.736 -50.834  1.00  0.00     0.224 C 
HETATM   17  N   UNL     1     -40.842  54.535 -51.453  1.00  0.00    -0.327 N 
HETATM   18  H   UNL     1     -40.196  55.319 -51.505  1.00  0.00     0.169 HD
HETATM   19  O   UNL     1     -42.913  53.897 -50.568  1.00  0.00    -0.273 OA
BRANCH  17  20
HETATM   20  C   UNL     1     -40.409  53.368 -52.120  1.00  0.00     0.034 A 
HETATM   21  C   UNL     1     -39.859  52.258 -51.475  1.00  0.00     0.030 A 
HETATM   22  C   UNL     1     -39.548  51.101 -52.199  1.00  0.00     0.009 A 
HETATM   23  C   UNL     1     -39.762  51.042 -53.579  1.00  0.00    -0.062 A 
HETATM   24  C   UNL     1     -39.473  49.783 -54.344  1.00  0.00     0.048 C 
HETATM   25  C   UNL     1     -40.302  52.157 -54.226  1.00  0.00     0.009 A 
HETATM   26  C   UNL     1     -40.616  53.312 -53.502  1.00  0.00     0.030 A 
ENDBRANCH  17  20
ENDBRANCH  15  16
ENDBRANCH   1  15
TORSDOF 3
ENDMDL
MODEL 2
REMARK VINA RESULT:      -7.7      1.491      5.982
REMARK  3 active torsions:
REMARK  status: ('A' for Active; 'I' for Inactive)
REMARK    1  A    between atoms: C_5  and  N_6 
REMARK       I    between atoms: N_6  and  C_7 
REMARK    2  A    between atoms: C_7  and  C_8 
REMARK    3  A    between atoms: C_8  and  C_9 
ROOT
HETATM    1  C   UNL     1     -40.627  54.155 -50.948  1.00  0.00     0.286 C 
HETATM    2  N   UNL     1     -40.279  53.744 -52.386  1.00  0.00    -0.056 N 
HETATM    3  H   UNL     1     -40.895  54.254 -53.039  1.00  0.00     0.278 HD
HETATM    4  H   UNL     1     -39.318  54.046 -52.591  1.00  0.00     0.278 HD
HETATM    5  C   UNL     1     -40.421  52.273 -52.688  1.00  0.00     0.209 C 
HETATM    6  C   UNL     1     -39.702  51.443 -51.610  1.00  0.00     0.115 C 
HETATM    7  N   UNL     1     -40.152  51.792 -50.274  1.00  0.00    -0.353 N 
HETATM    8  C   UNL     1     -40.454  53.063 -49.874  1.00  0.00     0.249 C 
HETATM    9  O   UNL     1     -40.657  53.300 -48.685  1.00  0.00    -0.271 OA
HETATM   10  C   UNL     1     -39.852  51.974 -54.072  1.00  0.00     0.035 C 
HETATM   11  C   UNL     1     -40.009  50.486 -54.391  1.00  0.00     0.002 C 
HETATM   12  C   UNL     1     -39.420  49.589 -53.300  1.00  0.00     0.002 C 
HETATM   13  C   UNL     1     -39.917  49.954 -51.900  1.00  0.00     0.027 C 
HETATM   14  H   UNL     1     -40.002  51.135 -49.509  1.00  0.00     0.163 HD
ENDROOT
BRANCH   1  15
HETATM   15  C   UNL     1     -42.026  54.775 -50.846  1.00  0.00     0.146 C 
BRANCH  15  16
HETATM   16  C   UNL     1     -42.231  55.711 -52.008  1.00  0.00     0.224 C 
HETATM   17  N   UNL     1     -43.165  55.266 -52.916  1.00  0.00    -0.327 N 
HETATM   18  H   UNL     1     -43.812  54.539 -52.620  1.00  0.00     0.169 HD
HETATM   19  O   UNL     1     -41.449  56.651 -52.131  1.00  0.00    -0.273 OA
BRANCH  17  20
HETATM   20  C   UNL     1     -43.281  55.642 -54.272  1.00  0.00     0.034 A 
HETATM   21  C   UNL     1     -43.826  56.852 -54.704  1.00  0.00     0.030 A 
HETATM   22  C   UNL     1     -43.812  57.191 -56.062  1.00  0.00     0.009 A 
HETATM   23  C   UNL     1     -43.270  56.319 -57.011  1.00  0.00    -0.062 A 
HETATM   24  C   UNL     1     -43.212  56.706 -58.460  1.00  0.00     0.048 C 
HETATM   25  C   UNL     1     -42.734  55.102 -56.580  1.00  0.00     0.009 A 
HETATM   26  C   UNL     1     -42.746  54.765 -55.223  1.00  0.00     0.030 A 
ENDBRANCH  17  20
ENDBRANCH  15  16
ENDBRANCH   1  15
TORSDOF 3
ENDMDL
MODEL 3
REMARK VINA RESULT:      -7.4      2.051      2.921
REMARK  3 active torsions:
REMARK  status: ('A' for Active; 'I' for Inactive)
REMARK    1  A    between atoms: C_5  and  N_6 
REMARK       I    between atoms: N_6  and  C_7 
REMARK    2  A    between atoms: C_7  and  C_8 
REMARK    3  A    between atoms: C_8  and  C_9 
ROOT
HETATM    1  C   UNL     1     -43.459  57.084 -54.995  1.00  0.00     0.286 C 
HETATM    2  N   UNL     1     -43.493  56.050 -56.129  1.00  0.00    -0.056 N 
HETATM    3  H   UNL     1     -42.839  55.283 -55.905  1.00  0.00     0.278 HD
HETATM    4  H   UNL     1     -44.433  55.634 -56.169  1.00  0.00     0.278 HD
HETATM    5  C   UNL     1     -43.116  56.577 -57.492  1.00  0.00     0.209 C 
HETATM    6  C   UNL     1     -43.906  57.864 -57.794  1.00  0.00     0.115 C 
HETATM    7  N   UNL     1     -43.748  58.851 -56.742  1.00  0.00    -0.353 N 
HETATM    8  C   UNL     1     -43.683  58.551 -55.411  1.00  0.00     0.249 C 
HETATM    9  O   UNL     1     -43.724  59.451 -54.576  1.00  0.00    -0.271 OA
HETATM   10  C   UNL     1     -43.389  55.512 -58.550  1.00  0.00     0.035 C 
HETATM   11  C   UNL     1     -42.994  56.035 -59.932  1.00  0.00     0.002 C 
HETATM   12  C   UNL     1     -43.650  57.378 -60.259  1.00  0.00     0.002 C 
HETATM   13  C   UNL     1     -43.459  58.416 -59.151  1.00  0.00     0.027 C 
HETATM   14  H   UNL     1     -43.947  59.830 -56.942  1.00  0.00     0.163 HD
ENDROOT
BRANCH   1  15
HETATM   15  C   UNL     1     -42.190  56.966 -54.143  1.00  0.00     0.146 C 
BRANCH  15  16
HETATM   16  C   UNL     1     -42.162  55.608 -53.492  1.00  0.00     0.224 C 
HETATM   17  N   UNL     1     -40.916  55.023 -53.492  1.00  0.00    -0.327 N 
HETATM   18  H   UNL     1     -40.107  55.618 -53.655  1.00  0.00     0.169 HD
HETATM   19  O   UNL     1     -43.237  55.090 -53.201  1.00  0.00    -0.273 OA
BRANCH  17  20
HETATM   20  C   UNL     1     -40.621  53.646 -53.378  1.00  0.00     0.034 A 
HETATM   21  C   UNL     1     -40.607  52.758 -54.455  1.00  0.00     0.030 A 
HETATM   22  C   UNL     1     -40.206  51.430 -54.273  1.00  0.00     0.009 A 
HETATM   23  C   UNL     1     -39.831  50.963 -53.009  1.00  0.00    -0.062 A 
HETATM   24  C   UNL     1     -39.355  49.551 -52.826  1.00  0.00     0.048 C 
HETATM   25  C   UNL     1     -39.857  51.849 -51.929  1.00  0.00     0.009 A 
HETATM   26  C   UNL     1     -40.255  53.177 -52.112  1.00  0.00     0.030 A 
ENDBRANCH  17  20
ENDBRANCH  15  16
ENDBRANCH   1  15
TORSDOF 3
ENDMDL
MODEL 4
REMARK VINA RESULT:      -7.3      2.685      4.477
REMARK  3 active torsions:
REMARK  status: ('A' for Active; 'I' for Inactive)
REMARK    1  A    between atoms: C_5  and  N_6 
REMARK       I    between atoms: N_6  and  C_7 
REMARK    2  A    between atoms: C_7  and  C_8 
REMARK    3  A    between atoms: C_8  and  C_9 
ROOT
HETATM    1  C   UNL     1     -43.144  57.886 -51.753  1.00  0.00     0.286 C 
HETATM    2  N   UNL     1     -42.784  59.368 -51.933  1.00  0.00    -0.056 N 
HETATM    3  H   UNL     1     -41.757  59.459 -51.996  1.00  0.00     0.278 HD
HETATM    4  H   UNL     1     -43.164  59.692 -52.832  1.00  0.00     0.278 HD
HETATM    5  C   UNL     1     -43.250  60.283 -50.828  1.00  0.00     0.209 C 
HETATM    6  C   UNL     1     -44.740  60.033 -50.532  1.00  0.00     0.115 C 
HETATM    7  N   UNL     1     -45.006  58.633 -50.256  1.00  0.00    -0.353 N 
HETATM    8  C   UNL     1     -44.396  57.594 -50.902  1.00  0.00     0.249 C 
HETATM    9  O   UNL     1     -44.800  56.446 -50.735  1.00  0.00    -0.271 OA
HETATM   10  C   UNL     1     -43.013  61.737 -51.228  1.00  0.00     0.035 C 
HETATM   11  C   UNL     1     -43.469  62.669 -50.105  1.00  0.00     0.002 C 
HETATM   12  C   UNL     1     -44.912  62.400 -49.671  1.00  0.00     0.002 C 
HETATM   13  C   UNL     1     -45.173  60.925 -49.364  1.00  0.00     0.027 C 
HETATM   14  H   UNL     1     -45.855  58.375 -49.755  1.00  0.00     0.163 HD
ENDROOT
BRANCH   1  15
HETATM   15  C   UNL     1     -41.957  57.061 -51.242  1.00  0.00     0.146 C 
BRANCH  15  16
HETATM   16  C   UNL     1     -41.536  56.093 -52.316  1.00  0.00     0.224 C 
HETATM   17  N   UNL     1     -41.731  54.774 -51.976  1.00  0.00    -0.327 N 
HETATM   18  H   UNL     1     -42.363  54.566 -51.206  1.00  0.00     0.169 HD
HETATM   19  O   UNL     1     -40.913  56.539 -53.277  1.00  0.00    -0.273 OA
BRANCH  17  20
HETATM   20  C   UNL     1     -41.076  53.647 -52.520  1.00  0.00     0.034 A 
HETATM   21  C   UNL     1     -40.123  52.891 -51.837  1.00  0.00     0.030 A 
HETATM   22  C   UNL     1     -39.595  51.729 -52.412  1.00  0.00     0.009 A 
HETATM   23  C   UNL     1     -39.997  51.315 -53.685  1.00  0.00    -0.062 A 
HETATM   24  C   UNL     1     -39.465  50.043 -54.279  1.00  0.00     0.048 C 
HETATM   25  C   UNL     1     -40.943  52.079 -54.375  1.00  0.00     0.009 A 
HETATM   26  C   UNL     1     -41.472  53.238 -53.798  1.00  0.00     0.030 A 
ENDBRANCH  17  20
ENDBRANCH  15  16
ENDBRANCH   1  15
TORSDOF 3
ENDMDL
MODEL 5
REMARK VINA RESULT:      -7.3      2.353      3.267
REMARK  3 active torsions:
REMARK  status: ('A' for Active; 'I' for Inactive)
REMARK    1  A    between atoms: C_5  and  N_6 
REMARK       I    between atoms: N_6  and  C_7 
REMARK    2  A    between atoms: C_7  and  C_8 
REMARK    3  A    between atoms: C_8  and  C_9 
ROOT
HETATM    1  C   UNL     1     -44.217  58.044 -55.230  1.00  0.00     0.286 C 
HETATM    2  N   UNL     1     -43.993  56.779 -56.071  1.00  0.00    -0.056 N 
HETATM    3  H   UNL     1     -43.389  56.128 -55.545  1.00  0.00     0.278 HD
HETATM    4  H   UNL     1     -44.896  56.304 -56.200  1.00  0.00     0.278 HD
HETATM    5  C   UNL     1     -43.346  57.006 -57.415  1.00  0.00     0.209 C 
HETATM    6  C   UNL     1     -44.075  58.135 -58.166  1.00  0.00     0.115 C 
HETATM    7  N   UNL     1     -44.159  59.344 -57.367  1.00  0.00    -0.353 N 
HETATM    8  C   UNL     1     -44.372  59.360 -56.018  1.00  0.00     0.249 C 
HETATM    9  O   UNL     1     -44.605  60.422 -55.445  1.00  0.00    -0.271 OA
HETATM   10  C   UNL     1     -43.371  55.712 -58.224  1.00  0.00     0.035 C 
HETATM   11  C   UNL     1     -42.701  55.931 -59.582  1.00  0.00     0.002 C 
HETATM   12  C   UNL     1     -43.296  57.119 -60.342  1.00  0.00     0.002 C 
HETATM   13  C   UNL     1     -43.361  58.392 -59.496  1.00  0.00     0.027 C 
HETATM   14  H   UNL     1     -44.329  60.237 -57.829  1.00  0.00     0.163 HD
ENDROOT
BRANCH   1  15
HETATM   15  C   UNL     1     -43.154  58.207 -54.137  1.00  0.00     0.146 C 
BRANCH  15  16
HETATM   16  C   UNL     1     -42.851  56.856 -53.545  1.00  0.00     0.224 C 
HETATM   17  N   UNL     1     -41.534  56.479 -53.678  1.00  0.00    -0.327 N 
HETATM   18  H   UNL     1     -40.848  57.201 -53.889  1.00  0.00     0.169 HD
HETATM   19  O   UNL     1     -43.799  56.164 -53.180  1.00  0.00    -0.273 OA
BRANCH  17  20
HETATM   20  C   UNL     1     -41.015  55.166 -53.645  1.00  0.00     0.034 A 
HETATM   21  C   UNL     1     -40.952  54.380 -52.493  1.00  0.00     0.030 A 
HETATM   22  C   UNL     1     -40.517  53.051 -52.565  1.00  0.00     0.009 A 
HETATM   23  C   UNL     1     -40.121  52.494 -53.785  1.00  0.00    -0.062 A 
HETATM   24  C   UNL     1     -39.702  51.055 -53.867  1.00  0.00     0.048 C 
HETATM   25  C   UNL     1     -40.173  53.285 -54.936  1.00  0.00     0.009 A 
HETATM   26  C   UNL     1     -40.611  54.611 -54.864  1.00  0.00     0.030 A 
ENDBRANCH  17  20
ENDBRANCH  15  16
ENDBRANCH   1  15
TORSDOF 3
ENDMDL
MODEL 6
REMARK VINA RESULT:      -7.3      2.403      4.044
REMARK  3 active torsions:
REMARK  status: ('A' for Active; 'I' for Inactive)
REMARK    1  A    between atoms: C_5  and  N_6 
REMARK       I    between atoms: N_6  and  C_7 
REMARK    2  A    between atoms: C_7  and  C_8 
REMARK    3  A    between atoms: C_8  and  C_9 
ROOT
HETATM    1  C   UNL     1     -42.856  57.464 -51.288  1.00  0.00     0.286 C 
HETATM    2  N   UNL     1     -44.121  58.077 -50.668  1.00  0.00    -0.056 N 
HETATM    3  H   UNL     1     -44.945  57.545 -50.991  1.00  0.00     0.278 HD
HETATM    4  H   UNL     1     -44.077  57.963 -49.647  1.00  0.00     0.278 HD
HETATM    5  C   UNL     1     -44.364  59.528 -51.004  1.00  0.00     0.209 C 
HETATM    6  C   UNL     1     -43.086  60.347 -50.753  1.00  0.00     0.115 C 
HETATM    7  N   UNL     1     -41.943  59.789 -51.453  1.00  0.00    -0.353 N 
HETATM    8  C   UNL     1     -41.714  58.450 -51.602  1.00  0.00     0.249 C 
HETATM    9  O   UNL     1     -40.640  58.058 -52.053  1.00  0.00    -0.271 OA
HETATM   10  C   UNL     1     -45.524  60.063 -50.168  1.00  0.00     0.035 C 
HETATM   11  C   UNL     1     -45.786  61.529 -50.515  1.00  0.00     0.002 C 
HETATM   12  C   UNL     1     -44.526  62.390 -50.404  1.00  0.00     0.002 C 
HETATM   13  C   UNL     1     -43.336  61.801 -51.163  1.00  0.00     0.027 C 
HETATM   14  H   UNL     1     -41.130  60.376 -51.630  1.00  0.00     0.163 HD
ENDROOT
BRANCH   1  15
HETATM   15  C   UNL     1     -43.172  56.613 -52.523  1.00  0.00     0.146 C 
BRANCH  15  16
HETATM   16  C   UNL     1     -42.716  55.200 -52.272  1.00  0.00     0.224 C 
HETATM   17  N   UNL     1     -41.399  54.978 -52.609  1.00  0.00    -0.327 N 
HETATM   18  H   UNL     1     -40.791  55.786 -52.720  1.00  0.00     0.169 HD
HETATM   19  O   UNL     1     -43.569  54.365 -51.980  1.00  0.00    -0.273 OA
BRANCH  17  20
HETATM   20  C   UNL     1     -40.795  53.739 -52.913  1.00  0.00     0.034 A 
HETATM   21  C   UNL     1     -40.156  52.929 -51.973  1.00  0.00     0.030 A 
HETATM   22  C   UNL     1     -39.671  51.667 -52.337  1.00  0.00     0.009 A 
HETATM   23  C   UNL     1     -39.799  51.204 -53.650  1.00  0.00    -0.062 A 
HETATM   24  C   UNL     1     -39.321  49.832 -54.026  1.00  0.00     0.048 C 
HETATM   25  C   UNL     1     -40.428  52.020 -54.594  1.00  0.00     0.009 A 
HETATM   26  C   UNL     1     -40.915  53.279 -54.229  1.00  0.00     0.030 A 
ENDBRANCH  17  20
ENDBRANCH  15  16
ENDBRANCH   1  15
TORSDOF 3
ENDMDL
MODEL 7
REMARK VINA RESULT:      -7.2     14.588     17.150
REMARK  3 active torsions:
REMARK  status: ('A' for Active; 'I' for Inactive)
REMARK    1  A    between atoms: C_5  and  N_6 
REMARK       I    between atoms: N_6  and  C_7 
REMARK    2  A    between atoms: C_7  and  C_8 
REMARK    3  A    between atoms: C_8  and  C_9 
ROOT
HETATM    1  C   UNL     1     -33.787  40.864 -51.224  1.00  0.00     0.286 C 
HETATM    2  N   UNL     1     -33.175  41.078 -52.616  1.00  0.00    -0.056 N 
HETATM    3  H   UNL     1     -33.852  41.585 -53.207  1.00  0.00     0.278 HD
HETATM    4  H   UNL     1     -32.351  41.686 -52.523  1.00  0.00     0.278 HD
HETATM    5  C   UNL     1     -32.792  39.818 -53.351  1.00  0.00     0.209 C 
HETATM    6  C   UNL     1     -31.956  38.907 -52.434  1.00  0.00     0.115 C 
HETATM    7  N   UNL     1     -32.633  38.644 -51.176  1.00  0.00    -0.353 N 
HETATM    8  C   UNL     1     -33.378  39.567 -50.498  1.00  0.00     0.249 C 
HETATM    9  O   UNL     1     -33.771  39.322 -49.360  1.00  0.00    -0.271 OA
HETATM   10  C   UNL     1     -32.014  40.174 -54.615  1.00  0.00     0.035 C 
HETATM   11  C   UNL     1     -31.637  38.901 -55.374  1.00  0.00     0.002 C 
HETATM   12  C   UNL     1     -30.903  37.889 -54.490  1.00  0.00     0.002 C 
HETATM   13  C   UNL     1     -31.636  37.607 -53.178  1.00  0.00     0.027 C 
HETATM   14  H   UNL     1     -32.356  37.837 -50.619  1.00  0.00     0.163 HD
ENDROOT
BRANCH   1  15
HETATM   15  C   UNL     1     -35.315  40.998 -51.238  1.00  0.00     0.146 C 
BRANCH  15  16
HETATM   16  C   UNL     1     -35.722  41.825 -52.430  1.00  0.00     0.224 C 
HETATM   17  N   UNL     1     -36.332  41.094 -53.425  1.00  0.00    -0.327 N 
HETATM   18  H   UNL     1     -36.701  40.176 -53.187  1.00  0.00     0.169 HD
HETATM   19  O   UNL     1     -35.324  42.986 -52.485  1.00  0.00    -0.273 OA
BRANCH  17  20
HETATM   20  C   UNL     1     -36.434  41.434 -54.791  1.00  0.00     0.034 A 
HETATM   21  C   UNL     1     -35.351  41.816 -55.585  1.00  0.00     0.030 A 
HETATM   22  C   UNL     1     -35.521  42.039 -56.956  1.00  0.00     0.009 A 
HETATM   23  C   UNL     1     -36.778  41.903 -57.552  1.00  0.00    -0.062 A 
HETATM   24  C   UNL     1     -36.948  42.095 -59.031  1.00  0.00     0.048 C 
HETATM   25  C   UNL     1     -37.865  41.532 -56.755  1.00  0.00     0.009 A 
HETATM   26  C   UNL     1     -37.694  41.306 -55.386  1.00  0.00     0.030 A 
ENDBRANCH  17  20
ENDBRANCH  15  16
ENDBRANCH   1  15
TORSDOF 3
ENDMDL
MODEL 8
REMARK VINA RESULT:      -7.2      1.826      6.738
REMARK  3 active torsions:
REMARK  status: ('A' for Active; 'I' for Inactive)
REMARK    1  A    between atoms: C_5  and  N_6 
REMARK       I    between atoms: N_6  and  C_7 
REMARK    2  A    between atoms: C_7  and  C_8 
REMARK    3  A    between atoms: C_8  and  C_9 
ROOT
HETATM    1  C   UNL     1     -40.917  54.150 -51.265  1.00  0.00     0.286 C 
HETATM    2  N   UNL     1     -40.596  53.675 -52.690  1.00  0.00    -0.056 N 
HETATM    3  H   UNL     1     -41.305  54.054 -53.338  1.00  0.00     0.278 HD
HETATM    4  H   UNL     1     -39.692  54.076 -52.974  1.00  0.00     0.278 HD
HETATM    5  C   UNL     1     -40.567  52.179 -52.879  1.00  0.00     0.209 C 
HETATM    6  C   UNL     1     -39.693  51.529 -51.791  1.00  0.00     0.115 C 
HETATM    7  N   UNL     1     -40.113  51.922 -50.458  1.00  0.00    -0.353 N 
HETATM    8  C   UNL     1     -40.552  53.174 -50.130  1.00  0.00     0.249 C 
HETATM    9  O   UNL     1     -40.721  53.475 -48.951  1.00  0.00    -0.271 OA
HETATM   10  C   UNL     1     -40.037  51.845 -54.271  1.00  0.00     0.035 C 
HETATM   11  C   UNL     1     -40.021  50.330 -54.475  1.00  0.00     0.002 C 
HETATM   12  C   UNL     1     -39.267  49.598 -53.362  1.00  0.00     0.002 C 
HETATM   13  C   UNL     1     -39.733  50.007 -51.963  1.00  0.00     0.027 C 
HETATM   14  H   UNL     1     -39.841  51.349 -49.660  1.00  0.00     0.163 HD
ENDROOT
BRANCH   1  15
HETATM   15  C   UNL     1     -42.376  54.600 -51.122  1.00  0.00     0.146 C 
BRANCH  15  16
HETATM   16  C   UNL     1     -42.533  55.956 -51.758  1.00  0.00     0.224 C 
HETATM   17  N   UNL     1     -43.800  56.194 -52.242  1.00  0.00    -0.327 N 
HETATM   18  H   UNL     1     -44.559  55.605 -51.907  1.00  0.00     0.169 HD
HETATM   19  O   UNL     1     -41.518  56.623 -51.946  1.00  0.00    -0.273 OA
BRANCH  17  20
HETATM   20  C   UNL     1     -44.170  57.122 -53.241  1.00  0.00     0.034 A 
HETATM   21  C   UNL     1     -44.270  56.811 -54.598  1.00  0.00     0.030 A 
HETATM   22  C   UNL     1     -44.742  57.763 -55.510  1.00  0.00     0.009 A 
HETATM   23  C   UNL     1     -45.103  59.044 -55.083  1.00  0.00    -0.062 A 
HETATM   24  C   UNL     1     -45.654  60.046 -56.055  1.00  0.00     0.048 C 
HETATM   25  C   UNL     1     -44.992  59.359 -53.726  1.00  0.00     0.009 A 
HETATM   26  C   UNL     1     -44.524  58.407 -52.814  1.00  0.00     0.030 A 
ENDBRANCH  17  20
ENDBRANCH  15  16
ENDBRANCH   1  15
TORSDOF 3
ENDMDL
MODEL 9
REMARK VINA RESULT:      -7.1     14.162     16.089
REMARK  3 active torsions:
REMARK  status: ('A' for Active; 'I' for Inactive)
REMARK    1  A    between atoms: C_5  and  N_6 
REMARK       I    between atoms: N_6  and  C_7 
REMARK    2  A    between atoms: C_7  and  C_8 
REMARK    3  A    between atoms: C_8  and  C_9 
ROOT
HETATM    1  C   UNL     1     -37.260  41.376 -53.116  1.00  0.00     0.286 C 
HETATM    2  N   UNL     1     -38.133  40.989 -54.319  1.00  0.00    -0.056 N 
HETATM    3  H   UNL     1     -38.507  40.038 -54.171  1.00  0.00     0.278 HD
HETATM    4  H   UNL     1     -38.942  41.622 -54.356  1.00  0.00     0.278 HD
HETATM    5  C   UNL     1     -37.428  40.991 -55.653  1.00  0.00     0.209 C 
HETATM    6  C   UNL     1     -36.659  42.311 -55.838  1.00  0.00     0.115 C 
HETATM    7  N   UNL     1     -35.763  42.572 -54.726  1.00  0.00    -0.353 N 
HETATM    8  C   UNL     1     -36.057  42.290 -53.422  1.00  0.00     0.249 C 
HETATM    9  O   UNL     1     -35.324  42.699 -52.525  1.00  0.00    -0.271 OA
HETATM   10  C   UNL     1     -38.446  40.795 -56.773  1.00  0.00     0.035 C 
HETATM   11  C   UNL     1     -37.736  40.780 -58.128  1.00  0.00     0.002 C 
HETATM   12  C   UNL     1     -36.851  42.011 -58.338  1.00  0.00     0.002 C 
HETATM   13  C   UNL     1     -35.899  42.263 -57.168  1.00  0.00     0.027 C 
HETATM   14  H   UNL     1     -34.988  43.222 -54.850  1.00  0.00     0.163 HD
ENDROOT
BRANCH   1  15
HETATM   15  C   UNL     1     -36.800  40.150 -52.318  1.00  0.00     0.146 C 
BRANCH  15  16
HETATM   16  C   UNL     1     -35.827  39.360 -53.154  1.00  0.00     0.224 C 
HETATM   17  N   UNL     1     -34.520  39.766 -53.011  1.00  0.00    -0.327 N 
HETATM   18  H   UNL     1     -34.280  40.332 -52.199  1.00  0.00     0.169 HD
HETATM   19  O   UNL     1     -36.287  38.584 -53.989  1.00  0.00    -0.273 OA
BRANCH  17  20
HETATM   20  C   UNL     1     -33.460  39.565 -53.922  1.00  0.00     0.034 A 
HETATM   21  C   UNL     1     -33.350  40.220 -55.150  1.00  0.00     0.030 A 
HETATM   22  C   UNL     1     -32.215  40.039 -55.950  1.00  0.00     0.009 A 
HETATM   23  C   UNL     1     -31.184  39.187 -55.545  1.00  0.00    -0.062 A 
HETATM   24  C   UNL     1     -29.947  39.032 -56.382  1.00  0.00     0.048 C 
HETATM   25  C   UNL     1     -31.300  38.521 -54.321  1.00  0.00     0.009 A 
HETATM   26  C   UNL     1     -32.432  38.705 -53.520  1.00  0.00     0.030 A 
ENDBRANCH  17  20
ENDBRANCH  15  16
ENDBRANCH   1  15
TORSDOF 3
ENDMDL
MODEL 10
REMARK VINA RESULT:      -7.0      1.833      6.440
REMARK  3 active torsions:
REMARK  status: ('A' for Active; 'I' for Inactive)
REMARK    1  A    between atoms: C_5  and  N_6 
REMARK       I    between atoms: N_6  and  C_7 
REMARK    2  A    between atoms: C_7  and  C_8 
REMARK    3  A    between atoms: C_8  and  C_9 
ROOT
HETATM    1  C   UNL     1     -40.976  54.861 -52.080  1.00  0.00     0.286 C 
HETATM    2  N   UNL     1     -40.304  53.812 -52.977  1.00  0.00    -0.056 N 
HETATM    3  H   UNL     1     -40.719  53.862 -53.922  1.00  0.00     0.278 HD
HETATM    4  H   UNL     1     -39.310  54.054 -53.078  1.00  0.00     0.278 HD
HETATM    5  C   UNL     1     -40.432  52.385 -52.506  1.00  0.00     0.209 C 
HETATM    6  C   UNL     1     -40.035  52.284 -51.022  1.00  0.00     0.115 C 
HETATM    7  N   UNL     1     -40.783  53.219 -50.201  1.00  0.00    -0.353 N 
HETATM    8  C   UNL     1     -41.119  54.484 -50.592  1.00  0.00     0.249 C 
HETATM    9  O   UNL     1     -41.598  55.271 -49.778  1.00  0.00    -0.271 OA
HETATM   10  C   UNL     1     -39.554  51.478 -53.364  1.00  0.00     0.035 C 
HETATM   11  C   UNL     1     -39.691  50.027 -52.902  1.00  0.00     0.002 C 
HETATM   12  C   UNL     1     -39.428  49.863 -51.404  1.00  0.00     0.002 C 
HETATM   13  C   UNL     1     -40.237  50.841 -50.549  1.00  0.00     0.027 C 
HETATM   14  H   UNL     1     -40.854  53.056 -49.198  1.00  0.00     0.163 HD
ENDROOT
BRANCH   1  15
HETATM   15  C   UNL     1     -42.329  55.318 -52.638  1.00  0.00     0.146 C 
BRANCH  15  16
HETATM   16  C   UNL     1     -42.090  56.188 -53.845  1.00  0.00     0.224 C 
HETATM   17  N   UNL     1     -43.071  56.080 -54.805  1.00  0.00    -0.327 N 
HETATM   18  H   UNL     1     -43.964  55.675 -54.534  1.00  0.00     0.169 HD
HETATM   19  O   UNL     1     -41.001  56.748 -53.941  1.00  0.00    -0.273 OA
BRANCH  17  20
HETATM   20  C   UNL     1     -42.956  56.387 -56.178  1.00  0.00     0.034 A 
HETATM   21  C   UNL     1     -42.995  55.434 -57.198  1.00  0.00     0.030 A 
HETATM   22  C   UNL     1     -42.975  55.832 -58.540  1.00  0.00     0.009 A 
HETATM   23  C   UNL     1     -42.898  57.185 -58.884  1.00  0.00    -0.062 A 
HETATM   24  C   UNL     1     -42.927  57.611 -60.323  1.00  0.00     0.048 C 
HETATM   25  C   UNL     1     -42.847  58.138 -57.863  1.00  0.00     0.009 A 
HETATM   26  C   UNL     1     -42.870  57.740 -56.522  1.00  0.00     0.030 A 
ENDBRANCH  17  20
ENDBRANCH  15  16
ENDBRANCH   1  15
TORSDOF 3
ENDMDL
