MODEL 1
REMARK VINA RESULT:      -8.2      0.000      0.000
REMARK  5 active torsions:
REMARK  status: ('A' for Active; 'I' for Inactive)
REMARK    1  A    between atoms: C_4  and  O_5 
REMARK    2  A    between atoms: O_5  and  C_6 
REMARK    3  A    between atoms: C_6  and  C_7 
REMARK       I    between atoms: C_7  and  N_8 
REMARK    4  A    between atoms: N_8  and  N_9 
REMARK    5  A    between atoms: C_10  and  C_11 
ROOT
HETATM    1  C   UNL     1     -42.619  55.578 -56.559  1.00  0.00     0.261 C 
HETATM    2  N   UNL     1     -41.454  55.723 -55.817  1.00  0.00    -0.246 N 
HETATM    3  O   UNL     1     -43.314  54.567 -56.640  1.00  0.00    -0.269 OA
HETATM    4  H   UNL     1     -41.079  56.668 -55.734  1.00  0.00     0.192 HD
ENDROOT
BRANCH   2   5
HETATM    5  N   UNL     1     -40.874  54.817 -54.963  1.00  0.00    -0.184 NA
HETATM    6  C   UNL     1     -41.417  54.571 -53.814  1.00  0.00     0.152 C 
BRANCH   6   7
HETATM    7  C   UNL     1     -40.776  53.640 -52.905  1.00  0.00     0.011 A 
HETATM    8  C   UNL     1     -40.418  52.281 -53.187  1.00  0.00     0.004 A 
HETATM    9  C   UNL     1     -39.832  51.754 -52.036  1.00  0.00     0.043 A 
HETATM   10  C   UNL     1     -40.551  51.444 -54.316  1.00  0.00     0.014 A 
HETATM   11  C   UNL     1     -39.369  50.434 -51.957  1.00  0.00     0.030 A 
HETATM   12  N   UNL     1     -39.828  52.754 -51.091  1.00  0.00    -0.364 N 
HETATM   13  C   UNL     1     -39.517  49.627 -53.089  1.00  0.00     0.002 A 
HETATM   14  C   UNL     1     -40.098  50.121 -54.252  1.00  0.00     0.001 A 
HETATM   15  H   UNL     1     -39.461  52.655 -50.154  1.00  0.00     0.165 HD
HETATM   16  C   UNL     1     -40.400  53.888 -51.599  1.00  0.00     0.102 A 
ENDBRANCH   6   7
ENDBRANCH   2   5
BRANCH   1  17
HETATM   17  C   UNL     1     -42.949  56.817 -57.386  1.00  0.00     0.280 C 
BRANCH  17  18
HETATM   18  O   UNL     1     -43.168  56.478 -58.754  1.00  0.00    -0.342 OA
BRANCH  18  19
HETATM   19  C   UNL     1     -44.425  56.782 -59.217  1.00  0.00     0.075 A 
HETATM   20  C   UNL     1     -44.999  58.055 -59.096  1.00  0.00     0.044 A 
HETATM   21  C   UNL     1     -46.285  58.309 -59.590  1.00  0.00    -0.059 A 
HETATM   22  C   UNL     1     -46.883  59.681 -59.502  1.00  0.00     0.048 C 
HETATM   23  C   UNL     1     -46.992  57.275 -60.209  1.00  0.00     0.007 A 
HETATM   24  C   UNL     1     -46.435  55.998 -60.308  1.00  0.00     0.010 A 
HETATM   25  C   UNL     1     -45.154  55.735 -59.801  1.00  0.00    -0.029 A 
HETATM   26  C   UNL     1     -44.565  54.360 -59.937  1.00  0.00     0.051 C 
ENDBRANCH  18  19
ENDBRANCH  17  18
ENDBRANCH   1  17
TORSDOF 5
ENDMDL
MODEL 2
REMARK VINA RESULT:      -8.2      1.996      2.843
REMARK  5 active torsions:
REMARK  status: ('A' for Active; 'I' for Inactive)
REMARK    1  A    between atoms: C_4  and  O_5 
REMARK    2  A    between atoms: O_5  and  C_6 
REMARK    3  A    between atoms: C_6  and  C_7 
REMARK       I    between atoms: C_7  and  N_8 
REMARK    4  A    between atoms: N_8  and  N_9 
REMARK    5  A    between atoms: C_10  and  C_11 
ROOT
HETATM    1  C   UNL     1     -43.396  56.724 -54.266  1.00  0.00     0.261 C 
HETATM    2  N   UNL     1     -42.722  55.556 -54.600  1.00  0.00    -0.246 N 
HETATM    3  O   UNL     1     -43.771  57.057 -53.144  1.00  0.00    -0.269 OA
HETATM    4  H   UNL     1     -42.348  55.499 -55.547  1.00  0.00     0.192 HD
ENDROOT
BRANCH   2   5
HETATM    5  N   UNL     1     -42.264  54.571 -53.760  1.00  0.00    -0.184 NA
HETATM    6  C   UNL     1     -41.022  54.557 -53.396  1.00  0.00     0.152 C 
BRANCH   6   7
HETATM    7  C   UNL     1     -40.541  53.490 -52.538  1.00  0.00     0.011 A 
HETATM    8  C   UNL     1     -40.230  52.149 -52.935  1.00  0.00     0.004 A 
HETATM    9  C   UNL     1     -39.809  51.462 -51.796  1.00  0.00     0.043 A 
HETATM   10  C   UNL     1     -40.281  51.450 -54.160  1.00  0.00     0.014 A 
HETATM   11  C   UNL     1     -39.433  50.113 -51.821  1.00  0.00     0.030 A 
HETATM   12  N   UNL     1     -39.856  52.351 -50.747  1.00  0.00    -0.364 N 
HETATM   13  C   UNL     1     -39.496  49.444 -53.048  1.00  0.00     0.002 A 
HETATM   14  C   UNL     1     -39.913  50.100 -54.202  1.00  0.00     0.001 A 
HETATM   15  H   UNL     1     -39.605  52.126 -49.794  1.00  0.00     0.165 HD
HETATM   16  C   UNL     1     -40.303  53.570 -51.179  1.00  0.00     0.102 A 
ENDBRANCH   6   7
ENDBRANCH   2   5
BRANCH   1  17
HETATM   17  C   UNL     1     -43.731  57.580 -55.484  1.00  0.00     0.280 C 
BRANCH  17  18
HETATM   18  O   UNL     1     -42.590  57.756 -56.320  1.00  0.00    -0.342 OA
BRANCH  18  19
HETATM   19  C   UNL     1     -42.795  57.417 -57.635  1.00  0.00     0.075 A 
HETATM   20  C   UNL     1     -43.393  56.214 -58.031  1.00  0.00     0.044 A 
HETATM   21  C   UNL     1     -43.581  55.922 -59.389  1.00  0.00    -0.059 A 
HETATM   22  C   UNL     1     -44.261  54.655 -59.814  1.00  0.00     0.048 C 
HETATM   23  C   UNL     1     -43.166  56.850 -60.347  1.00  0.00     0.007 A 
HETATM   24  C   UNL     1     -42.546  58.040 -59.957  1.00  0.00     0.010 A 
HETATM   25  C   UNL     1     -42.341  58.328 -58.600  1.00  0.00    -0.029 A 
HETATM   26  C   UNL     1     -41.692  59.623 -58.202  1.00  0.00     0.051 C 
ENDBRANCH  18  19
ENDBRANCH  17  18
ENDBRANCH   1  17
TORSDOF 5
ENDMDL
MODEL 3
REMARK VINA RESULT:      -8.1      1.986      9.562
REMARK  5 active torsions:
REMARK  status: ('A' for Active; 'I' for Inactive)
REMARK    1  A    between atoms: C_4  and  O_5 
REMARK    2  A    between atoms: O_5  and  C_6 
REMARK    3  A    between atoms: C_6  and  C_7 
REMARK       I    between atoms: C_7  and  N_8 
REMARK    4  A    between atoms: N_8  and  N_9 
REMARK    5  A    between atoms: C_10  and  C_11 
ROOT
HETATM    1  C   UNL     1     -42.109  54.970 -55.328  1.00  0.00     0.261 C 
HETATM    2  N   UNL     1     -42.118  55.434 -56.638  1.00  0.00    -0.246 N 
HETATM    3  O   UNL     1     -43.092  54.753 -54.622  1.00  0.00    -0.269 OA
HETATM    4  H   UNL     1     -41.228  55.417 -57.135  1.00  0.00     0.192 HD
ENDROOT
BRANCH   2   5
HETATM    5  N   UNL     1     -43.203  55.673 -57.445  1.00  0.00    -0.184 NA
HETATM    6  C   UNL     1     -43.079  55.606 -58.732  1.00  0.00     0.152 C 
BRANCH   6   7
HETATM    7  C   UNL     1     -44.222  55.896 -59.576  1.00  0.00     0.011 A 
HETATM    8  C   UNL     1     -45.135  56.991 -59.430  1.00  0.00     0.004 A 
HETATM    9  C   UNL     1     -46.082  56.886 -60.449  1.00  0.00     0.043 A 
HETATM   10  C   UNL     1     -45.251  58.058 -58.513  1.00  0.00     0.014 A 
HETATM   11  C   UNL     1     -47.137  57.795 -60.600  1.00  0.00     0.030 A 
HETATM   12  N   UNL     1     -45.756  55.774 -61.190  1.00  0.00    -0.364 N 
HETATM   13  C   UNL     1     -47.229  58.841 -59.676  1.00  0.00     0.002 A 
HETATM   14  C   UNL     1     -46.302  58.973 -58.647  1.00  0.00     0.001 A 
HETATM   15  H   UNL     1     -46.273  55.452 -61.998  1.00  0.00     0.165 HD
HETATM   16  C   UNL     1     -44.646  55.166 -60.670  1.00  0.00     0.102 A 
ENDBRANCH   6   7
ENDBRANCH   2   5
BRANCH   1  17
HETATM   17  C   UNL     1     -40.699  54.819 -54.766  1.00  0.00     0.280 C 
BRANCH  17  18
HETATM   18  O   UNL     1     -40.730  54.545 -53.367  1.00  0.00    -0.342 OA
BRANCH  18  19
HETATM   19  C   UNL     1     -40.349  53.268 -53.033  1.00  0.00     0.075 A 
HETATM   20  C   UNL     1     -40.211  52.239 -53.974  1.00  0.00     0.044 A 
HETATM   21  C   UNL     1     -39.816  50.955 -53.576  1.00  0.00    -0.059 A 
HETATM   22  C   UNL     1     -39.625  49.864 -54.587  1.00  0.00     0.048 C 
HETATM   23  C   UNL     1     -39.554  50.712 -52.225  1.00  0.00     0.007 A 
HETATM   24  C   UNL     1     -39.715  51.728 -51.281  1.00  0.00     0.010 A 
HETATM   25  C   UNL     1     -40.127  53.010 -51.672  1.00  0.00    -0.029 A 
HETATM   26  C   UNL     1     -40.272  54.094 -50.643  1.00  0.00     0.051 C 
ENDBRANCH  18  19
ENDBRANCH  17  18
ENDBRANCH   1  17
TORSDOF 5
ENDMDL
MODEL 4
REMARK VINA RESULT:      -7.9      2.412      9.255
REMARK  5 active torsions:
REMARK  status: ('A' for Active; 'I' for Inactive)
REMARK    1  A    between atoms: C_4  and  O_5 
REMARK    2  A    between atoms: O_5  and  C_6 
REMARK    3  A    between atoms: C_6  and  C_7 
REMARK       I    between atoms: C_7  and  N_8 
REMARK    4  A    between atoms: N_8  and  N_9 
REMARK    5  A    between atoms: C_10  and  C_11 
ROOT
HETATM    1  C   UNL     1     -43.209  55.486 -53.919  1.00  0.00     0.261 C 
HETATM    2  N   UNL     1     -42.835  55.285 -55.241  1.00  0.00    -0.246 N 
HETATM    3  O   UNL     1     -43.886  56.415 -53.482  1.00  0.00    -0.269 OA
HETATM    4  H   UNL     1     -42.402  54.389 -55.463  1.00  0.00     0.192 HD
ENDROOT
BRANCH   2   5
HETATM    5  N   UNL     1     -43.196  56.018 -56.345  1.00  0.00    -0.184 NA
HETATM    6  C   UNL     1     -42.928  55.576 -57.531  1.00  0.00     0.152 C 
BRANCH   6   7
HETATM    7  C   UNL     1     -43.281  56.376 -58.689  1.00  0.00     0.011 A 
HETATM    8  C   UNL     1     -42.855  57.716 -58.963  1.00  0.00     0.004 A 
HETATM    9  C   UNL     1     -43.431  58.100 -60.174  1.00  0.00     0.043 A 
HETATM   10  C   UNL     1     -42.040  58.647 -58.282  1.00  0.00     0.014 A 
HETATM   11  C   UNL     1     -43.231  59.365 -60.741  1.00  0.00     0.030 A 
HETATM   12  N   UNL     1     -44.174  57.034 -60.624  1.00  0.00    -0.364 N 
HETATM   13  C   UNL     1     -42.421  60.268 -60.044  1.00  0.00     0.002 A 
HETATM   14  C   UNL     1     -41.833  59.917 -58.833  1.00  0.00     0.001 A 
HETATM   15  H   UNL     1     -44.705  57.028 -61.484  1.00  0.00     0.165 HD
HETATM   16  C   UNL     1     -44.099  55.995 -59.736  1.00  0.00     0.102 A 
ENDBRANCH   6   7
ENDBRANCH   2   5
BRANCH   1  17
HETATM   17  C   UNL     1     -42.610  54.450 -52.972  1.00  0.00     0.280 C 
BRANCH  17  18
HETATM   18  O   UNL     1     -41.187  54.438 -53.057  1.00  0.00    -0.342 OA
BRANCH  18  19
HETATM   19  C   UNL     1     -40.620  53.200 -52.876  1.00  0.00     0.075 A 
HETATM   20  C   UNL     1     -40.557  52.232 -53.887  1.00  0.00     0.044 A 
HETATM   21  C   UNL     1     -39.964  50.985 -53.647  1.00  0.00    -0.059 A 
HETATM   22  C   UNL     1     -39.855  49.965 -54.740  1.00  0.00     0.048 C 
HETATM   23  C   UNL     1     -39.430  50.719 -52.383  1.00  0.00     0.007 A 
HETATM   24  C   UNL     1     -39.515  51.671 -51.365  1.00  0.00     0.010 A 
HETATM   25  C   UNL     1     -40.122  52.914 -51.596  1.00  0.00    -0.029 A 
HETATM   26  C   UNL     1     -40.182  53.932 -50.494  1.00  0.00     0.051 C 
ENDBRANCH  18  19
ENDBRANCH  17  18
ENDBRANCH   1  17
TORSDOF 5
ENDMDL
MODEL 5
REMARK VINA RESULT:      -7.9      1.995      9.509
REMARK  5 active torsions:
REMARK  status: ('A' for Active; 'I' for Inactive)
REMARK    1  A    between atoms: C_4  and  O_5 
REMARK    2  A    between atoms: O_5  and  C_6 
REMARK    3  A    between atoms: C_6  and  C_7 
REMARK       I    between atoms: C_7  and  N_8 
REMARK    4  A    between atoms: N_8  and  N_9 
REMARK    5  A    between atoms: C_10  and  C_11 
ROOT
HETATM    1  C   UNL     1     -42.064  54.473 -55.385  1.00  0.00     0.261 C 
HETATM    2  N   UNL     1     -42.082  55.155 -56.596  1.00  0.00    -0.246 N 
HETATM    3  O   UNL     1     -43.041  54.079 -54.752  1.00  0.00    -0.269 OA
HETATM    4  H   UNL     1     -41.185  55.277 -57.065  1.00  0.00     0.192 HD
ENDROOT
BRANCH   2   5
HETATM    5  N   UNL     1     -43.167  55.463 -57.378  1.00  0.00    -0.184 NA
HETATM    6  C   UNL     1     -42.992  55.928 -58.573  1.00  0.00     0.152 C 
BRANCH   6   7
HETATM    7  C   UNL     1     -44.145  56.285 -59.378  1.00  0.00     0.011 A 
HETATM    8  C   UNL     1     -45.104  57.310 -59.087  1.00  0.00     0.004 A 
HETATM    9  C   UNL     1     -46.044  57.309 -60.118  1.00  0.00     0.043 A 
HETATM   10  C   UNL     1     -45.268  58.233 -58.031  1.00  0.00     0.014 A 
HETATM   11  C   UNL     1     -47.137  58.185 -60.149  1.00  0.00     0.030 A 
HETATM   12  N   UNL     1     -45.670  56.326 -61.005  1.00  0.00    -0.364 N 
HETATM   13  C   UNL     1     -47.275  59.086 -59.089  1.00  0.00     0.002 A 
HETATM   14  C   UNL     1     -46.356  59.112 -58.044  1.00  0.00     0.001 A 
HETATM   15  H   UNL     1     -46.171  56.099 -61.853  1.00  0.00     0.165 HD
HETATM   16  C   UNL     1     -44.536  55.699 -60.566  1.00  0.00     0.102 A 
ENDBRANCH   6   7
ENDBRANCH   2   5
BRANCH   1  17
HETATM   17  C   UNL     1     -40.655  54.313 -54.820  1.00  0.00     0.280 C 
BRANCH  17  18
HETATM   18  O   UNL     1     -40.279  52.939 -54.761  1.00  0.00    -0.342 OA
BRANCH  18  19
HETATM   19  C   UNL     1     -40.135  52.447 -53.487  1.00  0.00     0.075 A 
HETATM   20  C   UNL     1     -40.260  53.243 -52.340  1.00  0.00     0.044 A 
HETATM   21  C   UNL     1     -40.105  52.686 -51.064  1.00  0.00    -0.059 A 
HETATM   22  C   UNL     1     -40.283  53.527 -49.834  1.00  0.00     0.048 C 
HETATM   23  C   UNL     1     -39.828  51.322 -50.946  1.00  0.00     0.007 A 
HETATM   24  C   UNL     1     -39.677  50.530 -52.087  1.00  0.00     0.010 A 
HETATM   25  C   UNL     1     -39.814  51.087 -53.366  1.00  0.00    -0.029 A 
HETATM   26  C   UNL     1     -39.670  50.213 -54.580  1.00  0.00     0.051 C 
ENDBRANCH  18  19
ENDBRANCH  17  18
ENDBRANCH   1  17
TORSDOF 5
ENDMDL
MODEL 6
REMARK VINA RESULT:      -7.8      2.119      9.588
REMARK  5 active torsions:
REMARK  status: ('A' for Active; 'I' for Inactive)
REMARK    1  A    between atoms: C_4  and  O_5 
REMARK    2  A    between atoms: O_5  and  C_6 
REMARK    3  A    between atoms: C_6  and  C_7 
REMARK       I    between atoms: C_7  and  N_8 
REMARK    4  A    between atoms: N_8  and  N_9 
REMARK    5  A    between atoms: C_10  and  C_11 
ROOT
HETATM    1  C   UNL     1     -41.410  55.999 -54.945  1.00  0.00     0.261 C 
HETATM    2  N   UNL     1     -41.975  55.930 -56.212  1.00  0.00    -0.246 N 
HETATM    3  O   UNL     1     -41.520  56.925 -54.143  1.00  0.00    -0.269 OA
HETATM    4  H   UNL     1     -41.914  55.033 -56.692  1.00  0.00     0.192 HD
ENDROOT
BRANCH   2   5
HETATM    5  N   UNL     1     -42.829  56.824 -56.808  1.00  0.00    -0.184 NA
HETATM    6  C   UNL     1     -43.244  56.616 -58.017  1.00  0.00     0.152 C 
BRANCH   6   7
HETATM    7  C   UNL     1     -44.117  57.586 -58.650  1.00  0.00     0.011 A 
HETATM    8  C   UNL     1     -45.264  57.301 -59.460  1.00  0.00     0.004 A 
HETATM    9  C   UNL     1     -45.804  58.522 -59.867  1.00  0.00     0.043 A 
HETATM   10  C   UNL     1     -45.888  56.113 -59.898  1.00  0.00     0.014 A 
HETATM   11  C   UNL     1     -46.937  58.615 -60.685  1.00  0.00     0.030 A 
HETATM   12  N   UNL     1     -45.020  59.512 -59.321  1.00  0.00    -0.364 N 
HETATM   13  C   UNL     1     -47.532  57.421 -61.107  1.00  0.00     0.002 A 
HETATM   14  C   UNL     1     -47.018  56.188 -60.720  1.00  0.00     0.001 A 
HETATM   15  H   UNL     1     -45.177  60.503 -59.450  1.00  0.00     0.165 HD
HETATM   16  C   UNL     1     -43.998  58.962 -58.596  1.00  0.00     0.102 A 
ENDBRANCH   6   7
ENDBRANCH   2   5
BRANCH   1  17
HETATM   17  C   UNL     1     -40.515  54.802 -54.632  1.00  0.00     0.280 C 
BRANCH  17  18
HETATM   18  O   UNL     1     -40.603  54.441 -53.256  1.00  0.00    -0.342 OA
BRANCH  18  19
HETATM   19  C   UNL     1     -40.277  53.132 -52.994  1.00  0.00     0.075 A 
HETATM   20  C   UNL     1     -40.209  52.147 -53.988  1.00  0.00     0.044 A 
HETATM   21  C   UNL     1     -39.868  50.827 -53.663  1.00  0.00    -0.059 A 
HETATM   22  C   UNL     1     -39.750  49.781 -54.732  1.00  0.00     0.048 C 
HETATM   23  C   UNL     1     -39.593  50.504 -52.332  1.00  0.00     0.007 A 
HETATM   24  C   UNL     1     -39.686  51.477 -51.335  1.00  0.00     0.010 A 
HETATM   25  C   UNL     1     -40.043  52.795 -51.653  1.00  0.00    -0.029 A 
HETATM   26  C   UNL     1     -40.115  53.832 -50.568  1.00  0.00     0.051 C 
ENDBRANCH  18  19
ENDBRANCH  17  18
ENDBRANCH   1  17
TORSDOF 5
ENDMDL
MODEL 7
REMARK VINA RESULT:      -7.8      2.401      2.938
REMARK  5 active torsions:
REMARK  status: ('A' for Active; 'I' for Inactive)
REMARK    1  A    between atoms: C_4  and  O_5 
REMARK    2  A    between atoms: O_5  and  C_6 
REMARK    3  A    between atoms: C_6  and  C_7 
REMARK       I    between atoms: C_7  and  N_8 
REMARK    4  A    between atoms: N_8  and  N_9 
REMARK    5  A    between atoms: C_10  and  C_11 
ROOT
HETATM    1  C   UNL     1     -41.703  58.570 -54.746  1.00  0.00     0.261 C 
HETATM    2  N   UNL     1     -41.890  57.193 -54.745  1.00  0.00    -0.246 N 
HETATM    3  O   UNL     1     -40.930  59.204 -54.030  1.00  0.00    -0.269 OA
HETATM    4  H   UNL     1     -42.455  56.808 -55.502  1.00  0.00     0.192 HD
ENDROOT
BRANCH   2   5
HETATM    5  N   UNL     1     -41.213  56.246 -54.017  1.00  0.00    -0.184 NA
HETATM    6  C   UNL     1     -41.869  55.362 -53.336  1.00  0.00     0.152 C 
BRANCH   6   7
HETATM    7  C   UNL     1     -41.143  54.389 -52.542  1.00  0.00     0.011 A 
HETATM    8  C   UNL     1     -40.682  53.104 -52.978  1.00  0.00     0.004 A 
HETATM    9  C   UNL     1     -40.040  52.500 -51.897  1.00  0.00     0.043 A 
HETATM   10  C   UNL     1     -40.764  52.391 -54.193  1.00  0.00     0.014 A 
HETATM   11  C   UNL     1     -39.473  51.221 -51.970  1.00  0.00     0.030 A 
HETATM   12  N   UNL     1     -40.102  53.384 -50.845  1.00  0.00    -0.364 N 
HETATM   13  C   UNL     1     -39.572  50.536 -53.185  1.00  0.00     0.002 A 
HETATM   14  C   UNL     1     -40.207  51.110 -54.283  1.00  0.00     0.001 A 
HETATM   15  H   UNL     1     -39.716  53.210 -49.927  1.00  0.00     0.165 HD
HETATM   16  C   UNL     1     -40.770  54.518 -51.218  1.00  0.00     0.102 A 
ENDBRANCH   6   7
ENDBRANCH   2   5
BRANCH   1  17
HETATM   17  C   UNL     1     -42.646  59.293 -55.703  1.00  0.00     0.280 C 
BRANCH  17  18
HETATM   18  O   UNL     1     -43.292  58.373 -56.580  1.00  0.00    -0.342 OA
BRANCH  18  19
HETATM   19  C   UNL     1     -42.852  58.428 -57.880  1.00  0.00     0.075 A 
HETATM   20  C   UNL     1     -42.554  59.629 -58.537  1.00  0.00     0.044 A 
HETATM   21  C   UNL     1     -42.105  59.625 -59.865  1.00  0.00    -0.059 A 
HETATM   22  C   UNL     1     -41.743  60.906 -60.555  1.00  0.00     0.048 C 
HETATM   23  C   UNL     1     -41.952  58.405 -60.527  1.00  0.00     0.007 A 
HETATM   24  C   UNL     1     -42.273  57.207 -59.884  1.00  0.00     0.010 A 
HETATM   25  C   UNL     1     -42.739  57.207 -58.561  1.00  0.00    -0.029 A 
HETATM   26  C   UNL     1     -43.056  55.906 -57.881  1.00  0.00     0.051 C 
ENDBRANCH  18  19
ENDBRANCH  17  18
ENDBRANCH   1  17
TORSDOF 5
ENDMDL
MODEL 8
REMARK VINA RESULT:      -7.7      2.608      9.818
REMARK  5 active torsions:
REMARK  status: ('A' for Active; 'I' for Inactive)
REMARK    1  A    between atoms: C_4  and  O_5 
REMARK    2  A    between atoms: O_5  and  C_6 
REMARK    3  A    between atoms: C_6  and  C_7 
REMARK       I    between atoms: C_7  and  N_8 
REMARK    4  A    between atoms: N_8  and  N_9 
REMARK    5  A    between atoms: C_10  and  C_11 
ROOT
HETATM    1  C   UNL     1     -42.569  55.521 -55.639  1.00  0.00     0.261 C 
HETATM    2  N   UNL     1     -42.581  55.671 -57.020  1.00  0.00    -0.246 N 
HETATM    3  O   UNL     1     -43.008  56.317 -54.811  1.00  0.00    -0.269 OA
HETATM    4  H   UNL     1     -42.317  54.856 -57.571  1.00  0.00     0.192 HD
ENDROOT
BRANCH   2   5
HETATM    5  N   UNL     1     -43.145  56.684 -57.757  1.00  0.00    -0.184 NA
HETATM    6  C   UNL     1     -43.699  56.422 -58.897  1.00  0.00     0.152 C 
BRANCH   6   7
HETATM    7  C   UNL     1     -44.258  57.505 -59.684  1.00  0.00     0.011 A 
HETATM    8  C   UNL     1     -43.528  58.538 -60.356  1.00  0.00     0.004 A 
HETATM    9  C   UNL     1     -44.456  59.368 -60.985  1.00  0.00     0.043 A 
HETATM   10  C   UNL     1     -42.157  58.854 -60.475  1.00  0.00     0.014 A 
HETATM   11  C   UNL     1     -44.084  60.495 -61.730  1.00  0.00     0.030 A 
HETATM   12  N   UNL     1     -45.704  58.857 -60.712  1.00  0.00    -0.364 N 
HETATM   13  C   UNL     1     -42.720  60.785 -61.829  1.00  0.00     0.002 A 
HETATM   14  C   UNL     1     -41.768  59.979 -61.212  1.00  0.00     0.001 A 
HETATM   15  H   UNL     1     -46.572  59.257 -61.042  1.00  0.00     0.165 HD
HETATM   16  C   UNL     1     -45.598  57.743 -59.925  1.00  0.00     0.102 A 
ENDBRANCH   6   7
ENDBRANCH   2   5
BRANCH   1  17
HETATM   17  C   UNL     1     -41.850  54.251 -55.190  1.00  0.00     0.280 C 
BRANCH  17  18
HETATM   18  O   UNL     1     -41.211  54.441 -53.930  1.00  0.00    -0.342 OA
BRANCH  18  19
HETATM   19  C   UNL     1     -40.667  53.299 -53.395  1.00  0.00     0.075 A 
HETATM   20  C   UNL     1     -40.361  52.166 -54.161  1.00  0.00     0.044 A 
HETATM   21  C   UNL     1     -39.804  51.028 -53.562  1.00  0.00    -0.059 A 
HETATM   22  C   UNL     1     -39.434  49.831 -54.386  1.00  0.00     0.048 C 
HETATM   23  C   UNL     1     -39.552  51.037 -52.188  1.00  0.00     0.007 A 
HETATM   24  C   UNL     1     -39.880  52.155 -51.417  1.00  0.00     0.010 A 
HETATM   25  C   UNL     1     -40.453  53.289 -52.009  1.00  0.00    -0.029 A 
HETATM   26  C   UNL     1     -40.777  54.489 -51.165  1.00  0.00     0.051 C 
ENDBRANCH  18  19
ENDBRANCH  17  18
ENDBRANCH   1  17
TORSDOF 5
ENDMDL
MODEL 9
REMARK VINA RESULT:      -7.5      1.356      2.361
REMARK  5 active torsions:
REMARK  status: ('A' for Active; 'I' for Inactive)
REMARK    1  A    between atoms: C_4  and  O_5 
REMARK    2  A    between atoms: O_5  and  C_6 
REMARK    3  A    between atoms: C_6  and  C_7 
REMARK       I    between atoms: C_7  and  N_8 
REMARK    4  A    between atoms: N_8  and  N_9 
REMARK    5  A    between atoms: C_10  and  C_11 
ROOT
HETATM    1  C   UNL     1     -42.480  57.310 -56.302  1.00  0.00     0.261 C 
HETATM    2  N   UNL     1     -42.083  55.982 -56.394  1.00  0.00    -0.246 N 
HETATM    3  O   UNL     1     -42.329  58.054 -55.334  1.00  0.00    -0.269 OA
HETATM    4  H   UNL     1     -42.145  55.550 -57.315  1.00  0.00     0.192 HD
ENDROOT
BRANCH   2   5
HETATM    5  N   UNL     1     -41.378  55.242 -55.477  1.00  0.00    -0.184 NA
HETATM    6  C   UNL     1     -41.860  54.124 -55.040  1.00  0.00     0.152 C 
BRANCH   6   7
HETATM    7  C   UNL     1     -41.123  53.369 -54.044  1.00  0.00     0.011 A 
HETATM    8  C   UNL     1     -40.966  53.706 -52.660  1.00  0.00     0.004 A 
HETATM    9  C   UNL     1     -40.182  52.713 -52.072  1.00  0.00     0.043 A 
HETATM   10  C   UNL     1     -41.409  54.777 -51.853  1.00  0.00     0.014 A 
HETATM   11  C   UNL     1     -39.822  52.734 -50.719  1.00  0.00     0.030 A 
HETATM   12  N   UNL     1     -39.878  51.803 -53.058  1.00  0.00    -0.364 N 
HETATM   13  C   UNL     1     -40.273  53.807 -49.944  1.00  0.00     0.002 A 
HETATM   14  C   UNL     1     -41.055  54.815 -50.500  1.00  0.00     0.001 A 
HETATM   15  H   UNL     1     -39.318  50.973 -52.918  1.00  0.00     0.165 HD
HETATM   16  C   UNL     1     -40.430  52.191 -54.249  1.00  0.00     0.102 A 
ENDBRANCH   6   7
ENDBRANCH   2   5
BRANCH   1  17
HETATM   17  C   UNL     1     -43.242  57.786 -57.536  1.00  0.00     0.280 C 
BRANCH  17  18
HETATM   18  O   UNL     1     -43.606  56.688 -58.369  1.00  0.00    -0.342 OA
BRANCH  18  19
HETATM   19  C   UNL     1     -44.764  56.880 -59.083  1.00  0.00     0.075 A 
HETATM   20  C   UNL     1     -45.474  58.088 -59.077  1.00  0.00     0.044 A 
HETATM   21  C   UNL     1     -46.649  58.229 -59.828  1.00  0.00    -0.059 A 
HETATM   22  C   UNL     1     -47.387  59.535 -59.859  1.00  0.00     0.048 C 
HETATM   23  C   UNL     1     -47.105  57.149 -60.588  1.00  0.00     0.007 A 
HETATM   24  C   UNL     1     -46.414  55.935 -60.575  1.00  0.00     0.010 A 
HETATM   25  C   UNL     1     -45.247  55.784 -59.813  1.00  0.00    -0.029 A 
HETATM   26  C   UNL     1     -44.507  54.477 -59.831  1.00  0.00     0.051 C 
ENDBRANCH  18  19
ENDBRANCH  17  18
ENDBRANCH   1  17
TORSDOF 5
ENDMDL
MODEL 10
REMARK VINA RESULT:      -7.4      2.946      8.926
REMARK  5 active torsions:
REMARK  status: ('A' for Active; 'I' for Inactive)
REMARK    1  A    between atoms: C_4  and  O_5 
REMARK    2  A    between atoms: O_5  and  C_6 
REMARK    3  A    between atoms: C_6  and  C_7 
REMARK       I    between atoms: C_7  and  N_8 
REMARK    4  A    between atoms: N_8  and  N_9 
REMARK    5  A    between atoms: C_10  and  C_11 
ROOT
HETATM    1  C   UNL     1     -43.261  57.000 -52.014  1.00  0.00     0.261 C 
HETATM    2  N   UNL     1     -44.004  56.338 -52.983  1.00  0.00    -0.246 N 
HETATM    3  O   UNL     1     -42.821  58.146 -52.084  1.00  0.00    -0.269 OA
HETATM    4  H   UNL     1     -44.422  55.449 -52.711  1.00  0.00     0.192 HD
ENDROOT
BRANCH   2   5
HETATM    5  N   UNL     1     -44.471  56.831 -54.177  1.00  0.00    -0.184 NA
HETATM    6  C   UNL     1     -43.651  57.033 -55.158  1.00  0.00     0.152 C 
BRANCH   6   7
HETATM    7  C   UNL     1     -44.150  57.589 -56.402  1.00  0.00     0.011 A 
HETATM    8  C   UNL     1     -43.950  57.054 -57.716  1.00  0.00     0.004 A 
HETATM    9  C   UNL     1     -44.594  57.903 -58.617  1.00  0.00     0.043 A 
HETATM   10  C   UNL     1     -43.266  55.930 -58.227  1.00  0.00     0.014 A 
HETATM   11  C   UNL     1     -44.592  57.683 -60.000  1.00  0.00     0.030 A 
HETATM   12  N   UNL     1     -45.169  58.912 -57.880  1.00  0.00    -0.364 N 
HETATM   13  C   UNL     1     -43.905  56.563 -60.478  1.00  0.00     0.002 A 
HETATM   14  C   UNL     1     -43.250  55.697 -59.607  1.00  0.00     0.001 A 
HETATM   15  H   UNL     1     -45.704  59.676 -58.273  1.00  0.00     0.165 HD
HETATM   16  C   UNL     1     -44.901  58.739 -56.549  1.00  0.00     0.102 A 
ENDBRANCH   6   7
ENDBRANCH   2   5
BRANCH   1  17
HETATM   17  C   UNL     1     -42.939  56.116 -50.812  1.00  0.00     0.280 C 
BRANCH  17  18
HETATM   18  O   UNL     1     -41.530  55.973 -50.643  1.00  0.00    -0.342 OA
BRANCH  18  19
HETATM   19  C   UNL     1     -41.031  54.765 -51.063  1.00  0.00     0.075 A 
HETATM   20  C   UNL     1     -40.974  54.387 -52.411  1.00  0.00     0.044 A 
HETATM   21  C   UNL     1     -40.450  53.141 -52.783  1.00  0.00    -0.059 A 
HETATM   22  C   UNL     1     -40.347  52.754 -54.228  1.00  0.00     0.048 C 
HETATM   23  C   UNL     1     -39.981  52.278 -51.790  1.00  0.00     0.007 A 
HETATM   24  C   UNL     1     -40.060  52.640 -50.443  1.00  0.00     0.010 A 
HETATM   25  C   UNL     1     -40.598  53.878 -50.066  1.00  0.00    -0.029 A 
HETATM   26  C   UNL     1     -40.653  54.257 -48.613  1.00  0.00     0.051 C 
ENDBRANCH  18  19
ENDBRANCH  17  18
ENDBRANCH   1  17
TORSDOF 5
ENDMDL
