MODEL 1
REMARK VINA RESULT:      -8.7      0.000      0.000
REMARK  8 active torsions:
REMARK  status: ('A' for Active; 'I' for Inactive)
REMARK    1  A    between atoms: C_4  and  C_5 
REMARK       I    between atoms: C_5  and  N_6 
REMARK    2  A    between atoms: N_6  and  C_7 
REMARK    3  A    between atoms: C_7  and  C_8 
REMARK    4  A    between atoms: C_8  and  C_9 
REMARK       I    between atoms: C_9  and  N_10 
REMARK    5  A    between atoms: N_10  and  N_11 
REMARK       I    between atoms: N_11  and  C_12 
REMARK    6  A    between atoms: C_12  and  C_13 
REMARK    7  A    between atoms: N_15  and  C_16 
REMARK    8  A    between atoms: C_24  and  O_25 
ROOT
HETATM    1  N   UNL     1     -44.359  57.881 -50.523  1.00  0.00    -0.262 N 
HETATM    2  C   UNL     1     -44.005  57.193 -51.672  1.00  0.00     0.293 C 
HETATM    3  O   UNL     1     -44.654  57.290 -52.712  1.00  0.00    -0.264 OA
HETATM    4  H   UNL     1     -43.704  57.921 -49.741  1.00  0.00     0.190 HD
ENDROOT
BRANCH   1   5
HETATM    5  N   UNL     1     -45.372  58.849 -50.597  1.00  0.00    -0.267 N 
HETATM    6  C   UNL     1     -44.990  60.176 -50.642  1.00  0.00     0.237 C 
HETATM    7  O   UNL     1     -43.838  60.550 -50.436  1.00  0.00    -0.272 OA
HETATM    8  H   UNL     1     -46.240  58.538 -51.033  1.00  0.00     0.190 HD
BRANCH   6   9
HETATM    9  C   UNL     1     -46.149  61.114 -50.891  1.00  0.00     0.124 C 
BRANCH   9  10
HETATM   10  C   UNL     1     -45.927  62.454 -50.201  1.00  0.00     0.132 C 
BRANCH  10  11
HETATM   11  N   UNL     1     -45.385  62.308 -48.861  1.00  0.00    -0.356 N 
HETATM   12  C   UNL     1     -46.197  62.280 -47.746  1.00  0.00     0.251 C 
HETATM   13  O   UNL     1     -47.421  62.307 -47.806  1.00  0.00    -0.268 OA
HETATM   14  H   UNL     1     -44.395  62.127 -48.766  1.00  0.00     0.162 HD
BRANCH  12  15
HETATM   15  C   UNL     1     -45.511  62.174 -46.427  1.00  0.00     0.032 A 
HETATM   16  C   UNL     1     -44.914  60.983 -45.995  1.00  0.00     0.017 A 
HETATM   17  C   UNL     1     -44.270  60.933 -44.755  1.00  0.00     0.001 A 
HETATM   18  C   UNL     1     -44.215  62.071 -43.950  1.00  0.00     0.000 A 
HETATM   19  C   UNL     1     -44.793  63.263 -44.383  1.00  0.00     0.001 A 
HETATM   20  C   UNL     1     -45.437  63.317 -45.621  1.00  0.00     0.017 A 
ENDBRANCH  12  15
ENDBRANCH  10  11
ENDBRANCH   9  10
ENDBRANCH   6   9
ENDBRANCH   1   5
BRANCH   2  21
HETATM   21  C   UNL     1     -42.802  56.367 -51.512  1.00  0.00     0.181 A 
HETATM   22  N   UNL     1     -42.626  55.228 -52.215  1.00  0.00    -0.159 NA
HETATM   23  N   UNL     1     -41.409  54.752 -51.833  1.00  0.00    -0.242 N 
HETATM   24  C   UNL     1     -40.827  55.555 -50.876  1.00  0.00     0.158 A 
HETATM   25  C   UNL     1     -41.696  56.588 -50.664  1.00  0.00     0.119 A 
BRANCH  23  26
HETATM   26  C   UNL     1     -40.878  53.564 -52.415  1.00  0.00     0.058 A 
HETATM   27  C   UNL     1     -41.198  53.241 -53.744  1.00  0.00     0.033 A 
HETATM   28  C   UNL     1     -40.679  52.087 -54.338  1.00  0.00     0.026 A 
HETATM   29  C   UNL     1     -39.839  51.250 -53.608  1.00  0.00     0.034 A 
HETATM   30 CL   UNL     1     -39.196  49.831 -54.338  1.00  0.00    -0.084 Cl
HETATM   31  C   UNL     1     -39.515  51.557 -52.288  1.00  0.00     0.026 A 
HETATM   32  C   UNL     1     -40.032  52.711 -51.688  1.00  0.00     0.033 A 
ENDBRANCH  23  26
BRANCH  25  33
HETATM   33  O   UNL     1     -41.484  57.593 -49.803  1.00  0.00    -0.357 OA
HETATM   34  H   UNL     1     -42.105  58.326 -49.956  1.00  0.00     0.218 HD
ENDBRANCH  25  33
ENDBRANCH   2  21
TORSDOF 8
ENDMDL
MODEL 2
REMARK VINA RESULT:      -8.5      1.476      2.386
REMARK  8 active torsions:
REMARK  status: ('A' for Active; 'I' for Inactive)
REMARK    1  A    between atoms: C_4  and  C_5 
REMARK       I    between atoms: C_5  and  N_6 
REMARK    2  A    between atoms: N_6  and  C_7 
REMARK    3  A    between atoms: C_7  and  C_8 
REMARK    4  A    between atoms: C_8  and  C_9 
REMARK       I    between atoms: C_9  and  N_10 
REMARK    5  A    between atoms: N_10  and  N_11 
REMARK       I    between atoms: N_11  and  C_12 
REMARK    6  A    between atoms: C_12  and  C_13 
REMARK    7  A    between atoms: N_15  and  C_16 
REMARK    8  A    between atoms: C_24  and  O_25 
ROOT
HETATM    1  N   UNL     1     -43.654  58.697 -50.859  1.00  0.00    -0.262 N 
HETATM    2  C   UNL     1     -42.464  58.018 -51.062  1.00  0.00     0.293 C 
HETATM    3  O   UNL     1     -41.375  58.586 -51.006  1.00  0.00    -0.264 OA
HETATM    4  H   UNL     1     -44.518  58.168 -50.733  1.00  0.00     0.190 HD
ENDROOT
BRANCH   1   5
HETATM    5  N   UNL     1     -43.608  60.021 -50.399  1.00  0.00    -0.267 N 
HETATM    6  C   UNL     1     -44.730  60.520 -49.764  1.00  0.00     0.237 C 
HETATM    7  O   UNL     1     -45.809  59.933 -49.749  1.00  0.00    -0.272 OA
HETATM    8  H   UNL     1     -42.677  60.372 -50.172  1.00  0.00     0.190 HD
BRANCH   6   9
HETATM    9  C   UNL     1     -44.507  61.890 -49.165  1.00  0.00     0.124 C 
BRANCH   9  10
HETATM   10  C   UNL     1     -45.611  62.241 -48.176  1.00  0.00     0.132 C 
BRANCH  10  11
HETATM   11  N   UNL     1     -45.096  62.807 -46.941  1.00  0.00    -0.356 N 
HETATM   12  C   UNL     1     -45.141  62.116 -45.748  1.00  0.00     0.251 C 
HETATM   13  O   UNL     1     -45.553  60.964 -45.655  1.00  0.00    -0.268 OA
HETATM   14  H   UNL     1     -44.606  63.689 -46.991  1.00  0.00     0.162 HD
BRANCH  12  15
HETATM   15  C   UNL     1     -44.623  62.828 -44.546  1.00  0.00     0.032 A 
HETATM   16  C   UNL     1     -44.993  64.146 -44.249  1.00  0.00     0.017 A 
HETATM   17  C   UNL     1     -44.492  64.772 -43.104  1.00  0.00     0.001 A 
HETATM   18  C   UNL     1     -43.629  64.082 -42.251  1.00  0.00     0.000 A 
HETATM   19  C   UNL     1     -43.271  62.765 -42.534  1.00  0.00     0.001 A 
HETATM   20  C   UNL     1     -43.770  62.137 -43.677  1.00  0.00     0.017 A 
ENDBRANCH  12  15
ENDBRANCH  10  11
ENDBRANCH   9  10
ENDBRANCH   6   9
ENDBRANCH   1   5
BRANCH   2  21
HETATM   21  C   UNL     1     -42.647  56.587 -51.339  1.00  0.00     0.181 A 
HETATM   22  N   UNL     1     -41.684  55.852 -51.937  1.00  0.00    -0.159 NA
HETATM   23  N   UNL     1     -42.186  54.588 -52.005  1.00  0.00    -0.242 N 
HETATM   24  C   UNL     1     -43.462  54.518 -51.489  1.00  0.00     0.158 A 
HETATM   25  C   UNL     1     -43.768  55.779 -51.056  1.00  0.00     0.119 A 
BRANCH  23  26
HETATM   26  C   UNL     1     -41.407  53.527 -52.552  1.00  0.00     0.058 A 
HETATM   27  C   UNL     1     -40.473  52.864 -51.739  1.00  0.00     0.033 A 
HETATM   28  C   UNL     1     -39.707  51.812 -52.253  1.00  0.00     0.026 A 
HETATM   29  C   UNL     1     -39.870  51.419 -53.579  1.00  0.00     0.034 A 
HETATM   30 CL   UNL     1     -38.932  50.125 -54.211  1.00  0.00    -0.084 Cl
HETATM   31  C   UNL     1     -40.791  52.071 -54.396  1.00  0.00     0.026 A 
HETATM   32  C   UNL     1     -41.561  53.123 -53.888  1.00  0.00     0.033 A 
ENDBRANCH  23  26
BRANCH  25  33
HETATM   33  O   UNL     1     -44.928  56.121 -50.479  1.00  0.00    -0.357 OA
HETATM   34  H   UNL     1     -45.221  55.444 -49.845  1.00  0.00     0.218 HD
ENDBRANCH  25  33
ENDBRANCH   2  21
TORSDOF 8
ENDMDL
MODEL 3
REMARK VINA RESULT:      -8.5      5.596      9.517
REMARK  8 active torsions:
REMARK  status: ('A' for Active; 'I' for Inactive)
REMARK    1  A    between atoms: C_4  and  C_5 
REMARK       I    between atoms: C_5  and  N_6 
REMARK    2  A    between atoms: N_6  and  C_7 
REMARK    3  A    between atoms: C_7  and  C_8 
REMARK    4  A    between atoms: C_8  and  C_9 
REMARK       I    between atoms: C_9  and  N_10 
REMARK    5  A    between atoms: N_10  and  N_11 
REMARK       I    between atoms: N_11  and  C_12 
REMARK    6  A    between atoms: C_12  and  C_13 
REMARK    7  A    between atoms: N_15  and  C_16 
REMARK    8  A    between atoms: C_24  and  O_25 
ROOT
HETATM    1  N   UNL     1     -41.593  56.863 -52.833  1.00  0.00    -0.262 N 
HETATM    2  C   UNL     1     -42.432  57.924 -53.131  1.00  0.00     0.293 C 
HETATM    3  O   UNL     1     -43.002  58.568 -52.252  1.00  0.00    -0.264 OA
HETATM    4  H   UNL     1     -41.000  56.471 -53.566  1.00  0.00     0.190 HD
ENDROOT
BRANCH   1   5
HETATM    5  N   UNL     1     -41.241  56.634 -51.494  1.00  0.00    -0.267 N 
HETATM    6  C   UNL     1     -41.709  55.479 -50.896  1.00  0.00     0.237 C 
HETATM    7  O   UNL     1     -42.555  54.752 -51.411  1.00  0.00    -0.272 OA
HETATM    8  H   UNL     1     -40.365  57.062 -51.195  1.00  0.00     0.190 HD
BRANCH   6   9
HETATM    9  C   UNL     1     -41.131  55.254 -49.517  1.00  0.00     0.124 C 
BRANCH   9  10
HETATM   10  C   UNL     1     -39.820  54.483 -49.593  1.00  0.00     0.132 C 
BRANCH  10  11
HETATM   11  N   UNL     1     -39.749  53.614 -50.754  1.00  0.00    -0.356 N 
HETATM   12  C   UNL     1     -40.109  52.284 -50.693  1.00  0.00     0.251 C 
HETATM   13  O   UNL     1     -40.571  51.760 -49.685  1.00  0.00    -0.268 OA
HETATM   14  H   UNL     1     -39.523  54.032 -51.647  1.00  0.00     0.162 HD
BRANCH  12  15
HETATM   15  C   UNL     1     -39.944  51.491 -51.944  1.00  0.00     0.032 A 
HETATM   16  C   UNL     1     -39.580  50.138 -51.922  1.00  0.00     0.017 A 
HETATM   17  C   UNL     1     -39.449  49.430 -53.119  1.00  0.00     0.001 A 
HETATM   18  C   UNL     1     -39.688  50.066 -54.338  1.00  0.00     0.000 A 
HETATM   19  C   UNL     1     -40.065  51.408 -54.364  1.00  0.00     0.001 A 
HETATM   20  C   UNL     1     -40.198  52.119 -53.170  1.00  0.00     0.017 A 
ENDBRANCH  12  15
ENDBRANCH  10  11
ENDBRANCH   9  10
ENDBRANCH   6   9
ENDBRANCH   1   5
BRANCH   2  21
HETATM   21  C   UNL     1     -42.555  58.185 -54.571  1.00  0.00     0.181 A 
HETATM   22  N   UNL     1     -43.073  57.269 -55.417  1.00  0.00    -0.159 NA
HETATM   23  N   UNL     1     -43.054  57.859 -56.644  1.00  0.00    -0.242 N 
HETATM   24  C   UNL     1     -42.504  59.121 -56.593  1.00  0.00     0.158 A 
HETATM   25  C   UNL     1     -42.187  59.347 -55.282  1.00  0.00     0.119 A 
BRANCH  23  26
HETATM   26  C   UNL     1     -43.572  57.178 -57.785  1.00  0.00     0.058 A 
HETATM   27  C   UNL     1     -44.649  57.737 -58.494  1.00  0.00     0.033 A 
HETATM   28  C   UNL     1     -45.164  57.091 -59.622  1.00  0.00     0.026 A 
HETATM   29  C   UNL     1     -44.608  55.887 -60.046  1.00  0.00     0.034 A 
HETATM   30 CL   UNL     1     -45.239  55.094 -61.436  1.00  0.00    -0.084 Cl
HETATM   31  C   UNL     1     -43.542  55.322 -59.351  1.00  0.00     0.026 A 
HETATM   32  C   UNL     1     -43.021  55.963 -58.221  1.00  0.00     0.033 A 
ENDBRANCH  23  26
BRANCH  25  33
HETATM   33  O   UNL     1     -41.634  60.477 -54.820  1.00  0.00    -0.357 OA
HETATM   34  H   UNL     1     -41.189  60.329 -53.968  1.00  0.00     0.218 HD
ENDBRANCH  25  33
ENDBRANCH   2  21
TORSDOF 8
ENDMDL
MODEL 4
REMARK VINA RESULT:      -8.2      4.855      7.771
REMARK  8 active torsions:
REMARK  status: ('A' for Active; 'I' for Inactive)
REMARK    1  A    between atoms: C_4  and  C_5 
REMARK       I    between atoms: C_5  and  N_6 
REMARK    2  A    between atoms: N_6  and  C_7 
REMARK    3  A    between atoms: C_7  and  C_8 
REMARK    4  A    between atoms: C_8  and  C_9 
REMARK       I    between atoms: C_9  and  N_10 
REMARK    5  A    between atoms: N_10  and  N_11 
REMARK       I    between atoms: N_11  and  C_12 
REMARK    6  A    between atoms: C_12  and  C_13 
REMARK    7  A    between atoms: N_15  and  C_16 
REMARK    8  A    between atoms: C_24  and  O_25 
ROOT
HETATM    1  N   UNL     1     -42.590  58.828 -52.362  1.00  0.00    -0.262 N 
HETATM    2  C   UNL     1     -43.113  57.571 -52.615  1.00  0.00     0.293 C 
HETATM    3  O   UNL     1     -44.171  57.419 -53.224  1.00  0.00    -0.264 OA
HETATM    4  H   UNL     1     -41.632  58.913 -52.020  1.00  0.00     0.190 HD
ENDROOT
BRANCH   1   5
HETATM    5  N   UNL     1     -43.184  59.944 -52.971  1.00  0.00    -0.267 N 
HETATM    6  C   UNL     1     -42.526  60.517 -54.043  1.00  0.00     0.237 C 
HETATM    7  O   UNL     1     -41.379  60.217 -54.363  1.00  0.00    -0.272 OA
HETATM    8  H   UNL     1     -44.199  59.996 -52.890  1.00  0.00     0.190 HD
BRANCH   6   9
HETATM    9  C   UNL     1     -43.336  61.599 -54.721  1.00  0.00     0.124 C 
BRANCH   9  10
HETATM   10  C   UNL     1     -43.052  61.639 -56.216  1.00  0.00     0.132 C 
BRANCH  10  11
HETATM   11  N   UNL     1     -43.123  60.326 -56.834  1.00  0.00    -0.356 N 
HETATM   12  C   UNL     1     -42.094  59.827 -57.605  1.00  0.00     0.251 C 
HETATM   13  O   UNL     1     -41.032  60.416 -57.770  1.00  0.00    -0.268 OA
HETATM   14  H   UNL     1     -43.909  59.735 -56.603  1.00  0.00     0.162 HD
BRANCH  12  15
HETATM   15  C   UNL     1     -42.313  58.487 -58.220  1.00  0.00     0.032 A 
HETATM   16  C   UNL     1     -42.854  57.417 -57.494  1.00  0.00     0.017 A 
HETATM   17  C   UNL     1     -43.054  56.181 -58.115  1.00  0.00     0.001 A 
HETATM   18  C   UNL     1     -42.723  56.012 -59.460  1.00  0.00     0.000 A 
HETATM   19  C   UNL     1     -42.201  57.078 -60.191  1.00  0.00     0.001 A 
HETATM   20  C   UNL     1     -42.000  58.315 -59.575  1.00  0.00     0.017 A 
ENDBRANCH  12  15
ENDBRANCH  10  11
ENDBRANCH   9  10
ENDBRANCH   6   9
ENDBRANCH   1   5
BRANCH   2  21
HETATM   21  C   UNL     1     -42.285  56.476 -52.095  1.00  0.00     0.181 A 
HETATM   22  N   UNL     1     -42.026  55.372 -52.828  1.00  0.00    -0.159 NA
HETATM   23  N   UNL     1     -41.220  54.601 -52.047  1.00  0.00    -0.242 N 
HETATM   24  C   UNL     1     -40.991  55.185 -50.820  1.00  0.00     0.158 A 
HETATM   25  C   UNL     1     -41.656  56.379 -50.835  1.00  0.00     0.119 A 
BRANCH  23  26
HETATM   26  C   UNL     1     -40.714  53.359 -52.530  1.00  0.00     0.058 A 
HETATM   27  C   UNL     1     -39.944  52.548 -51.680  1.00  0.00     0.033 A 
HETATM   28  C   UNL     1     -39.448  51.320 -52.130  1.00  0.00     0.026 A 
HETATM   29  C   UNL     1     -39.718  50.898 -53.429  1.00  0.00     0.034 A 
HETATM   30 CL   UNL     1     -39.112  49.387 -53.983  1.00  0.00    -0.084 Cl
HETATM   31  C   UNL     1     -40.479  51.694 -54.283  1.00  0.00     0.026 A 
HETATM   32  C   UNL     1     -40.978  52.923 -53.838  1.00  0.00     0.033 A 
ENDBRANCH  23  26
BRANCH  25  33
HETATM   33  O   UNL     1     -41.670  57.253 -49.818  1.00  0.00    -0.357 OA
HETATM   34  H   UNL     1     -41.203  58.073 -50.051  1.00  0.00     0.218 HD
ENDBRANCH  25  33
ENDBRANCH   2  21
TORSDOF 8
ENDMDL
MODEL 5
REMARK VINA RESULT:      -8.1      6.448     10.668
REMARK  8 active torsions:
REMARK  status: ('A' for Active; 'I' for Inactive)
REMARK    1  A    between atoms: C_4  and  C_5 
REMARK       I    between atoms: C_5  and  N_6 
REMARK    2  A    between atoms: N_6  and  C_7 
REMARK    3  A    between atoms: C_7  and  C_8 
REMARK    4  A    between atoms: C_8  and  C_9 
REMARK       I    between atoms: C_9  and  N_10 
REMARK    5  A    between atoms: N_10  and  N_11 
REMARK       I    between atoms: N_11  and  C_12 
REMARK    6  A    between atoms: C_12  and  C_13 
REMARK    7  A    between atoms: N_15  and  C_16 
REMARK    8  A    between atoms: C_24  and  O_25 
ROOT
HETATM    1  N   UNL     1     -42.640  57.124 -55.651  1.00  0.00    -0.262 N 
HETATM    2  C   UNL     1     -42.892  56.227 -56.675  1.00  0.00     0.293 C 
HETATM    3  O   UNL     1     -42.742  55.015 -56.528  1.00  0.00    -0.264 OA
HETATM    4  H   UNL     1     -42.945  58.093 -55.746  1.00  0.00     0.190 HD
ENDROOT
BRANCH   1   5
HETATM    5  N   UNL     1     -42.383  56.627 -54.364  1.00  0.00    -0.267 N 
HETATM    6  C   UNL     1     -43.441  56.562 -53.477  1.00  0.00     0.237 C 
HETATM    7  O   UNL     1     -44.533  57.081 -53.697  1.00  0.00    -0.272 OA
HETATM    8  H   UNL     1     -41.601  55.976 -54.296  1.00  0.00     0.190 HD
BRANCH   6   9
HETATM    9  C   UNL     1     -43.086  55.858 -52.187  1.00  0.00     0.124 C 
BRANCH   9  10
HETATM   10  C   UNL     1     -41.578  55.699 -52.048  1.00  0.00     0.132 C 
BRANCH  10  11
HETATM   11  N   UNL     1     -41.156  54.310 -52.083  1.00  0.00    -0.356 N 
HETATM   12  C   UNL     1     -40.586  53.749 -53.206  1.00  0.00     0.251 C 
HETATM   13  O   UNL     1     -40.335  54.388 -54.222  1.00  0.00    -0.268 OA
HETATM   14  H   UNL     1     -41.198  53.779 -51.223  1.00  0.00     0.162 HD
BRANCH  12  15
HETATM   15  C   UNL     1     -40.243  52.300 -53.126  1.00  0.00     0.032 A 
HETATM   16  C   UNL     1     -40.275  51.467 -54.252  1.00  0.00     0.017 A 
HETATM   17  C   UNL     1     -39.933  50.117 -54.132  1.00  0.00     0.001 A 
HETATM   18  C   UNL     1     -39.551  49.600 -52.895  1.00  0.00     0.000 A 
HETATM   19  C   UNL     1     -39.501  50.429 -51.775  1.00  0.00     0.001 A 
HETATM   20  C   UNL     1     -39.842  51.778 -51.890  1.00  0.00     0.017 A 
ENDBRANCH  12  15
ENDBRANCH  10  11
ENDBRANCH   9  10
ENDBRANCH   6   9
ENDBRANCH   1   5
BRANCH   2  21
HETATM   21  C   UNL     1     -43.350  56.868 -57.915  1.00  0.00     0.181 A 
HETATM   22  N   UNL     1     -44.608  56.702 -58.376  1.00  0.00    -0.159 NA
HETATM   23  N   UNL     1     -44.678  57.451 -59.510  1.00  0.00    -0.242 N 
HETATM   24  C   UNL     1     -43.475  58.062 -59.792  1.00  0.00     0.158 A 
HETATM   25  C   UNL     1     -42.622  57.707 -58.785  1.00  0.00     0.119 A 
BRANCH  23  26
HETATM   26  C   UNL     1     -45.895  57.541 -60.248  1.00  0.00     0.058 A 
HETATM   27  C   UNL     1     -46.445  58.803 -60.526  1.00  0.00     0.033 A 
HETATM   28  C   UNL     1     -47.632  58.914 -61.257  1.00  0.00     0.026 A 
HETATM   29  C   UNL     1     -48.274  57.765 -61.713  1.00  0.00     0.034 A 
HETATM   30 CL   UNL     1     -49.732  57.899 -62.615  1.00  0.00    -0.084 Cl
HETATM   31  C   UNL     1     -47.741  56.507 -61.441  1.00  0.00     0.026 A 
HETATM   32  C   UNL     1     -46.553  56.390 -60.710  1.00  0.00     0.033 A 
ENDBRANCH  23  26
BRANCH  25  33
HETATM   33  O   UNL     1     -41.347  58.110 -58.694  1.00  0.00    -0.357 OA
HETATM   34  H   UNL     1     -41.230  58.999 -59.071  1.00  0.00     0.218 HD
ENDBRANCH  25  33
ENDBRANCH   2  21
TORSDOF 8
ENDMDL
MODEL 6
REMARK VINA RESULT:      -8.0      4.798      8.219
REMARK  8 active torsions:
REMARK  status: ('A' for Active; 'I' for Inactive)
REMARK    1  A    between atoms: C_4  and  C_5 
REMARK       I    between atoms: C_5  and  N_6 
REMARK    2  A    between atoms: N_6  and  C_7 
REMARK    3  A    between atoms: C_7  and  C_8 
REMARK    4  A    between atoms: C_8  and  C_9 
REMARK       I    between atoms: C_9  and  N_10 
REMARK    5  A    between atoms: N_10  and  N_11 
REMARK       I    between atoms: N_11  and  C_12 
REMARK    6  A    between atoms: C_12  and  C_13 
REMARK    7  A    between atoms: N_15  and  C_16 
REMARK    8  A    between atoms: C_24  and  O_25 
ROOT
HETATM    1  N   UNL     1     -42.565  58.078 -53.685  1.00  0.00    -0.262 N 
HETATM    2  C   UNL     1     -42.499  57.984 -52.305  1.00  0.00     0.293 C 
HETATM    3  O   UNL     1     -42.960  58.858 -51.572  1.00  0.00    -0.264 OA
HETATM    4  H   UNL     1     -42.339  57.262 -54.254  1.00  0.00     0.190 HD
ENDROOT
BRANCH   1   5
HETATM    5  N   UNL     1     -43.335  59.101 -54.258  1.00  0.00    -0.267 N 
HETATM    6  C   UNL     1     -44.625  58.792 -54.649  1.00  0.00     0.237 C 
HETATM    7  O   UNL     1     -45.056  57.643 -54.690  1.00  0.00    -0.272 OA
HETATM    8  H   UNL     1     -43.087  60.047 -53.969  1.00  0.00     0.190 HD
BRANCH   6   9
HETATM    9  C   UNL     1     -45.411  60.004 -55.093  1.00  0.00     0.124 C 
BRANCH   9  10
HETATM   10  C   UNL     1     -45.276  60.225 -56.594  1.00  0.00     0.132 C 
BRANCH  10  11
HETATM   11  N   UNL     1     -45.436  58.999 -57.355  1.00  0.00    -0.356 N 
HETATM   12  C   UNL     1     -44.407  58.465 -58.103  1.00  0.00     0.251 C 
HETATM   13  O   UNL     1     -43.278  58.942 -58.126  1.00  0.00    -0.268 OA
HETATM   14  H   UNL     1     -46.299  58.482 -57.248  1.00  0.00     0.162 HD
BRANCH  12  15
HETATM   15  C   UNL     1     -44.718  57.229 -58.876  1.00  0.00     0.032 A 
HETATM   16  C   UNL     1     -45.934  57.063 -59.551  1.00  0.00     0.017 A 
HETATM   17  C   UNL     1     -46.178  55.892 -60.274  1.00  0.00     0.001 A 
HETATM   18  C   UNL     1     -45.208  54.891 -60.331  1.00  0.00     0.000 A 
HETATM   19  C   UNL     1     -43.991  55.058 -59.675  1.00  0.00     0.001 A 
HETATM   20  C   UNL     1     -43.743  56.227 -58.951  1.00  0.00     0.017 A 
ENDBRANCH  12  15
ENDBRANCH  10  11
ENDBRANCH   9  10
ENDBRANCH   6   9
ENDBRANCH   1   5
BRANCH   2  21
HETATM   21  C   UNL     1     -41.840  56.759 -51.832  1.00  0.00     0.181 A 
HETATM   22  N   UNL     1     -41.639  55.703 -52.648  1.00  0.00    -0.159 NA
HETATM   23  N   UNL     1     -40.991  54.777 -51.888  1.00  0.00    -0.242 N 
HETATM   24  C   UNL     1     -40.809  55.219 -50.595  1.00  0.00     0.158 A 
HETATM   25  C   UNL     1     -41.337  56.479 -50.544  1.00  0.00     0.119 A 
BRANCH  23  26
HETATM   26  C   UNL     1     -40.581  53.533 -52.450  1.00  0.00     0.058 A 
HETATM   27  C   UNL     1     -39.859  52.622 -51.662  1.00  0.00     0.033 A 
HETATM   28  C   UNL     1     -39.457  51.391 -52.191  1.00  0.00     0.026 A 
HETATM   29  C   UNL     1     -39.774  51.066 -53.507  1.00  0.00     0.034 A 
HETATM   30 CL   UNL     1     -39.284  49.551 -54.157  1.00  0.00    -0.084 Cl
HETATM   31  C   UNL     1     -40.488  51.962 -54.300  1.00  0.00     0.026 A 
HETATM   32  C   UNL     1     -40.893  53.195 -53.776  1.00  0.00     0.033 A 
ENDBRANCH  23  26
BRANCH  25  33
HETATM   33  O   UNL     1     -41.346  57.254 -49.451  1.00  0.00    -0.357 OA
HETATM   34  H   UNL     1     -42.217  57.667 -49.318  1.00  0.00     0.218 HD
ENDBRANCH  25  33
ENDBRANCH   2  21
TORSDOF 8
ENDMDL
MODEL 7
REMARK VINA RESULT:      -8.0      5.251      8.576
REMARK  8 active torsions:
REMARK  status: ('A' for Active; 'I' for Inactive)
REMARK    1  A    between atoms: C_4  and  C_5 
REMARK       I    between atoms: C_5  and  N_6 
REMARK    2  A    between atoms: N_6  and  C_7 
REMARK    3  A    between atoms: C_7  and  C_8 
REMARK    4  A    between atoms: C_8  and  C_9 
REMARK       I    between atoms: C_9  and  N_10 
REMARK    5  A    between atoms: N_10  and  N_11 
REMARK       I    between atoms: N_11  and  C_12 
REMARK    6  A    between atoms: C_12  and  C_13 
REMARK    7  A    between atoms: N_15  and  C_16 
REMARK    8  A    between atoms: C_24  and  O_25 
ROOT
HETATM    1  N   UNL     1     -42.003  58.688 -54.890  1.00  0.00    -0.262 N 
HETATM    2  C   UNL     1     -41.468  58.805 -53.619  1.00  0.00     0.293 C 
HETATM    3  O   UNL     1     -41.125  59.892 -53.157  1.00  0.00    -0.264 OA
HETATM    4  H   UNL     1     -42.441  57.809 -55.171  1.00  0.00     0.190 HD
ENDROOT
BRANCH   1   5
HETATM    5  N   UNL     1     -42.332  59.854 -55.597  1.00  0.00    -0.267 N 
HETATM    6  C   UNL     1     -42.167  59.842 -56.970  1.00  0.00     0.237 C 
HETATM    7  O   UNL     1     -41.582  58.941 -57.566  1.00  0.00    -0.272 OA
HETATM    8  H   UNL     1     -43.040  60.444 -55.159  1.00  0.00     0.190 HD
BRANCH   6   9
HETATM    9  C   UNL     1     -42.709  61.084 -57.639  1.00  0.00     0.124 C 
BRANCH   9  10
HETATM   10  C   UNL     1     -44.108  60.842 -58.191  1.00  0.00     0.132 C 
BRANCH  10  11
HETATM   11  N   UNL     1     -44.233  59.552 -58.848  1.00  0.00    -0.356 N 
HETATM   12  C   UNL     1     -44.972  58.524 -58.300  1.00  0.00     0.251 C 
HETATM   13  O   UNL     1     -45.622  58.641 -57.267  1.00  0.00    -0.268 OA
HETATM   14  H   UNL     1     -43.846  59.452 -59.776  1.00  0.00     0.162 HD
BRANCH  12  15
HETATM   15  C   UNL     1     -44.980  57.237 -59.052  1.00  0.00     0.032 A 
HETATM   16  C   UNL     1     -43.886  56.362 -59.036  1.00  0.00     0.017 A 
HETATM   17  C   UNL     1     -43.943  55.159 -59.745  1.00  0.00     0.001 A 
HETATM   18  C   UNL     1     -45.091  54.824 -60.464  1.00  0.00     0.000 A 
HETATM   19  C   UNL     1     -46.188  55.684 -60.469  1.00  0.00     0.001 A 
HETATM   20  C   UNL     1     -46.136  56.887 -59.761  1.00  0.00     0.017 A 
ENDBRANCH  12  15
ENDBRANCH  10  11
ENDBRANCH   9  10
ENDBRANCH   6   9
ENDBRANCH   1   5
BRANCH   2  21
HETATM   21  C   UNL     1     -41.364  57.524 -52.907  1.00  0.00     0.181 A 
HETATM   22  N   UNL     1     -41.024  56.384 -53.545  1.00  0.00    -0.159 NA
HETATM   23  N   UNL     1     -41.002  55.423 -52.580  1.00  0.00    -0.242 N 
HETATM   24  C   UNL     1     -41.355  55.932 -51.348  1.00  0.00     0.158 A 
HETATM   25  C   UNL     1     -41.582  57.266 -51.537  1.00  0.00     0.119 A 
BRANCH  23  26
HETATM   26  C   UNL     1     -40.637  54.082 -52.898  1.00  0.00     0.058 A 
HETATM   27  C   UNL     1     -40.696  53.647 -54.233  1.00  0.00     0.033 A 
HETATM   28  C   UNL     1     -40.331  52.339 -54.568  1.00  0.00     0.026 A 
HETATM   29  C   UNL     1     -39.908  51.461 -53.574  1.00  0.00     0.034 A 
HETATM   30 CL   UNL     1     -39.456  49.854 -53.985  1.00  0.00    -0.084 Cl
HETATM   31  C   UNL     1     -39.848  51.880 -52.246  1.00  0.00     0.026 A 
HETATM   32  C   UNL     1     -40.211  53.188 -51.904  1.00  0.00     0.033 A 
ENDBRANCH  23  26
BRANCH  25  33
HETATM   33  O   UNL     1     -41.941  58.119 -50.567  1.00  0.00    -0.357 OA
HETATM   34  H   UNL     1     -42.800  57.875 -50.183  1.00  0.00     0.218 HD
ENDBRANCH  25  33
ENDBRANCH   2  21
TORSDOF 8
ENDMDL
MODEL 8
REMARK VINA RESULT:      -7.9      6.379     10.618
REMARK  8 active torsions:
REMARK  status: ('A' for Active; 'I' for Inactive)
REMARK    1  A    between atoms: C_4  and  C_5 
REMARK       I    between atoms: C_5  and  N_6 
REMARK    2  A    between atoms: N_6  and  C_7 
REMARK    3  A    between atoms: C_7  and  C_8 
REMARK    4  A    between atoms: C_8  and  C_9 
REMARK       I    between atoms: C_9  and  N_10 
REMARK    5  A    between atoms: N_10  and  N_11 
REMARK       I    between atoms: N_11  and  C_12 
REMARK    6  A    between atoms: C_12  and  C_13 
REMARK    7  A    between atoms: N_15  and  C_16 
REMARK    8  A    between atoms: C_24  and  O_25 
ROOT
HETATM    1  N   UNL     1     -42.477  57.469 -55.045  1.00  0.00    -0.262 N 
HETATM    2  C   UNL     1     -42.614  56.853 -56.277  1.00  0.00     0.293 C 
HETATM    3  O   UNL     1     -42.471  55.639 -56.416  1.00  0.00    -0.264 OA
HETATM    4  H   UNL     1     -42.778  58.437 -54.931  1.00  0.00     0.190 HD
ENDROOT
BRANCH   1   5
HETATM    5  N   UNL     1     -42.352  56.669 -53.898  1.00  0.00    -0.267 N 
HETATM    6  C   UNL     1     -43.459  56.540 -53.081  1.00  0.00     0.237 C 
HETATM    7  O   UNL     1     -44.469  57.227 -53.208  1.00  0.00    -0.272 OA
HETATM    8  H   UNL     1     -41.655  55.927 -53.959  1.00  0.00     0.190 HD
BRANCH   6   9
HETATM    9  C   UNL     1     -43.260  55.527 -51.977  1.00  0.00     0.124 C 
BRANCH   9  10
HETATM   10  C   UNL     1     -41.788  55.402 -51.607  1.00  0.00     0.132 C 
BRANCH  10  11
HETATM   11  N   UNL     1     -41.285  54.049 -51.768  1.00  0.00    -0.356 N 
HETATM   12  C   UNL     1     -40.652  53.639 -52.923  1.00  0.00     0.251 C 
HETATM   13  O   UNL     1     -40.412  54.393 -53.860  1.00  0.00    -0.268 OA
HETATM   14  H   UNL     1     -41.318  53.432 -50.968  1.00  0.00     0.162 HD
BRANCH  12  15
HETATM   15  C   UNL     1     -40.226  52.212 -52.978  1.00  0.00     0.032 A 
HETATM   16  C   UNL     1     -39.793  51.524 -51.838  1.00  0.00     0.017 A 
HETATM   17  C   UNL     1     -39.414  50.182 -51.933  1.00  0.00     0.001 A 
HETATM   18  C   UNL     1     -39.473  49.524 -53.162  1.00  0.00     0.000 A 
HETATM   19  C   UNL     1     -39.919  50.200 -54.296  1.00  0.00     0.001 A 
HETATM   20  C   UNL     1     -40.299  51.541 -54.205  1.00  0.00     0.017 A 
ENDBRANCH  12  15
ENDBRANCH  10  11
ENDBRANCH   9  10
ENDBRANCH   6   9
ENDBRANCH   1   5
BRANCH   2  21
HETATM   21  C   UNL     1     -42.945  57.785 -57.363  1.00  0.00     0.181 A 
HETATM   22  N   UNL     1     -42.062  58.709 -57.798  1.00  0.00    -0.159 NA
HETATM   23  N   UNL     1     -42.694  59.363 -58.812  1.00  0.00    -0.242 N 
HETATM   24  C   UNL     1     -43.974  58.888 -59.003  1.00  0.00     0.158 A 
HETATM   25  C   UNL     1     -44.148  57.881 -58.095  1.00  0.00     0.119 A 
BRANCH  23  26
HETATM   26  C   UNL     1     -42.029  60.395 -59.537  1.00  0.00     0.058 A 
HETATM   27  C   UNL     1     -42.086  60.401 -60.940  1.00  0.00     0.033 A 
HETATM   28  C   UNL     1     -41.451  61.411 -61.671  1.00  0.00     0.026 A 
HETATM   29  C   UNL     1     -40.755  62.416 -61.003  1.00  0.00     0.034 A 
HETATM   30 CL   UNL     1     -39.976  63.659 -61.899  1.00  0.00    -0.084 Cl
HETATM   31  C   UNL     1     -40.688  62.419 -59.611  1.00  0.00     0.026 A 
HETATM   32  C   UNL     1     -41.323  61.412 -58.875  1.00  0.00     0.033 A 
ENDBRANCH  23  26
BRANCH  25  33
HETATM   33  O   UNL     1     -45.269  57.157 -57.971  1.00  0.00    -0.357 OA
HETATM   34  H   UNL     1     -45.260  56.630 -57.154  1.00  0.00     0.218 HD
ENDBRANCH  25  33
ENDBRANCH   2  21
TORSDOF 8
ENDMDL
MODEL 9
REMARK VINA RESULT:      -7.8      6.872      8.963
REMARK  8 active torsions:
REMARK  status: ('A' for Active; 'I' for Inactive)
REMARK    1  A    between atoms: C_4  and  C_5 
REMARK       I    between atoms: C_5  and  N_6 
REMARK    2  A    between atoms: N_6  and  C_7 
REMARK    3  A    between atoms: C_7  and  C_8 
REMARK    4  A    between atoms: C_8  and  C_9 
REMARK       I    between atoms: C_9  and  N_10 
REMARK    5  A    between atoms: N_10  and  N_11 
REMARK       I    between atoms: N_11  and  C_12 
REMARK    6  A    between atoms: C_12  and  C_13 
REMARK    7  A    between atoms: N_15  and  C_16 
REMARK    8  A    between atoms: C_24  and  O_25 
ROOT
HETATM    1  N   UNL     1     -44.111  56.876 -56.700  1.00  0.00    -0.262 N 
HETATM    2  C   UNL     1     -43.088  55.957 -56.862  1.00  0.00     0.293 C 
HETATM    3  O   UNL     1     -42.876  55.405 -57.941  1.00  0.00    -0.264 OA
HETATM    4  H   UNL     1     -44.145  57.444 -55.853  1.00  0.00     0.190 HD
ENDROOT
BRANCH   1   5
HETATM    5  N   UNL     1     -44.804  57.325 -57.835  1.00  0.00    -0.267 N 
HETATM    6  C   UNL     1     -45.564  58.473 -57.711  1.00  0.00     0.237 C 
HETATM    7  O   UNL     1     -45.805  59.004 -56.630  1.00  0.00    -0.272 OA
HETATM    8  H   UNL     1     -44.391  57.063 -58.730  1.00  0.00     0.190 HD
BRANCH   6   9
HETATM    9  C   UNL     1     -46.124  58.953 -59.030  1.00  0.00     0.124 C 
BRANCH   9  10
HETATM   10  C   UNL     1     -45.114  58.767 -60.154  1.00  0.00     0.132 C 
BRANCH  10  11
HETATM   11  N   UNL     1     -44.092  59.799 -60.163  1.00  0.00    -0.356 N 
HETATM   12  C   UNL     1     -42.785  59.535 -59.812  1.00  0.00     0.251 C 
HETATM   13  O   UNL     1     -42.379  58.412 -59.534  1.00  0.00    -0.268 OA
HETATM   14  H   UNL     1     -44.338  60.708 -60.533  1.00  0.00     0.162 HD
BRANCH  12  15
HETATM   15  C   UNL     1     -41.847  60.693 -59.817  1.00  0.00     0.032 A 
HETATM   16  C   UNL     1     -41.522  61.377 -60.996  1.00  0.00     0.017 A 
HETATM   17  C   UNL     1     -40.646  62.466 -60.953  1.00  0.00     0.001 A 
HETATM   18  C   UNL     1     -40.102  62.878 -59.736  1.00  0.00     0.000 A 
HETATM   19  C   UNL     1     -40.436  62.210 -58.559  1.00  0.00     0.001 A 
HETATM   20  C   UNL     1     -41.310  61.122 -58.597  1.00  0.00     0.017 A 
ENDBRANCH  12  15
ENDBRANCH  10  11
ENDBRANCH   9  10
ENDBRANCH   6   9
ENDBRANCH   1   5
BRANCH   2  21
HETATM   21  C   UNL     1     -42.308  55.728 -55.639  1.00  0.00     0.181 A 
HETATM   22  N   UNL     1     -42.020  54.482 -55.205  1.00  0.00    -0.159 NA
HETATM   23  N   UNL     1     -41.274  54.655 -54.079  1.00  0.00    -0.242 N 
HETATM   24  C   UNL     1     -41.113  55.990 -53.776  1.00  0.00     0.158 A 
HETATM   25  C   UNL     1     -41.759  56.685 -54.761  1.00  0.00     0.119 A 
BRANCH  23  26
HETATM   26  C   UNL     1     -40.757  53.532 -53.370  1.00  0.00     0.058 A 
HETATM   27  C   UNL     1     -40.310  52.409 -54.085  1.00  0.00     0.033 A 
HETATM   28  C   UNL     1     -39.788  51.300 -53.410  1.00  0.00     0.026 A 
HETATM   29  C   UNL     1     -39.711  51.310 -52.019  1.00  0.00     0.034 A 
HETATM   30 CL   UNL     1     -39.066  49.949 -51.188  1.00  0.00    -0.084 Cl
HETATM   31  C   UNL     1     -40.154  52.416 -51.298  1.00  0.00     0.026 A 
HETATM   32  C   UNL     1     -40.676  53.528 -51.969  1.00  0.00     0.033 A 
ENDBRANCH  23  26
BRANCH  25  33
HETATM   33  O   UNL     1     -41.823  58.023 -54.827  1.00  0.00    -0.357 OA
HETATM   34  H   UNL     1     -41.916  58.326 -55.747  1.00  0.00     0.218 HD
ENDBRANCH  25  33
ENDBRANCH   2  21
TORSDOF 8
ENDMDL
MODEL 10
REMARK VINA RESULT:      -7.8      3.642     10.822
REMARK  8 active torsions:
REMARK  status: ('A' for Active; 'I' for Inactive)
REMARK    1  A    between atoms: C_4  and  C_5 
REMARK       I    between atoms: C_5  and  N_6 
REMARK    2  A    between atoms: N_6  and  C_7 
REMARK    3  A    between atoms: C_7  and  C_8 
REMARK    4  A    between atoms: C_8  and  C_9 
REMARK       I    between atoms: C_9  and  N_10 
REMARK    5  A    between atoms: N_10  and  N_11 
REMARK       I    between atoms: N_11  and  C_12 
REMARK    6  A    between atoms: C_12  and  C_13 
REMARK    7  A    between atoms: N_15  and  C_16 
REMARK    8  A    between atoms: C_24  and  O_25 
ROOT
HETATM    1  N   UNL     1     -44.993  59.299 -50.207  1.00  0.00    -0.262 N 
HETATM    2  C   UNL     1     -45.715  60.419 -50.584  1.00  0.00     0.293 C 
HETATM    3  O   UNL     1     -46.144  60.560 -51.729  1.00  0.00    -0.264 OA
HETATM    4  H   UNL     1     -44.811  59.130 -49.217  1.00  0.00     0.190 HD
ENDROOT
BRANCH   1   5
HETATM    5  N   UNL     1     -44.904  58.219 -51.098  1.00  0.00    -0.267 N 
HETATM    6  C   UNL     1     -43.643  57.824 -51.505  1.00  0.00     0.237 C 
HETATM    7  O   UNL     1     -42.629  58.478 -51.276  1.00  0.00    -0.272 OA
HETATM    8  H   UNL     1     -45.673  57.550 -51.050  1.00  0.00     0.190 HD
BRANCH   6   9
HETATM    9  C   UNL     1     -43.660  56.552 -52.323  1.00  0.00     0.124 C 
BRANCH   9  10
HETATM   10  C   UNL     1     -42.474  56.499 -53.276  1.00  0.00     0.132 C 
BRANCH  10  11
HETATM   11  N   UNL     1     -41.952  55.154 -53.444  1.00  0.00    -0.356 N 
HETATM   12  C   UNL     1     -41.180  54.545 -52.477  1.00  0.00     0.251 C 
HETATM   13  O   UNL     1     -40.935  55.061 -51.391  1.00  0.00    -0.268 OA
HETATM   14  H   UNL     1     -42.252  54.626 -54.252  1.00  0.00     0.162 HD
BRANCH  12  15
HETATM   15  C   UNL     1     -40.668  53.182 -52.795  1.00  0.00     0.032 A 
HETATM   16  C   UNL     1     -40.888  52.579 -54.040  1.00  0.00     0.017 A 
HETATM   17  C   UNL     1     -40.379  51.304 -54.299  1.00  0.00     0.001 A 
HETATM   18  C   UNL     1     -39.644  50.632 -53.321  1.00  0.00     0.000 A 
HETATM   19  C   UNL     1     -39.409  51.235 -52.086  1.00  0.00     0.001 A 
HETATM   20  C   UNL     1     -39.915  52.509 -51.824  1.00  0.00     0.017 A 
ENDBRANCH  12  15
ENDBRANCH  10  11
ENDBRANCH   9  10
ENDBRANCH   6   9
ENDBRANCH   1   5
BRANCH   2  21
HETATM   21  C   UNL     1     -45.908  61.385 -49.495  1.00  0.00     0.181 A 
HETATM   22  N   UNL     1     -45.301  61.235 -48.299  1.00  0.00    -0.159 NA
HETATM   23  N   UNL     1     -45.686  62.314 -47.561  1.00  0.00    -0.242 N 
HETATM   24  C   UNL     1     -46.552  63.126 -48.262  1.00  0.00     0.158 A 
HETATM   25  C   UNL     1     -46.699  62.553 -49.494  1.00  0.00     0.119 A 
BRANCH  23  26
HETATM   26  C   UNL     1     -45.193  62.501 -46.237  1.00  0.00     0.058 A 
HETATM   27  C   UNL     1     -44.726  61.394 -45.509  1.00  0.00     0.033 A 
HETATM   28  C   UNL     1     -44.227  61.558 -44.213  1.00  0.00     0.026 A 
HETATM   29  C   UNL     1     -44.194  62.826 -43.638  1.00  0.00     0.034 A 
HETATM   30 CL   UNL     1     -43.579  63.030 -42.046  1.00  0.00    -0.084 Cl
HETATM   31  C   UNL     1     -44.657  63.932 -44.348  1.00  0.00     0.026 A 
HETATM   32  C   UNL     1     -45.157  63.774 -45.646  1.00  0.00     0.033 A 
ENDBRANCH  23  26
BRANCH  25  33
HETATM   33  O   UNL     1     -47.463  63.053 -50.476  1.00  0.00    -0.357 OA
HETATM   34  H   UNL     1     -47.667  63.992 -50.322  1.00  0.00     0.218 HD
ENDBRANCH  25  33
ENDBRANCH   2  21
TORSDOF 8
ENDMDL
