MODEL 1
REMARK VINA RESULT:      -7.3      0.000      0.000
REMARK  2 active torsions:
REMARK  status: ('A' for Active; 'I' for Inactive)
REMARK    1  A    between atoms: C_8  and  S_9 
REMARK    2  A    between atoms: S_9  and  C_10 
ROOT
HETATM    1  C   UNL     1     -39.576  49.521 -53.233  1.00  0.00     0.002 A 
HETATM    2  C   UNL     1     -39.831  50.741 -53.861  1.00  0.00     0.034 A 
HETATM    3  C   UNL     1     -40.038  51.902 -53.125  1.00  0.00     0.087 A 
HETATM    4  C   UNL     1     -39.999  51.832 -51.707  1.00  0.00     0.087 A 
HETATM    5  N   UNL     1     -40.212  52.920 -50.947  1.00  0.00    -0.232 NA
HETATM    6  C   UNL     1     -40.471  54.077 -51.594  1.00  0.00     0.164 A 
HETATM    7 CL   UNL     1     -40.796  55.389 -50.539  1.00  0.00    -0.059 Cl
HETATM    8  C   UNL     1     -40.492  54.153 -52.977  1.00  0.00     0.165 A 
HETATM    9  N   UNL     1     -40.272  53.069 -53.769  1.00  0.00    -0.234 NA
HETATM   10  C   UNL     1     -39.738  50.614 -51.096  1.00  0.00     0.034 A 
HETATM   11  C   UNL     1     -39.525  49.458 -51.847  1.00  0.00     0.002 A 
ENDROOT
BRANCH   8  12
HETATM   12  S   UNL     1     -40.849  55.649 -53.901  1.00  0.00     0.078 S 
HETATM   13  O   UNL     1     -40.789  55.263 -55.350  1.00  0.00    -0.251 OA
BRANCH  12  14
HETATM   14  C   UNL     1     -42.624  55.903 -53.528  1.00  0.00     0.112 C 
HETATM   15  C   UNL     1     -43.463  55.682 -54.791  1.00  0.00     0.250 C 
HETATM   16  N   UNL     1     -44.902  56.027 -54.527  1.00  0.00    -0.074 N 
HETATM   17  H   UNL     1     -45.303  55.365 -53.845  1.00  0.00     0.277 HD
HETATM   18  H   UNL     1     -45.437  55.883 -55.396  1.00  0.00     0.277 HD
HETATM   19  C   UNL     1     -45.108  57.431 -54.064  1.00  0.00     0.232 C 
HETATM   20  C   UNL     1     -44.300  57.658 -52.795  1.00  0.00     0.029 C 
HETATM   21  C   UNL     1     -42.820  57.334 -53.002  1.00  0.00     0.021 C 
ENDBRANCH  12  14
ENDBRANCH   8  12
TORSDOF 2
ENDMDL
MODEL 2
REMARK VINA RESULT:      -7.1      1.988      2.256
REMARK  2 active torsions:
REMARK  status: ('A' for Active; 'I' for Inactive)
REMARK    1  A    between atoms: C_8  and  S_9 
REMARK    2  A    between atoms: S_9  and  C_10 
ROOT
HETATM    1  C   UNL     1     -40.052  51.203 -54.337  1.00  0.00     0.002 A 
HETATM    2  C   UNL     1     -40.609  52.447 -54.036  1.00  0.00     0.034 A 
HETATM    3  C   UNL     1     -40.609  52.943 -52.738  1.00  0.00     0.087 A 
HETATM    4  C   UNL     1     -40.040  52.155 -51.702  1.00  0.00     0.087 A 
HETATM    5  N   UNL     1     -40.031  52.577 -50.426  1.00  0.00    -0.232 NA
HETATM    6  C   UNL     1     -40.594  53.780 -50.176  1.00  0.00     0.164 A 
HETATM    7 CL   UNL     1     -40.595  54.198 -48.513  1.00  0.00    -0.059 Cl
HETATM    8  C   UNL     1     -41.134  54.559 -51.186  1.00  0.00     0.165 A 
HETATM    9  N   UNL     1     -41.148  54.158 -52.486  1.00  0.00    -0.234 NA
HETATM   10  C   UNL     1     -39.484  50.922 -52.016  1.00  0.00     0.034 A 
HETATM   11  C   UNL     1     -39.485  50.440 -53.325  1.00  0.00     0.002 A 
ENDROOT
BRANCH   8  12
HETATM   12  S   UNL     1     -41.914  56.153 -50.924  1.00  0.00     0.078 S 
HETATM   13  O   UNL     1     -40.803  57.105 -50.587  1.00  0.00    -0.251 OA
BRANCH  12  14
HETATM   14  C   UNL     1     -42.446  56.591 -52.621  1.00  0.00     0.112 C 
HETATM   15  C   UNL     1     -41.589  57.741 -53.159  1.00  0.00     0.250 C 
HETATM   16  N   UNL     1     -42.111  58.199 -54.493  1.00  0.00    -0.074 N 
HETATM   17  H   UNL     1     -41.991  57.452 -55.193  1.00  0.00     0.277 HD
HETATM   18  H   UNL     1     -41.526  58.981 -54.822  1.00  0.00     0.277 HD
HETATM   19  C   UNL     1     -43.535  58.648 -54.458  1.00  0.00     0.232 C 
HETATM   20  C   UNL     1     -44.402  57.507 -53.948  1.00  0.00     0.029 C 
HETATM   21  C   UNL     1     -43.927  57.002 -52.585  1.00  0.00     0.021 C 
ENDBRANCH  12  14
ENDBRANCH   8  12
TORSDOF 2
ENDMDL
MODEL 3
REMARK VINA RESULT:      -7.0      2.913      3.845
REMARK  2 active torsions:
REMARK  status: ('A' for Active; 'I' for Inactive)
REMARK    1  A    between atoms: C_8  and  S_9 
REMARK    2  A    between atoms: S_9  and  C_10 
ROOT
HETATM    1  C   UNL     1     -39.487  51.591 -51.850  1.00  0.00     0.002 A 
HETATM    2  C   UNL     1     -39.974  52.896 -51.762  1.00  0.00     0.034 A 
HETATM    3  C   UNL     1     -40.602  53.507 -52.842  1.00  0.00     0.087 A 
HETATM    4  C   UNL     1     -40.733  52.784 -54.058  1.00  0.00     0.087 A 
HETATM    5  N   UNL     1     -41.313  53.333 -55.139  1.00  0.00    -0.232 NA
HETATM    6  C   UNL     1     -41.757  54.603 -55.016  1.00  0.00     0.164 A 
HETATM    7 CL   UNL     1     -42.417  55.237 -56.466  1.00  0.00    -0.059 Cl
HETATM    8  C   UNL     1     -41.646  55.305 -53.827  1.00  0.00     0.165 A 
HETATM    9  N   UNL     1     -41.071  54.769 -52.716  1.00  0.00    -0.234 NA
HETATM   10  C   UNL     1     -40.249  51.485 -54.129  1.00  0.00     0.034 A 
HETATM   11  C   UNL     1     -39.629  50.882 -53.036  1.00  0.00     0.002 A 
ENDROOT
BRANCH   8  12
HETATM   12  S   UNL     1     -42.194  56.998 -53.599  1.00  0.00     0.078 S 
HETATM   13  O   UNL     1     -43.616  56.911 -53.125  1.00  0.00    -0.251 OA
BRANCH  12  14
HETATM   14  C   UNL     1     -41.215  57.513 -52.139  1.00  0.00     0.112 C 
HETATM   15  C   UNL     1     -42.151  57.903 -50.990  1.00  0.00     0.250 C 
HETATM   16  N   UNL     1     -41.358  58.461 -49.840  1.00  0.00    -0.074 N 
HETATM   17  H   UNL     1     -40.762  57.724 -49.434  1.00  0.00     0.277 HD
HETATM   18  H   UNL     1     -42.014  58.727 -49.091  1.00  0.00     0.277 HD
HETATM   19  C   UNL     1     -40.533  59.651 -50.201  1.00  0.00     0.232 C 
HETATM   20  C   UNL     1     -39.580  59.271 -51.325  1.00  0.00     0.029 C 
HETATM   21  C   UNL     1     -40.329  58.705 -52.532  1.00  0.00     0.021 C 
ENDBRANCH  12  14
ENDBRANCH   8  12
TORSDOF 2
ENDMDL
MODEL 4
REMARK VINA RESULT:      -6.9      1.893      2.234
REMARK  2 active torsions:
REMARK  status: ('A' for Active; 'I' for Inactive)
REMARK    1  A    between atoms: C_8  and  S_9 
REMARK    2  A    between atoms: S_9  and  C_10 
ROOT
HETATM    1  C   UNL     1     -39.870  50.088 -54.098  1.00  0.00     0.002 A 
HETATM    2  C   UNL     1     -40.416  51.343 -54.371  1.00  0.00     0.034 A 
HETATM    3  C   UNL     1     -40.498  52.324 -53.389  1.00  0.00     0.087 A 
HETATM    4  C   UNL     1     -40.025  52.029 -52.083  1.00  0.00     0.087 A 
HETATM    5  N   UNL     1     -40.098  52.933 -51.091  1.00  0.00    -0.232 NA
HETATM    6  C   UNL     1     -40.648  54.129 -51.393  1.00  0.00     0.164 A 
HETATM    7 CL   UNL     1     -40.759  55.187 -50.049  1.00  0.00    -0.059 Cl
HETATM    8  C   UNL     1     -41.095  54.427 -52.671  1.00  0.00     0.165 A 
HETATM    9  N   UNL     1     -41.024  53.533 -53.693  1.00  0.00    -0.234 NA
HETATM   10  C   UNL     1     -39.478  50.779 -51.827  1.00  0.00     0.034 A 
HETATM   11  C   UNL     1     -39.396  49.807 -52.823  1.00  0.00     0.002 A 
ENDROOT
BRANCH   8  12
HETATM   12  S   UNL     1     -41.852  55.984 -53.138  1.00  0.00     0.078 S 
HETATM   13  O   UNL     1     -40.852  57.049 -52.795  1.00  0.00    -0.251 OA
BRANCH  12  14
HETATM   14  C   UNL     1     -41.847  55.869 -54.965  1.00  0.00     0.112 C 
HETATM   15  C   UNL     1     -41.959  57.267 -55.581  1.00  0.00     0.250 C 
HETATM   16  N   UNL     1     -42.097  57.169 -57.075  1.00  0.00    -0.074 N 
HETATM   17  H   UNL     1     -41.232  56.787 -57.484  1.00  0.00     0.277 HD
HETATM   18  H   UNL     1     -42.186  58.121 -57.458  1.00  0.00     0.277 HD
HETATM   19  C   UNL     1     -43.274  56.363 -57.517  1.00  0.00     0.232 C 
HETATM   20  C   UNL     1     -43.163  54.963 -56.934  1.00  0.00     0.029 C 
HETATM   21  C   UNL     1     -43.030  54.994 -55.410  1.00  0.00     0.021 C 
ENDBRANCH  12  14
ENDBRANCH   8  12
TORSDOF 2
ENDMDL
MODEL 5
REMARK VINA RESULT:      -6.7      3.357      4.341
REMARK  2 active torsions:
REMARK  status: ('A' for Active; 'I' for Inactive)
REMARK    1  A    between atoms: C_8  and  S_9 
REMARK    2  A    between atoms: S_9  and  C_10 
ROOT
HETATM    1  C   UNL     1     -39.946  52.522 -53.900  1.00  0.00     0.002 A 
HETATM    2  C   UNL     1     -40.569  53.434 -54.753  1.00  0.00     0.034 A 
HETATM    3  C   UNL     1     -41.458  54.387 -54.268  1.00  0.00     0.087 A 
HETATM    4  C   UNL     1     -41.740  54.416 -52.876  1.00  0.00     0.087 A 
HETATM    5  N   UNL     1     -42.606  55.303 -52.356  1.00  0.00    -0.232 NA
HETATM    6  C   UNL     1     -43.198  56.157 -53.219  1.00  0.00     0.164 A 
HETATM    7 CL   UNL     1     -44.335  57.200 -52.471  1.00  0.00    -0.059 Cl
HETATM    8  C   UNL     1     -42.912  56.143 -54.575  1.00  0.00     0.165 A 
HETATM    9  N   UNL     1     -42.033  55.262 -55.124  1.00  0.00    -0.234 NA
HETATM   10  C   UNL     1     -41.109  53.507 -52.038  1.00  0.00     0.034 A 
HETATM   11  C   UNL     1     -40.214  52.561 -52.537  1.00  0.00     0.002 A 
ENDROOT
BRANCH   8  12
HETATM   12  S   UNL     1     -43.675  57.232 -55.778  1.00  0.00     0.078 S 
HETATM   13  O   UNL     1     -43.294  58.626 -55.373  1.00  0.00    -0.251 OA
BRANCH  12  14
HETATM   14  C   UNL     1     -42.696  56.868 -57.283  1.00  0.00     0.112 C 
HETATM   15  C   UNL     1     -42.198  58.173 -57.914  1.00  0.00     0.250 C 
HETATM   16  N   UNL     1     -41.516  57.890 -59.224  1.00  0.00    -0.074 N 
HETATM   17  H   UNL     1     -40.654  57.349 -59.062  1.00  0.00     0.277 HD
HETATM   18  H   UNL     1     -41.206  58.785 -59.630  1.00  0.00     0.277 HD
HETATM   19  C   UNL     1     -42.386  57.189 -60.214  1.00  0.00     0.232 C 
HETATM   20  C   UNL     1     -42.868  55.879 -59.611  1.00  0.00     0.029 C 
HETATM   21  C   UNL     1     -43.582  56.101 -58.277  1.00  0.00     0.021 C 
ENDBRANCH  12  14
ENDBRANCH   8  12
TORSDOF 2
ENDMDL
MODEL 6
REMARK VINA RESULT:      -6.4      2.642      3.368
REMARK  2 active torsions:
REMARK  status: ('A' for Active; 'I' for Inactive)
REMARK    1  A    between atoms: C_8  and  S_9 
REMARK    2  A    between atoms: S_9  and  C_10 
ROOT
HETATM    1  C   UNL     1     -39.248  51.457 -52.182  1.00  0.00     0.002 A 
HETATM    2  C   UNL     1     -39.972  52.534 -51.668  1.00  0.00     0.034 A 
HETATM    3  C   UNL     1     -40.909  53.210 -52.441  1.00  0.00     0.087 A 
HETATM    4  C   UNL     1     -41.118  52.796 -53.783  1.00  0.00     0.087 A 
HETATM    5  N   UNL     1     -41.997  53.426 -54.581  1.00  0.00    -0.232 NA
HETATM    6  C   UNL     1     -42.665  54.473 -54.049  1.00  0.00     0.164 A 
HETATM    7 CL   UNL     1     -43.710  55.252 -55.163  1.00  0.00    -0.059 Cl
HETATM    8  C   UNL     1     -42.476  54.869 -52.734  1.00  0.00     0.165 A 
HETATM    9  N   UNL     1     -41.599  54.243 -51.904  1.00  0.00    -0.234 NA
HETATM   10  C   UNL     1     -40.396  51.719 -54.280  1.00  0.00     0.034 A 
HETATM   11  C   UNL     1     -39.464  51.046 -53.491  1.00  0.00     0.002 A 
ENDROOT
BRANCH   8  12
HETATM   12  S   UNL     1     -43.312  56.260 -51.969  1.00  0.00     0.078 S 
HETATM   13  O   UNL     1     -42.555  56.552 -50.706  1.00  0.00    -0.251 OA
BRANCH  12  14
HETATM   14  C   UNL     1     -42.898  57.622 -53.121  1.00  0.00     0.112 C 
HETATM   15  C   UNL     1     -41.515  58.191 -52.787  1.00  0.00     0.250 C 
HETATM   16  N   UNL     1     -41.230  59.399 -53.636  1.00  0.00    -0.074 N 
HETATM   17  H   UNL     1     -41.152  59.123 -54.626  1.00  0.00     0.277 HD
HETATM   18  H   UNL     1     -40.303  59.767 -53.379  1.00  0.00     0.277 HD
HETATM   19  C   UNL     1     -42.238  60.490 -53.484  1.00  0.00     0.232 C 
HETATM   20  C   UNL     1     -43.614  59.947 -53.836  1.00  0.00     0.029 C 
HETATM   21  C   UNL     1     -43.968  58.718 -52.997  1.00  0.00     0.021 C 
ENDBRANCH  12  14
ENDBRANCH   8  12
TORSDOF 2
ENDMDL
MODEL 7
REMARK VINA RESULT:      -6.2      3.419      4.619
REMARK  2 active torsions:
REMARK  status: ('A' for Active; 'I' for Inactive)
REMARK    1  A    between atoms: C_8  and  S_9 
REMARK    2  A    between atoms: S_9  and  C_10 
ROOT
HETATM    1  C   UNL     1     -40.229  53.098 -54.180  1.00  0.00     0.002 A 
HETATM    2  C   UNL     1     -40.568  54.072 -55.120  1.00  0.00     0.034 A 
HETATM    3  C   UNL     1     -41.523  55.043 -54.843  1.00  0.00     0.087 A 
HETATM    4  C   UNL     1     -42.170  55.027 -53.579  1.00  0.00     0.087 A 
HETATM    5  N   UNL     1     -43.116  55.930 -53.265  1.00  0.00    -0.232 NA
HETATM    6  C   UNL     1     -43.424  56.845 -54.209  1.00  0.00     0.164 A 
HETATM    7 CL   UNL     1     -44.686  57.907 -53.741  1.00  0.00    -0.059 Cl
HETATM    8  C   UNL     1     -42.783  56.875 -55.438  1.00  0.00     0.165 A 
HETATM    9  N   UNL     1     -41.817  55.978 -55.775  1.00  0.00    -0.234 NA
HETATM   10  C   UNL     1     -41.820  54.057 -52.650  1.00  0.00     0.034 A 
HETATM   11  C   UNL     1     -40.854  53.093 -52.940  1.00  0.00     0.002 A 
ENDROOT
BRANCH   8  12
HETATM   12  S   UNL     1     -43.155  58.046 -56.743  1.00  0.00     0.078 S 
HETATM   13  O   UNL     1     -42.133  57.807 -57.816  1.00  0.00    -0.251 OA
BRANCH  12  14
HETATM   14  C   UNL     1     -44.730  57.382 -57.401  1.00  0.00     0.112 C 
HETATM   15  C   UNL     1     -44.481  56.658 -58.729  1.00  0.00     0.250 C 
HETATM   16  N   UNL     1     -45.786  56.235 -59.344  1.00  0.00    -0.074 N 
HETATM   17  H   UNL     1     -46.237  55.521 -58.754  1.00  0.00     0.277 HD
HETATM   18  H   UNL     1     -45.588  55.765 -60.240  1.00  0.00     0.277 HD
HETATM   19  C   UNL     1     -46.727  57.367 -59.593  1.00  0.00     0.232 C 
HETATM   20  C   UNL     1     -47.004  58.080 -58.279  1.00  0.00     0.029 C 
HETATM   21  C   UNL     1     -45.712  58.546 -57.606  1.00  0.00     0.021 C 
ENDBRANCH  12  14
ENDBRANCH   8  12
TORSDOF 2
ENDMDL
MODEL 8
REMARK VINA RESULT:      -6.2      2.952      4.099
REMARK  2 active torsions:
REMARK  status: ('A' for Active; 'I' for Inactive)
REMARK    1  A    between atoms: C_8  and  S_9 
REMARK    2  A    between atoms: S_9  and  C_10 
ROOT
HETATM    1  C   UNL     1     -40.377  52.936 -51.941  1.00  0.00     0.002 A 
HETATM    2  C   UNL     1     -41.165  54.086 -52.004  1.00  0.00     0.034 A 
HETATM    3  C   UNL     1     -41.621  54.584 -53.219  1.00  0.00     0.087 A 
HETATM    4  C   UNL     1     -41.260  53.908 -54.416  1.00  0.00     0.087 A 
HETATM    5  N   UNL     1     -41.656  54.357 -55.619  1.00  0.00    -0.232 NA
HETATM    6  C   UNL     1     -42.405  55.481 -55.637  1.00  0.00     0.164 A 
HETATM    7 CL   UNL     1     -42.801  56.011 -57.218  1.00  0.00    -0.059 Cl
HETATM    8  C   UNL     1     -42.773  56.133 -54.470  1.00  0.00     0.165 A 
HETATM    9  N   UNL     1     -42.392  55.694 -53.240  1.00  0.00    -0.234 NA
HETATM   10  C   UNL     1     -40.481  52.762 -54.338  1.00  0.00     0.034 A 
HETATM   11  C   UNL     1     -40.037  52.270 -53.111  1.00  0.00     0.002 A 
ENDROOT
BRANCH   8  12
HETATM   12  S   UNL     1     -43.746  57.639 -54.420  1.00  0.00     0.078 S 
HETATM   13  O   UNL     1     -45.182  57.205 -54.483  1.00  0.00    -0.251 OA
BRANCH  12  14
HETATM   14  C   UNL     1     -43.474  58.201 -52.699  1.00  0.00     0.112 C 
HETATM   15  C   UNL     1     -44.804  58.234 -51.939  1.00  0.00     0.250 C 
HETATM   16  N   UNL     1     -44.609  58.829 -50.572  1.00  0.00    -0.074 N 
HETATM   17  H   UNL     1     -44.014  58.210 -50.002  1.00  0.00     0.277 HD
HETATM   18  H   UNL     1     -45.521  58.851 -50.093  1.00  0.00     0.277 HD
HETATM   19  C   UNL     1     -44.044  60.211 -50.593  1.00  0.00     0.232 C 
HETATM   20  C   UNL     1     -42.709  60.189 -51.323  1.00  0.00     0.029 C 
HETATM   21  C   UNL     1     -42.843  59.603 -52.729  1.00  0.00     0.021 C 
ENDBRANCH  12  14
ENDBRANCH   8  12
TORSDOF 2
ENDMDL
MODEL 9
REMARK VINA RESULT:      -6.1      3.780      7.201
REMARK  2 active torsions:
REMARK  status: ('A' for Active; 'I' for Inactive)
REMARK    1  A    between atoms: C_8  and  S_9 
REMARK    2  A    between atoms: S_9  and  C_10 
ROOT
HETATM    1  C   UNL     1     -44.095  55.393 -59.950  1.00  0.00     0.002 A 
HETATM    2  C   UNL     1     -43.572  55.298 -58.659  1.00  0.00     0.034 A 
HETATM    3  C   UNL     1     -43.238  56.433 -57.929  1.00  0.00     0.087 A 
HETATM    4  C   UNL     1     -43.428  57.710 -58.522  1.00  0.00     0.087 A 
HETATM    5  N   UNL     1     -43.104  58.840 -57.869  1.00  0.00    -0.232 NA
HETATM    6  C   UNL     1     -42.586  58.702 -56.629  1.00  0.00     0.164 A 
HETATM    7 CL   UNL     1     -42.142  60.193 -55.907  1.00  0.00    -0.059 Cl
HETATM    8  C   UNL     1     -42.416  57.459 -56.040  1.00  0.00     0.165 A 
HETATM    9  N   UNL     1     -42.744  56.302 -56.677  1.00  0.00    -0.234 NA
HETATM   10  C   UNL     1     -43.955  57.791 -59.803  1.00  0.00     0.034 A 
HETATM   11  C   UNL     1     -44.291  56.644 -60.521  1.00  0.00     0.002 A 
ENDROOT
BRANCH   8  12
HETATM   12  S   UNL     1     -41.716  57.201 -54.409  1.00  0.00     0.078 S 
HETATM   13  O   UNL     1     -42.763  57.658 -53.435  1.00  0.00    -0.251 OA
BRANCH  12  14
HETATM   14  C   UNL     1     -41.698  55.373 -54.296  1.00  0.00     0.112 C 
HETATM   15  C   UNL     1     -41.970  54.933 -52.854  1.00  0.00     0.250 C 
HETATM   16  N   UNL     1     -41.817  53.443 -52.726  1.00  0.00    -0.074 N 
HETATM   17  H   UNL     1     -42.549  52.966 -53.273  1.00  0.00     0.277 HD
HETATM   18  H   UNL     1     -41.990  53.179 -51.745  1.00  0.00     0.277 HD
HETATM   19  C   UNL     1     -40.468  52.942 -53.126  1.00  0.00     0.232 C 
HETATM   20  C   UNL     1     -40.194  53.350 -54.566  1.00  0.00     0.029 C 
HETATM   21  C   UNL     1     -40.325  54.861 -54.759  1.00  0.00     0.021 C 
ENDBRANCH  12  14
ENDBRANCH   8  12
TORSDOF 2
ENDMDL
MODEL 10
REMARK VINA RESULT:      -6.1      3.105      4.004
REMARK  2 active torsions:
REMARK  status: ('A' for Active; 'I' for Inactive)
REMARK    1  A    between atoms: C_8  and  S_9 
REMARK    2  A    between atoms: S_9  and  C_10 
ROOT
HETATM    1  C   UNL     1     -40.145  53.215 -50.618  1.00  0.00     0.002 A 
HETATM    2  C   UNL     1     -41.032  54.249 -50.921  1.00  0.00     0.034 A 
HETATM    3  C   UNL     1     -41.549  54.406 -52.202  1.00  0.00     0.087 A 
HETATM    4  C   UNL     1     -41.152  53.496 -53.217  1.00  0.00     0.087 A 
HETATM    5  N   UNL     1     -41.605  53.612 -54.478  1.00  0.00    -0.232 NA
HETATM    6  C   UNL     1     -42.449  54.636 -54.732  1.00  0.00     0.164 A 
HETATM    7 CL   UNL     1     -42.916  54.741 -56.378  1.00  0.00    -0.059 Cl
HETATM    8  C   UNL     1     -42.853  55.515 -53.739  1.00  0.00     0.165 A 
HETATM    9  N   UNL     1     -42.415  55.413 -52.455  1.00  0.00    -0.234 NA
HETATM   10  C   UNL     1     -40.274  52.468 -52.901  1.00  0.00     0.034 A 
HETATM   11  C   UNL     1     -39.769  52.319 -51.610  1.00  0.00     0.002 A 
ENDROOT
BRANCH   8  12
HETATM   12  S   UNL     1     -43.952  56.906 -54.009  1.00  0.00     0.078 S 
HETATM   13  O   UNL     1     -44.343  57.394 -52.645  1.00  0.00    -0.251 OA
BRANCH  12  14
HETATM   14  C   UNL     1     -42.802  58.166 -54.676  1.00  0.00     0.112 C 
HETATM   15  C   UNL     1     -43.026  59.507 -53.970  1.00  0.00     0.250 C 
HETATM   16  N   UNL     1     -42.185  60.578 -54.609  1.00  0.00    -0.074 N 
HETATM   17  H   UNL     1     -41.186  60.380 -54.453  1.00  0.00     0.277 HD
HETATM   18  H   UNL     1     -42.368  61.469 -54.123  1.00  0.00     0.277 HD
HETATM   19  C   UNL     1     -42.454  60.762 -56.066  1.00  0.00     0.232 C 
HETATM   20  C   UNL     1     -42.211  59.443 -56.785  1.00  0.00     0.029 C 
HETATM   21  C   UNL     1     -43.048  58.312 -56.186  1.00  0.00     0.021 C 
ENDBRANCH  12  14
ENDBRANCH   8  12
TORSDOF 2
ENDMDL
