MODEL 1
REMARK VINA RESULT:      -7.1      0.000      0.000
REMARK  7 active torsions:
REMARK  status: ('A' for Active; 'I' for Inactive)
REMARK    1  A    between atoms: C_5  and  C_6 
REMARK    2  A    between atoms: C_6  and  C_7 
REMARK    3  A    between atoms: C_7  and  N_8 
REMARK       I    between atoms: N_8  and  C_9 
REMARK       I    between atoms: C_9  and  N_10 
REMARK    4  A    between atoms: N_10  and  N_11 
REMARK       I    between atoms: N_11  and  C_12 
REMARK    5  A    between atoms: C_12  and  C_13 
REMARK    6  A    between atoms: C_13  and  O_14 
REMARK    7  A    between atoms: O_14  and  C_15 
ROOT
HETATM    1  N   UNL     1     -44.302  59.278 -50.591  1.00  0.00    -0.341 N 
HETATM    2  C   UNL     1     -45.450  58.553 -50.747  1.00  0.00     0.334 C 
HETATM    3  N   UNL     1     -45.276  57.200 -50.929  1.00  0.00    -0.249 N 
HETATM    4  O   UNL     1     -46.577  59.038 -50.741  1.00  0.00    -0.246 OA
HETATM    5  H   UNL     1     -43.542  58.866 -51.126  1.00  0.00     0.164 HD
HETATM    6  H   UNL     1     -46.139  56.673 -51.009  1.00  0.00     0.192 HD
ENDROOT
BRANCH   3   7
HETATM    7  N   UNL     1     -44.113  56.489 -50.560  1.00  0.00    -0.264 N 
HETATM    8  C   UNL     1     -43.295  55.932 -51.532  1.00  0.00     0.260 C 
HETATM    9  O   UNL     1     -43.342  56.239 -52.724  1.00  0.00    -0.269 OA
HETATM   10  H   UNL     1     -44.130  56.062 -49.637  1.00  0.00     0.190 HD
BRANCH   8  11
HETATM   11  C   UNL     1     -42.250  54.975 -50.978  1.00  0.00     0.280 C 
BRANCH  11  12
HETATM   12  O   UNL     1     -41.080  55.072 -51.787  1.00  0.00    -0.342 OA
BRANCH  12  13
HETATM   13  C   UNL     1     -40.695  53.873 -52.326  1.00  0.00     0.069 A 
HETATM   14  C   UNL     1     -39.959  52.913 -51.629  1.00  0.00     0.038 A 
HETATM   15  C   UNL     1     -39.612  51.712 -52.253  1.00  0.00     0.022 A 
HETATM   16  C   UNL     1     -40.013  51.472 -53.567  1.00  0.00     0.011 A 
HETATM   17 BR   UNL     1     -39.536  49.851 -54.412  1.00  0.00    -0.051 Br
HETATM   18  C   UNL     1     -40.768  52.418 -54.258  1.00  0.00     0.022 A 
HETATM   19  C   UNL     1     -41.117  53.616 -53.631  1.00  0.00     0.038 A 
ENDBRANCH  12  13
ENDBRANCH  11  12
ENDBRANCH   8  11
ENDBRANCH   3   7
BRANCH   1  20
HETATM   20  C   UNL     1     -44.329  60.730 -50.611  1.00  0.00     0.130 C 
BRANCH  20  21
HETATM   21  C   UNL     1     -42.947  61.378 -50.532  1.00  0.00     0.079 C 
BRANCH  21  22
HETATM   22  C   UNL     1     -41.875  60.409 -50.918  1.00  0.00     0.043 A 
HETATM   23  C   UNL     1     -40.800  60.019 -50.143  1.00  0.00     0.078 A 
HETATM   24  S   UNL     1     -39.825  58.907 -51.007  1.00  0.00    -0.085 SA
HETATM   25  C   UNL     1     -40.891  59.032 -52.348  1.00  0.00     0.071 A 
HETATM   26  C   UNL     1     -40.635  58.252 -53.588  1.00  0.00     0.078 C 
HETATM   27  N   UNL     1     -41.917  59.838 -52.181  1.00  0.00    -0.251 NA
ENDBRANCH  21  22
ENDBRANCH  20  21
ENDBRANCH   1  20
TORSDOF 7
ENDMDL
MODEL 2
REMARK VINA RESULT:      -7.1      4.738      5.732
REMARK  7 active torsions:
REMARK  status: ('A' for Active; 'I' for Inactive)
REMARK    1  A    between atoms: C_5  and  C_6 
REMARK    2  A    between atoms: C_6  and  C_7 
REMARK    3  A    between atoms: C_7  and  N_8 
REMARK       I    between atoms: N_8  and  C_9 
REMARK       I    between atoms: C_9  and  N_10 
REMARK    4  A    between atoms: N_10  and  N_11 
REMARK       I    between atoms: N_11  and  C_12 
REMARK    5  A    between atoms: C_12  and  C_13 
REMARK    6  A    between atoms: C_13  and  O_14 
REMARK    7  A    between atoms: O_14  and  C_15 
ROOT
HETATM    1  N   UNL     1     -43.488  57.393 -55.649  1.00  0.00    -0.341 N 
HETATM    2  C   UNL     1     -44.763  57.355 -55.156  1.00  0.00     0.334 C 
HETATM    3  N   UNL     1     -44.996  56.403 -54.189  1.00  0.00    -0.249 N 
HETATM    4  O   UNL     1     -45.668  58.093 -55.529  1.00  0.00    -0.246 OA
HETATM    5  H   UNL     1     -43.076  56.464 -55.649  1.00  0.00     0.164 HD
HETATM    6  H   UNL     1     -45.937  56.411 -53.811  1.00  0.00     0.192 HD
ENDROOT
BRANCH   3   7
HETATM    7  N   UNL     1     -43.987  55.795 -53.409  1.00  0.00    -0.264 N 
HETATM    8  C   UNL     1     -43.545  56.399 -52.242  1.00  0.00     0.260 C 
HETATM    9  O   UNL     1     -44.154  57.300 -51.665  1.00  0.00    -0.269 OA
HETATM   10  H   UNL     1     -43.348  55.184 -53.912  1.00  0.00     0.190 HD
BRANCH   8  11
HETATM   11  C   UNL     1     -42.281  55.775 -51.670  1.00  0.00     0.280 C 
BRANCH  11  12
HETATM   12  O   UNL     1     -41.283  55.774 -52.688  1.00  0.00    -0.342 OA
BRANCH  12  13
HETATM   13  C   UNL     1     -40.912  54.515 -53.079  1.00  0.00     0.069 A 
HETATM   14  C   UNL     1     -40.858  54.105 -54.413  1.00  0.00     0.038 A 
HETATM   15  C   UNL     1     -40.462  52.802 -54.726  1.00  0.00     0.022 A 
HETATM   16  C   UNL     1     -40.112  51.920 -53.705  1.00  0.00     0.011 A 
HETATM   17 BR   UNL     1     -39.585  50.155 -54.131  1.00  0.00    -0.051 Br
HETATM   18  C   UNL     1     -40.142  52.332 -52.375  1.00  0.00     0.022 A 
HETATM   19  C   UNL     1     -40.534  53.636 -52.064  1.00  0.00     0.038 A 
ENDBRANCH  12  13
ENDBRANCH  11  12
ENDBRANCH   8  11
ENDBRANCH   3   7
BRANCH   1  20
HETATM   20  C   UNL     1     -43.165  58.194 -56.817  1.00  0.00     0.130 C 
BRANCH  20  21
HETATM   21  C   UNL     1     -42.479  57.409 -57.935  1.00  0.00     0.079 C 
BRANCH  21  22
HETATM   22  C   UNL     1     -43.482  56.730 -58.812  1.00  0.00     0.043 A 
HETATM   23  C   UNL     1     -43.241  55.685 -59.682  1.00  0.00     0.078 A 
HETATM   24  S   UNL     1     -44.687  55.247 -60.490  1.00  0.00    -0.085 SA
HETATM   25  C   UNL     1     -45.523  56.481 -59.637  1.00  0.00     0.071 A 
HETATM   26  C   UNL     1     -46.978  56.697 -59.861  1.00  0.00     0.078 C 
HETATM   27  N   UNL     1     -44.793  57.180 -58.794  1.00  0.00    -0.251 NA
ENDBRANCH  21  22
ENDBRANCH  20  21
ENDBRANCH   1  20
TORSDOF 7
ENDMDL
MODEL 3
REMARK VINA RESULT:      -6.9      3.706      4.508
REMARK  7 active torsions:
REMARK  status: ('A' for Active; 'I' for Inactive)
REMARK    1  A    between atoms: C_5  and  C_6 
REMARK    2  A    between atoms: C_6  and  C_7 
REMARK    3  A    between atoms: C_7  and  N_8 
REMARK       I    between atoms: N_8  and  C_9 
REMARK       I    between atoms: C_9  and  N_10 
REMARK    4  A    between atoms: N_10  and  N_11 
REMARK       I    between atoms: N_11  and  C_12 
REMARK    5  A    between atoms: C_12  and  C_13 
REMARK    6  A    between atoms: C_13  and  O_14 
REMARK    7  A    between atoms: O_14  and  C_15 
ROOT
HETATM    1  N   UNL     1     -44.069  56.848 -53.064  1.00  0.00    -0.341 N 
HETATM    2  C   UNL     1     -44.470  57.639 -52.024  1.00  0.00     0.334 C 
HETATM    3  N   UNL     1     -43.984  57.283 -50.786  1.00  0.00    -0.249 N 
HETATM    4  O   UNL     1     -45.220  58.603 -52.141  1.00  0.00    -0.246 OA
HETATM    5  H   UNL     1     -43.939  55.888 -52.755  1.00  0.00     0.164 HD
HETATM    6  H   UNL     1     -44.264  57.900 -50.032  1.00  0.00     0.192 HD
ENDROOT
BRANCH   3   7
HETATM    7  N   UNL     1     -42.837  56.484 -50.580  1.00  0.00    -0.264 N 
HETATM    8  C   UNL     1     -42.959  55.110 -50.433  1.00  0.00     0.260 C 
HETATM    9  O   UNL     1     -43.967  54.475 -50.744  1.00  0.00    -0.269 OA
HETATM   10  H   UNL     1     -42.046  56.951 -50.144  1.00  0.00     0.190 HD
BRANCH   8  11
HETATM   11  C   UNL     1     -41.687  54.432 -49.947  1.00  0.00     0.280 C 
BRANCH  11  12
HETATM   12  O   UNL     1     -40.653  54.687 -50.894  1.00  0.00    -0.342 OA
BRANCH  12  13
HETATM   13  C   UNL     1     -40.437  53.642 -51.753  1.00  0.00     0.069 A 
HETATM   14  C   UNL     1     -40.720  53.694 -53.119  1.00  0.00     0.038 A 
HETATM   15  C   UNL     1     -40.464  52.582 -53.927  1.00  0.00     0.022 A 
HETATM   16  C   UNL     1     -39.916  51.430 -53.366  1.00  0.00     0.011 A 
HETATM   17 BR   UNL     1     -39.577  49.925 -54.458  1.00  0.00    -0.051 Br
HETATM   18  C   UNL     1     -39.611  51.382 -52.007  1.00  0.00     0.022 A 
HETATM   19  C   UNL     1     -39.864  52.495 -51.202  1.00  0.00     0.038 A 
ENDBRANCH  12  13
ENDBRANCH  11  12
ENDBRANCH   8  11
ENDBRANCH   3   7
BRANCH   1  20
HETATM   20  C   UNL     1     -44.678  56.977 -54.376  1.00  0.00     0.130 C 
BRANCH  20  21
HETATM   21  C   UNL     1     -43.882  57.853 -55.344  1.00  0.00     0.079 C 
BRANCH  21  22
HETATM   22  C   UNL     1     -43.842  57.247 -56.710  1.00  0.00     0.043 A 
HETATM   23  C   UNL     1     -42.956  56.287 -57.160  1.00  0.00     0.078 A 
HETATM   24  S   UNL     1     -43.277  55.911 -58.800  1.00  0.00    -0.085 SA
HETATM   25  C   UNL     1     -44.559  57.054 -58.798  1.00  0.00     0.071 A 
HETATM   26  C   UNL     1     -45.371  57.276 -60.025  1.00  0.00     0.078 C 
HETATM   27  N   UNL     1     -44.757  57.681 -57.658  1.00  0.00    -0.251 NA
ENDBRANCH  21  22
ENDBRANCH  20  21
ENDBRANCH   1  20
TORSDOF 7
ENDMDL
MODEL 4
REMARK VINA RESULT:      -6.8     16.556     18.627
REMARK  7 active torsions:
REMARK  status: ('A' for Active; 'I' for Inactive)
REMARK    1  A    between atoms: C_5  and  C_6 
REMARK    2  A    between atoms: C_6  and  C_7 
REMARK    3  A    between atoms: C_7  and  N_8 
REMARK       I    between atoms: N_8  and  C_9 
REMARK       I    between atoms: C_9  and  N_10 
REMARK    4  A    between atoms: N_10  and  N_11 
REMARK       I    between atoms: N_11  and  C_12 
REMARK    5  A    between atoms: C_12  and  C_13 
REMARK    6  A    between atoms: C_13  and  O_14 
REMARK    7  A    between atoms: O_14  and  C_15 
ROOT
HETATM    1  N   UNL     1     -33.076  41.061 -52.453  1.00  0.00    -0.341 N 
HETATM    2  C   UNL     1     -34.066  41.394 -51.571  1.00  0.00     0.334 C 
HETATM    3  N   UNL     1     -34.939  42.368 -52.000  1.00  0.00    -0.249 N 
HETATM    4  O   UNL     1     -34.198  40.890 -50.460  1.00  0.00    -0.246 OA
HETATM    5  H   UNL     1     -32.804  41.867 -53.008  1.00  0.00     0.164 HD
HETATM    6  H   UNL     1     -35.687  42.579 -51.348  1.00  0.00     0.192 HD
ENDROOT
BRANCH   3   7
HETATM    7  N   UNL     1     -35.139  42.719 -53.354  1.00  0.00    -0.264 N 
HETATM    8  C   UNL     1     -36.128  42.095 -54.100  1.00  0.00     0.260 C 
HETATM    9  O   UNL     1     -37.049  41.443 -53.606  1.00  0.00    -0.269 OA
HETATM   10  H   UNL     1     -34.326  43.089 -53.840  1.00  0.00     0.190 HD
BRANCH   8  11
HETATM   11  C   UNL     1     -36.038  42.375 -55.592  1.00  0.00     0.280 C 
BRANCH  11  12
HETATM   12  O   UNL     1     -37.358  42.367 -56.130  1.00  0.00    -0.342 OA
BRANCH  12  13
HETATM   13  C   UNL     1     -37.466  41.642 -57.287  1.00  0.00     0.069 A 
HETATM   14  C   UNL     1     -36.960  42.068 -58.517  1.00  0.00     0.038 A 
HETATM   15  C   UNL     1     -37.109  41.262 -59.649  1.00  0.00     0.022 A 
HETATM   16  C   UNL     1     -37.751  40.029 -59.542  1.00  0.00     0.011 A 
HETATM   17 BR   UNL     1     -37.958  38.944 -61.076  1.00  0.00    -0.051 Br
HETATM   18  C   UNL     1     -38.236  39.590 -58.312  1.00  0.00     0.022 A 
HETATM   19  C   UNL     1     -38.083  40.395 -57.181  1.00  0.00     0.038 A 
ENDBRANCH  12  13
ENDBRANCH  11  12
ENDBRANCH   8  11
ENDBRANCH   3   7
BRANCH   1  20
HETATM   20  C   UNL     1     -31.969  40.213 -52.044  1.00  0.00     0.130 C 
BRANCH  20  21
HETATM   21  C   UNL     1     -31.907  38.877 -52.782  1.00  0.00     0.079 C 
BRANCH  21  22
HETATM   22  C   UNL     1     -32.086  39.065 -54.255  1.00  0.00     0.043 A 
HETATM   23  C   UNL     1     -31.087  39.277 -55.185  1.00  0.00     0.078 A 
HETATM   24  S   UNL     1     -31.766  39.455 -56.747  1.00  0.00    -0.085 SA
HETATM   25  C   UNL     1     -33.334  39.249 -56.076  1.00  0.00     0.071 A 
HETATM   26  C   UNL     1     -34.537  39.288 -56.950  1.00  0.00     0.078 C 
HETATM   27  N   UNL     1     -33.371  39.052 -54.776  1.00  0.00    -0.251 NA
ENDBRANCH  21  22
ENDBRANCH  20  21
ENDBRANCH   1  20
TORSDOF 7
ENDMDL
MODEL 5
REMARK VINA RESULT:      -6.8      2.927      3.980
REMARK  7 active torsions:
REMARK  status: ('A' for Active; 'I' for Inactive)
REMARK    1  A    between atoms: C_5  and  C_6 
REMARK    2  A    between atoms: C_6  and  C_7 
REMARK    3  A    between atoms: C_7  and  N_8 
REMARK       I    between atoms: N_8  and  C_9 
REMARK       I    between atoms: C_9  and  N_10 
REMARK    4  A    between atoms: N_10  and  N_11 
REMARK       I    between atoms: N_11  and  C_12 
REMARK    5  A    between atoms: C_12  and  C_13 
REMARK    6  A    between atoms: C_13  and  O_14 
REMARK    7  A    between atoms: O_14  and  C_15 
ROOT
HETATM    1  N   UNL     1     -43.229  58.890 -53.198  1.00  0.00    -0.341 N 
HETATM    2  C   UNL     1     -42.887  59.602 -52.082  1.00  0.00     0.334 C 
HETATM    3  N   UNL     1     -42.958  58.912 -50.893  1.00  0.00    -0.249 N 
HETATM    4  O   UNL     1     -42.545  60.780 -52.095  1.00  0.00    -0.246 OA
HETATM    5  H   UNL     1     -43.943  58.201 -52.978  1.00  0.00     0.164 HD
HETATM    6  H   UNL     1     -42.669  59.445 -50.080  1.00  0.00     0.192 HD
ENDROOT
BRANCH   3   7
HETATM    7  N   UNL     1     -42.939  57.503 -50.787  1.00  0.00    -0.264 N 
HETATM    8  C   UNL     1     -41.732  56.819 -50.758  1.00  0.00     0.260 C 
HETATM    9  O   UNL     1     -40.647  57.357 -50.536  1.00  0.00    -0.269 OA
HETATM   10  H   UNL     1     -43.761  57.022 -51.144  1.00  0.00     0.190 HD
BRANCH   8  11
HETATM   11  C   UNL     1     -41.878  55.314 -50.921  1.00  0.00     0.280 C 
BRANCH  11  12
HETATM   12  O   UNL     1     -40.587  54.723 -50.794  1.00  0.00    -0.342 OA
BRANCH  12  13
HETATM   13  C   UNL     1     -40.383  53.680 -51.659  1.00  0.00     0.069 A 
HETATM   14  C   UNL     1     -40.659  53.745 -53.026  1.00  0.00     0.038 A 
HETATM   15  C   UNL     1     -40.415  52.635 -53.839  1.00  0.00     0.022 A 
HETATM   16  C   UNL     1     -39.887  51.471 -53.283  1.00  0.00     0.011 A 
HETATM   17 BR   UNL     1     -39.566  49.968 -54.384  1.00  0.00    -0.051 Br
HETATM   18  C   UNL     1     -39.589  51.410 -51.923  1.00  0.00     0.022 A 
HETATM   19  C   UNL     1     -39.829  52.522 -51.113  1.00  0.00     0.038 A 
ENDBRANCH  12  13
ENDBRANCH  11  12
ENDBRANCH   8  11
ENDBRANCH   3   7
BRANCH   1  20
HETATM   20  C   UNL     1     -43.408  59.552 -54.478  1.00  0.00     0.130 C 
BRANCH  20  21
HETATM   21  C   UNL     1     -42.307  59.247 -55.493  1.00  0.00     0.079 C 
BRANCH  21  22
HETATM   22  C   UNL     1     -42.571  57.958 -56.203  1.00  0.00     0.043 A 
HETATM   23  C   UNL     1     -42.743  57.787 -57.563  1.00  0.00     0.078 A 
HETATM   24  S   UNL     1     -43.040  56.138 -57.917  1.00  0.00    -0.085 SA
HETATM   25  C   UNL     1     -42.930  55.772 -56.242  1.00  0.00     0.071 A 
HETATM   26  C   UNL     1     -43.101  54.373 -55.765  1.00  0.00     0.078 C 
HETATM   27  N   UNL     1     -42.681  56.796 -55.454  1.00  0.00    -0.251 NA
ENDBRANCH  21  22
ENDBRANCH  20  21
ENDBRANCH   1  20
TORSDOF 7
ENDMDL
MODEL 6
REMARK VINA RESULT:      -6.8      2.127      3.002
REMARK  7 active torsions:
REMARK  status: ('A' for Active; 'I' for Inactive)
REMARK    1  A    between atoms: C_5  and  C_6 
REMARK    2  A    between atoms: C_6  and  C_7 
REMARK    3  A    between atoms: C_7  and  N_8 
REMARK       I    between atoms: N_8  and  C_9 
REMARK       I    between atoms: C_9  and  N_10 
REMARK    4  A    between atoms: N_10  and  N_11 
REMARK       I    between atoms: N_11  and  C_12 
REMARK    5  A    between atoms: C_12  and  C_13 
REMARK    6  A    between atoms: C_13  and  O_14 
REMARK    7  A    between atoms: O_14  and  C_15 
ROOT
HETATM    1  N   UNL     1     -42.992  57.642 -55.050  1.00  0.00    -0.341 N 
HETATM    2  C   UNL     1     -44.322  57.583 -54.737  1.00  0.00     0.334 C 
HETATM    3  N   UNL     1     -44.696  56.531 -53.933  1.00  0.00    -0.249 N 
HETATM    4  O   UNL     1     -45.159  58.387 -55.135  1.00  0.00    -0.246 OA
HETATM    5  H   UNL     1     -42.597  56.708 -55.110  1.00  0.00     0.164 HD
HETATM    6  H   UNL     1     -45.679  56.522 -53.683  1.00  0.00     0.192 HD
ENDROOT
BRANCH   3   7
HETATM    7  N   UNL     1     -43.809  55.805 -53.106  1.00  0.00    -0.264 N 
HETATM    8  C   UNL     1     -43.421  56.316 -51.876  1.00  0.00     0.260 C 
HETATM    9  O   UNL     1     -44.004  57.237 -51.304  1.00  0.00    -0.269 OA
HETATM   10  H   UNL     1     -43.180  55.167 -53.587  1.00  0.00     0.190 HD
BRANCH   8  11
HETATM   11  C   UNL     1     -42.265  55.562 -51.238  1.00  0.00     0.280 C 
BRANCH  11  12
HETATM   12  O   UNL     1     -41.149  55.619 -52.123  1.00  0.00    -0.342 OA
BRANCH  12  13
HETATM   13  C   UNL     1     -40.813  54.400 -52.650  1.00  0.00     0.069 A 
HETATM   14  C   UNL     1     -40.863  54.108 -54.014  1.00  0.00     0.038 A 
HETATM   15  C   UNL     1     -40.497  52.837 -54.468  1.00  0.00     0.022 A 
HETATM   16  C   UNL     1     -40.073  51.871 -53.557  1.00  0.00     0.011 A 
HETATM   17 BR   UNL     1     -39.586  50.152 -54.172  1.00  0.00    -0.051 Br
HETATM   18  C   UNL     1     -40.000  52.167 -52.197  1.00  0.00     0.022 A 
HETATM   19  C   UNL     1     -40.362  53.438 -51.746  1.00  0.00     0.038 A 
ENDBRANCH  12  13
ENDBRANCH  11  12
ENDBRANCH   8  11
ENDBRANCH   3   7
BRANCH   1  20
HETATM   20  C   UNL     1     -42.505  58.565 -56.060  1.00  0.00     0.130 C 
BRANCH  20  21
HETATM   21  C   UNL     1     -42.175  59.956 -55.520  1.00  0.00     0.079 C 
BRANCH  21  22
HETATM   22  C   UNL     1     -42.022  59.935 -54.033  1.00  0.00     0.043 A 
HETATM   23  C   UNL     1     -42.876  60.506 -53.110  1.00  0.00     0.078 A 
HETATM   24  S   UNL     1     -42.287  60.245 -51.522  1.00  0.00    -0.085 SA
HETATM   25  C   UNL     1     -40.938  59.405 -52.175  1.00  0.00     0.071 A 
HETATM   26  C   UNL     1     -39.900  58.834 -51.275  1.00  0.00     0.078 C 
HETATM   27  N   UNL     1     -40.913  59.307 -53.487  1.00  0.00    -0.251 NA
ENDBRANCH  21  22
ENDBRANCH  20  21
ENDBRANCH   1  20
TORSDOF 7
ENDMDL
MODEL 7
REMARK VINA RESULT:      -6.7      2.771      3.907
REMARK  7 active torsions:
REMARK  status: ('A' for Active; 'I' for Inactive)
REMARK    1  A    between atoms: C_5  and  C_6 
REMARK    2  A    between atoms: C_6  and  C_7 
REMARK    3  A    between atoms: C_7  and  N_8 
REMARK       I    between atoms: N_8  and  C_9 
REMARK       I    between atoms: C_9  and  N_10 
REMARK    4  A    between atoms: N_10  and  N_11 
REMARK       I    between atoms: N_11  and  C_12 
REMARK    5  A    between atoms: C_12  and  C_13 
REMARK    6  A    between atoms: C_13  and  O_14 
REMARK    7  A    between atoms: O_14  and  C_15 
ROOT
HETATM    1  N   UNL     1     -44.443  59.521 -50.634  1.00  0.00    -0.341 N 
HETATM    2  C   UNL     1     -45.359  58.509 -50.700  1.00  0.00     0.334 C 
HETATM    3  N   UNL     1     -44.865  57.288 -51.098  1.00  0.00    -0.249 N 
HETATM    4  O   UNL     1     -46.551  58.641 -50.440  1.00  0.00    -0.246 OA
HETATM    5  H   UNL     1     -43.722  59.398 -51.340  1.00  0.00     0.164 HD
HETATM    6  H   UNL     1     -45.551  56.541 -51.109  1.00  0.00     0.192 HD
ENDROOT
BRANCH   3   7
HETATM    7  N   UNL     1     -43.504  56.918 -51.031  1.00  0.00    -0.264 N 
HETATM    8  C   UNL     1     -42.666  57.129 -52.117  1.00  0.00     0.260 C 
HETATM    9  O   UNL     1     -42.941  57.874 -53.057  1.00  0.00    -0.269 OA
HETATM   10  H   UNL     1     -43.282  56.163 -50.387  1.00  0.00     0.190 HD
BRANCH   8  11
HETATM   11  C   UNL     1     -41.319  56.434 -51.994  1.00  0.00     0.280 C 
BRANCH  11  12
HETATM   12  O   UNL     1     -41.494  55.249 -51.222  1.00  0.00    -0.342 OA
BRANCH  12  13
HETATM   13  C   UNL     1     -41.021  54.124 -51.843  1.00  0.00     0.069 A 
HETATM   14  C   UNL     1     -40.181  53.195 -51.224  1.00  0.00     0.038 A 
HETATM   15  C   UNL     1     -39.749  52.069 -51.930  1.00  0.00     0.022 A 
HETATM   16  C   UNL     1     -40.167  51.872 -53.245  1.00  0.00     0.011 A 
HETATM   17 BR   UNL     1     -39.574  50.352 -54.200  1.00  0.00    -0.051 Br
HETATM   18  C   UNL     1     -41.024  52.784 -53.858  1.00  0.00     0.022 A 
HETATM   19  C   UNL     1     -41.459  53.907 -53.150  1.00  0.00     0.038 A 
ENDBRANCH  12  13
ENDBRANCH  11  12
ENDBRANCH   8  11
ENDBRANCH   3   7
BRANCH   1  20
HETATM   20  C   UNL     1     -44.865  60.898 -50.443  1.00  0.00     0.130 C 
BRANCH  20  21
HETATM   21  C   UNL     1     -44.271  61.561 -49.201  1.00  0.00     0.079 C 
BRANCH  21  22
HETATM   22  C   UNL     1     -45.240  61.539 -48.062  1.00  0.00     0.043 A 
HETATM   23  C   UNL     1     -45.777  62.636 -47.416  1.00  0.00     0.078 A 
HETATM   24  S   UNL     1     -46.825  62.125 -46.160  1.00  0.00    -0.085 SA
HETATM   25  C   UNL     1     -46.482  60.489 -46.557  1.00  0.00     0.071 A 
HETATM   26  C   UNL     1     -47.117  59.381 -45.794  1.00  0.00     0.078 C 
HETATM   27  N   UNL     1     -45.650  60.313 -47.561  1.00  0.00    -0.251 NA
ENDBRANCH  21  22
ENDBRANCH  20  21
ENDBRANCH   1  20
TORSDOF 7
ENDMDL
MODEL 8
REMARK VINA RESULT:      -6.6      2.867      4.137
REMARK  7 active torsions:
REMARK  status: ('A' for Active; 'I' for Inactive)
REMARK    1  A    between atoms: C_5  and  C_6 
REMARK    2  A    between atoms: C_6  and  C_7 
REMARK    3  A    between atoms: C_7  and  N_8 
REMARK       I    between atoms: N_8  and  C_9 
REMARK       I    between atoms: C_9  and  N_10 
REMARK    4  A    between atoms: N_10  and  N_11 
REMARK       I    between atoms: N_11  and  C_12 
REMARK    5  A    between atoms: C_12  and  C_13 
REMARK    6  A    between atoms: C_13  and  O_14 
REMARK    7  A    between atoms: O_14  and  C_15 
ROOT
HETATM    1  N   UNL     1     -42.940  59.917 -50.359  1.00  0.00    -0.341 N 
HETATM    2  C   UNL     1     -41.600  59.688 -50.222  1.00  0.00     0.334 C 
HETATM    3  N   UNL     1     -41.231  58.365 -50.129  1.00  0.00    -0.249 N 
HETATM    4  O   UNL     1     -40.751  60.572 -50.171  1.00  0.00    -0.246 OA
HETATM    5  H   UNL     1     -43.477  59.207 -49.869  1.00  0.00     0.164 HD
HETATM    6  H   UNL     1     -40.231  58.211 -50.061  1.00  0.00     0.192 HD
ENDROOT
BRANCH   3   7
HETATM    7  N   UNL     1     -42.026  57.283 -50.569  1.00  0.00    -0.264 N 
HETATM    8  C   UNL     1     -41.818  56.009 -50.060  1.00  0.00     0.260 C 
HETATM    9  O   UNL     1     -41.172  55.778 -49.038  1.00  0.00    -0.269 OA
HETATM   10  H   UNL     1     -42.420  57.375 -51.502  1.00  0.00     0.190 HD
BRANCH   8  11
HETATM   11  C   UNL     1     -42.552  54.918 -50.824  1.00  0.00     0.280 C 
BRANCH  11  12
HETATM   12  O   UNL     1     -42.157  54.985 -52.192  1.00  0.00    -0.342 OA
BRANCH  12  13
HETATM   13  C   UNL     1     -41.482  53.871 -52.616  1.00  0.00     0.069 A 
HETATM   14  C   UNL     1     -40.530  53.204 -51.842  1.00  0.00     0.038 A 
HETATM   15  C   UNL     1     -39.891  52.069 -52.349  1.00  0.00     0.022 A 
HETATM   16  C   UNL     1     -40.217  51.601 -53.621  1.00  0.00     0.011 A 
HETATM   17 BR   UNL     1     -39.346  50.070 -54.307  1.00  0.00    -0.051 Br
HETATM   18  C   UNL     1     -41.183  52.250 -54.387  1.00  0.00     0.022 A 
HETATM   19  C   UNL     1     -41.823  53.382 -53.877  1.00  0.00     0.038 A 
ENDBRANCH  12  13
ENDBRANCH  11  12
ENDBRANCH   8  11
ENDBRANCH   3   7
BRANCH   1  20
HETATM   20  C   UNL     1     -43.482  61.260 -50.249  1.00  0.00     0.130 C 
BRANCH  20  21
HETATM   21  C   UNL     1     -44.981  61.302 -49.956  1.00  0.00     0.079 C 
BRANCH  21  22
HETATM   22  C   UNL     1     -45.247  61.200 -48.488  1.00  0.00     0.043 A 
HETATM   23  C   UNL     1     -44.855  62.100 -47.516  1.00  0.00     0.078 A 
HETATM   24  S   UNL     1     -45.366  61.559 -45.973  1.00  0.00    -0.085 SA
HETATM   25  C   UNL     1     -46.059  60.168 -46.703  1.00  0.00     0.071 A 
HETATM   26  C   UNL     1     -46.753  59.148 -45.872  1.00  0.00     0.078 C 
HETATM   27  N   UNL     1     -45.936  60.095 -48.011  1.00  0.00    -0.251 NA
ENDBRANCH  21  22
ENDBRANCH  20  21
ENDBRANCH   1  20
TORSDOF 7
ENDMDL
MODEL 9
REMARK VINA RESULT:      -6.6      6.465      7.510
REMARK  7 active torsions:
REMARK  status: ('A' for Active; 'I' for Inactive)
REMARK    1  A    between atoms: C_5  and  C_6 
REMARK    2  A    between atoms: C_6  and  C_7 
REMARK    3  A    between atoms: C_7  and  N_8 
REMARK       I    between atoms: N_8  and  C_9 
REMARK       I    between atoms: C_9  and  N_10 
REMARK    4  A    between atoms: N_10  and  N_11 
REMARK       I    between atoms: N_11  and  C_12 
REMARK    5  A    between atoms: C_12  and  C_13 
REMARK    6  A    between atoms: C_13  and  O_14 
REMARK    7  A    between atoms: O_14  and  C_15 
ROOT
HETATM    1  N   UNL     1     -45.870  55.793 -59.607  1.00  0.00    -0.341 N 
HETATM    2  C   UNL     1     -44.754  55.329 -60.246  1.00  0.00     0.334 C 
HETATM    3  N   UNL     1     -43.623  55.232 -59.468  1.00  0.00    -0.249 N 
HETATM    4  O   UNL     1     -44.718  55.020 -61.433  1.00  0.00    -0.246 OA
HETATM    5  H   UNL     1     -45.617  56.456 -58.880  1.00  0.00     0.164 HD
HETATM    6  H   UNL     1     -42.813  54.855 -59.949  1.00  0.00     0.192 HD
ENDROOT
BRANCH   3   7
HETATM    7  N   UNL     1     -43.629  55.165 -58.057  1.00  0.00    -0.264 N 
HETATM    8  C   UNL     1     -42.965  56.125 -57.307  1.00  0.00     0.260 C 
HETATM    9  O   UNL     1     -42.591  57.207 -57.759  1.00  0.00    -0.269 OA
HETATM   10  H   UNL     1     -43.751  54.237 -57.659  1.00  0.00     0.190 HD
BRANCH   8  11
HETATM   11  C   UNL     1     -42.831  55.767 -55.835  1.00  0.00     0.280 C 
BRANCH  11  12
HETATM   12  O   UNL     1     -42.663  54.355 -55.731  1.00  0.00    -0.342 OA
BRANCH  12  13
HETATM   13  C   UNL     1     -42.086  53.964 -54.552  1.00  0.00     0.069 A 
HETATM   14  C   UNL     1     -40.891  53.245 -54.478  1.00  0.00     0.038 A 
HETATM   15  C   UNL     1     -40.368  52.891 -53.231  1.00  0.00     0.022 A 
HETATM   16  C   UNL     1     -41.035  53.268 -52.067  1.00  0.00     0.011 A 
HETATM   17 BR   UNL     1     -40.329  52.781 -50.382  1.00  0.00    -0.051 Br
HETATM   18  C   UNL     1     -42.215  54.005 -52.136  1.00  0.00     0.022 A 
HETATM   19  C   UNL     1     -42.735  54.362 -53.383  1.00  0.00     0.038 A 
ENDBRANCH  12  13
ENDBRANCH  11  12
ENDBRANCH   8  11
ENDBRANCH   3   7
BRANCH   1  20
HETATM   20  C   UNL     1     -47.063  56.148 -60.356  1.00  0.00     0.130 C 
BRANCH  20  21
HETATM   21  C   UNL     1     -47.139  57.627 -60.734  1.00  0.00     0.079 C 
BRANCH  21  22
HETATM   22  C   UNL     1     -46.228  58.450 -59.880  1.00  0.00     0.043 A 
HETATM   23  C   UNL     1     -45.172  59.228 -60.314  1.00  0.00     0.078 A 
HETATM   24  S   UNL     1     -44.402  59.973 -58.977  1.00  0.00    -0.085 SA
HETATM   25  C   UNL     1     -45.516  59.202 -57.921  1.00  0.00     0.071 A 
HETATM   26  C   UNL     1     -45.435  59.422 -56.452  1.00  0.00     0.078 C 
HETATM   27  N   UNL     1     -46.415  58.441 -58.506  1.00  0.00    -0.251 NA
ENDBRANCH  21  22
ENDBRANCH  20  21
ENDBRANCH   1  20
TORSDOF 7
ENDMDL
MODEL 10
REMARK VINA RESULT:      -6.5      4.093      7.262
REMARK  7 active torsions:
REMARK  status: ('A' for Active; 'I' for Inactive)
REMARK    1  A    between atoms: C_5  and  C_6 
REMARK    2  A    between atoms: C_6  and  C_7 
REMARK    3  A    between atoms: C_7  and  N_8 
REMARK       I    between atoms: N_8  and  C_9 
REMARK       I    between atoms: C_9  and  N_10 
REMARK    4  A    between atoms: N_10  and  N_11 
REMARK       I    between atoms: N_11  and  C_12 
REMARK    5  A    between atoms: C_12  and  C_13 
REMARK    6  A    between atoms: C_13  and  O_14 
REMARK    7  A    between atoms: O_14  and  C_15 
ROOT
HETATM    1  N   UNL     1     -39.915  52.262 -51.997  1.00  0.00    -0.341 N 
HETATM    2  C   UNL     1     -40.108  51.913 -50.689  1.00  0.00     0.334 C 
HETATM    3  N   UNL     1     -40.204  52.962 -49.803  1.00  0.00    -0.249 N 
HETATM    4  O   UNL     1     -40.185  50.756 -50.289  1.00  0.00    -0.246 OA
HETATM    5  H   UNL     1     -39.371  53.118 -52.063  1.00  0.00     0.164 HD
HETATM    6  H   UNL     1     -40.380  52.687 -48.843  1.00  0.00     0.192 HD
ENDROOT
BRANCH   3   7
HETATM    7  N   UNL     1     -40.531  54.287 -50.169  1.00  0.00    -0.264 N 
HETATM    8  C   UNL     1     -41.078  55.156 -49.237  1.00  0.00     0.260 C 
HETATM    9  O   UNL     1     -41.053  54.960 -48.022  1.00  0.00    -0.269 OA
HETATM   10  H   UNL     1     -40.742  54.435 -51.153  1.00  0.00     0.190 HD
BRANCH   8  11
HETATM   11  C   UNL     1     -41.626  56.439 -49.844  1.00  0.00     0.280 C 
BRANCH  11  12
HETATM   12  O   UNL     1     -40.645  56.969 -50.732  1.00  0.00    -0.342 OA
BRANCH  12  13
HETATM   13  C   UNL     1     -41.147  57.906 -51.595  1.00  0.00     0.069 A 
HETATM   14  C   UNL     1     -40.515  58.280 -52.783  1.00  0.00     0.038 A 
HETATM   15  C   UNL     1     -41.101  59.242 -53.611  1.00  0.00     0.022 A 
HETATM   16  C   UNL     1     -42.320  59.815 -53.253  1.00  0.00     0.011 A 
HETATM   17 BR   UNL     1     -43.106  61.121 -54.371  1.00  0.00    -0.051 Br
HETATM   18  C   UNL     1     -42.965  59.427 -52.081  1.00  0.00     0.022 A 
HETATM   19  C   UNL     1     -42.381  58.463 -51.256  1.00  0.00     0.038 A 
ENDBRANCH  12  13
ENDBRANCH  11  12
ENDBRANCH   8  11
ENDBRANCH   3   7
BRANCH   1  20
HETATM   20  C   UNL     1     -39.581  51.261 -52.994  1.00  0.00     0.130 C 
BRANCH  20  21
HETATM   21  C   UNL     1     -40.251  51.486 -54.348  1.00  0.00     0.079 C 
BRANCH  21  22
HETATM   22  C   UNL     1     -40.751  52.890 -54.476  1.00  0.00     0.043 A 
HETATM   23  C   UNL     1     -40.152  53.917 -55.177  1.00  0.00     0.078 A 
HETATM   24  S   UNL     1     -41.074  55.352 -55.023  1.00  0.00    -0.085 SA
HETATM   25  C   UNL     1     -42.195  54.511 -54.030  1.00  0.00     0.071 A 
HETATM   26  C   UNL     1     -43.384  55.212 -53.477  1.00  0.00     0.078 C 
HETATM   27  N   UNL     1     -41.922  53.241 -53.820  1.00  0.00    -0.251 NA
ENDBRANCH  21  22
ENDBRANCH  20  21
ENDBRANCH   1  20
TORSDOF 7
ENDMDL
