MODEL 1
REMARK VINA RESULT:      -8.5      0.000      0.000
REMARK  12 active torsions:
REMARK  status: ('A' for Active; 'I' for Inactive)
REMARK    1  A    between atoms: C_3  and  O_4 
REMARK    2  A    between atoms: C_8  and  C_9 
REMARK       I    between atoms: C_9  and  N_10 
REMARK    3  A    between atoms: N_10  and  C_11 
REMARK    4  A    between atoms: C_11  and  C_33 
REMARK    5  A    between atoms: C_11  and  C_12 
REMARK    6  A    between atoms: C_12  and  O_13 
REMARK    7  A    between atoms: C_12  and  C_14 
REMARK    8  A    between atoms: C_14  and  N_15 
REMARK    9  A    between atoms: C_17  and  C_18 
REMARK       I    between atoms: C_18  and  N_19 
REMARK   10  A    between atoms: N_19  and  C_20 
REMARK   11  A    between atoms: C_33  and  S_34 
REMARK   12  A    between atoms: S_34  and  C_35 
ROOT
HETATM    1  C   UNL     1     -43.848  56.171 -54.019  1.00  0.00     0.167 C 
ENDROOT
BRANCH   1   2
HETATM    2  C   UNL     1     -42.652  55.630 -54.869  1.00  0.00     0.124 C 
BRANCH   2   3
HETATM    3  N   UNL     1     -42.112  54.395 -54.271  1.00  0.00    -0.349 N 
HETATM    4  C   UNL     1     -40.765  54.103 -54.320  1.00  0.00     0.252 C 
HETATM    5  O   UNL     1     -39.939  54.893 -54.761  1.00  0.00    -0.268 OA
HETATM    6  H   UNL     1     -42.751  53.647 -54.015  1.00  0.00     0.163 HD
BRANCH   4   7
HETATM    7  C   UNL     1     -40.374  52.764 -53.805  1.00  0.00     0.040 A 
HETATM    8  C   UNL     1     -40.156  52.545 -52.427  1.00  0.00    -0.013 A 
HETATM    9  C   UNL     1     -40.261  53.667 -51.430  1.00  0.00     0.052 C 
HETATM   10  C   UNL     1     -39.852  51.236 -52.022  1.00  0.00     0.072 A 
HETATM   11  C   UNL     1     -39.712  50.199 -52.946  1.00  0.00     0.037 A 
HETATM   12  C   UNL     1     -39.911  50.436 -54.302  1.00  0.00     0.004 A 
HETATM   13  C   UNL     1     -40.253  51.714 -54.732  1.00  0.00     0.018 A 
BRANCH  10  14
HETATM   14  O   UNL     1     -39.671  50.880 -50.716  1.00  0.00    -0.360 OA
HETATM   15  H   UNL     1     -40.516  50.914 -50.241  1.00  0.00     0.217 HD
ENDBRANCH  10  14
ENDBRANCH   4   7
ENDBRANCH   2   3
BRANCH   2  16
HETATM   16  C   UNL     1     -42.973  55.369 -56.350  1.00  0.00     0.107 C 
BRANCH  16  17
HETATM   17  S   UNL     1     -42.870  56.892 -57.353  1.00  0.00    -0.128 SA
BRANCH  17  18
HETATM   18  C   UNL     1     -44.019  56.434 -58.639  1.00  0.00     0.000 A 
HETATM   19  C   UNL     1     -43.793  55.282 -59.396  1.00  0.00     0.018 A 
HETATM   20  C   UNL     1     -44.676  54.931 -60.419  1.00  0.00     0.001 A 
HETATM   21  C   UNL     1     -45.791  55.726 -60.684  1.00  0.00     0.000 A 
HETATM   22  C   UNL     1     -46.028  56.868 -59.922  1.00  0.00     0.001 A 
HETATM   23  C   UNL     1     -45.146  57.220 -58.899  1.00  0.00     0.018 A 
ENDBRANCH  17  18
ENDBRANCH  16  17
ENDBRANCH   2  16
ENDBRANCH   1   2
BRANCH   1  24
HETATM   24  O   UNL     1     -45.158  55.785 -54.474  1.00  0.00    -0.392 OA
HETATM   25  H   UNL     1     -45.797  56.490 -54.226  1.00  0.00     0.210 HD
ENDBRANCH   1  24
BRANCH   1  26
HETATM   26  C   UNL     1     -43.838  57.711 -53.898  1.00  0.00     0.269 C 
BRANCH  26  27
HETATM   27  N   UNL     1     -44.246  58.086 -52.466  1.00  0.00    -0.055 N 
HETATM   28  H   UNL     1     -45.259  57.851 -52.490  1.00  0.00     0.281 HD
HETATM   29  C   UNL     1     -44.217  59.580 -52.119  1.00  0.00     0.279 C 
HETATM   30  C   UNL     1     -42.758  60.006 -51.998  1.00  0.00     0.048 C 
HETATM   31  C   UNL     1     -42.057  59.217 -50.879  1.00  0.00    -0.006 C 
HETATM   32  C   UNL     1     -42.212  57.688 -51.003  1.00  0.00     0.016 C 
HETATM   33  C   UNL     1     -40.581  59.596 -50.730  1.00  0.00     0.005 C 
HETATM   34  C   UNL     1     -43.635  57.245 -51.385  1.00  0.00     0.241 C 
HETATM   35  C   UNL     1     -41.092  57.007 -51.818  1.00  0.00     0.007 C 
HETATM   36  C   UNL     1     -40.236  57.946 -52.663  1.00  0.00     0.000 C 
HETATM   37  C   UNL     1     -39.704  59.151 -51.896  1.00  0.00     0.000 C 
BRANCH  29  38
HETATM   38  C   UNL     1     -45.116  60.414 -53.066  1.00  0.00     0.249 C 
HETATM   39  N   UNL     1     -44.472  61.170 -54.019  1.00  0.00    -0.351 N 
HETATM   40  H   UNL     1     -43.474  61.312 -53.925  1.00  0.00     0.163 HD
HETATM   41  O   UNL     1     -46.336  60.403 -52.896  1.00  0.00    -0.271 OA
BRANCH  39  42
HETATM   42  C   UNL     1     -45.129  62.130 -54.933  1.00  0.00     0.022 C 
HETATM   43  C   UNL     1     -45.840  63.221 -54.122  1.00  0.00     0.037 C 
HETATM   44  C   UNL     1     -44.030  62.785 -55.791  1.00  0.00     0.037 C 
HETATM   45  C   UNL     1     -46.122  61.438 -55.880  1.00  0.00     0.037 C 
ENDBRANCH  39  42
ENDBRANCH  29  38
ENDBRANCH  26  27
ENDBRANCH   1  26
TORSDOF 12
ENDMDL
MODEL 2
REMARK VINA RESULT:      -8.3      2.246      6.157
REMARK  12 active torsions:
REMARK  status: ('A' for Active; 'I' for Inactive)
REMARK    1  A    between atoms: C_3  and  O_4 
REMARK    2  A    between atoms: C_8  and  C_9 
REMARK       I    between atoms: C_9  and  N_10 
REMARK    3  A    between atoms: N_10  and  C_11 
REMARK    4  A    between atoms: C_11  and  C_33 
REMARK    5  A    between atoms: C_11  and  C_12 
REMARK    6  A    between atoms: C_12  and  O_13 
REMARK    7  A    between atoms: C_12  and  C_14 
REMARK    8  A    between atoms: C_14  and  N_15 
REMARK    9  A    between atoms: C_17  and  C_18 
REMARK       I    between atoms: C_18  and  N_19 
REMARK   10  A    between atoms: N_19  and  C_20 
REMARK   11  A    between atoms: C_33  and  S_34 
REMARK   12  A    between atoms: S_34  and  C_35 
ROOT
HETATM    1  C   UNL     1     -41.791  58.510 -55.962  1.00  0.00     0.167 C 
ENDROOT
BRANCH   1   2
HETATM    2  C   UNL     1     -41.887  58.121 -54.450  1.00  0.00     0.124 C 
BRANCH   2   3
HETATM    3  N   UNL     1     -41.269  56.803 -54.217  1.00  0.00    -0.349 N 
HETATM    4  C   UNL     1     -42.037  55.685 -53.964  1.00  0.00     0.252 C 
HETATM    5  O   UNL     1     -43.260  55.702 -54.026  1.00  0.00    -0.268 OA
HETATM    6  H   UNL     1     -40.273  56.749 -54.020  1.00  0.00     0.163 HD
BRANCH   4   7
HETATM    7  C   UNL     1     -41.286  54.452 -53.608  1.00  0.00     0.040 A 
HETATM    8  C   UNL     1     -41.090  54.076 -52.261  1.00  0.00    -0.013 A 
HETATM    9  C   UNL     1     -41.590  54.933 -51.130  1.00  0.00     0.052 C 
HETATM   10  C   UNL     1     -40.425  52.865 -52.020  1.00  0.00     0.072 A 
HETATM   11  C   UNL     1     -39.922  52.086 -53.063  1.00  0.00     0.037 A 
HETATM   12  C   UNL     1     -40.106  52.480 -54.384  1.00  0.00     0.004 A 
HETATM   13  C   UNL     1     -40.796  53.656 -54.659  1.00  0.00     0.018 A 
BRANCH  10  14
HETATM   14  O   UNL     1     -40.219  52.362 -50.767  1.00  0.00    -0.360 OA
HETATM   15  H   UNL     1     -40.136  53.085 -50.126  1.00  0.00     0.217 HD
ENDBRANCH  10  14
ENDBRANCH   4   7
ENDBRANCH   2   3
BRANCH   2  16
HETATM   16  C   UNL     1     -41.273  59.141 -53.476  1.00  0.00     0.107 C 
BRANCH  16  17
HETATM   17  S   UNL     1     -41.235  58.514 -51.761  1.00  0.00    -0.128 SA
BRANCH  17  18
HETATM   18  C   UNL     1     -42.920  58.890 -51.310  1.00  0.00     0.000 A 
HETATM   19  C   UNL     1     -43.246  60.166 -50.843  1.00  0.00     0.018 A 
HETATM   20  C   UNL     1     -44.558  60.460 -50.466  1.00  0.00     0.001 A 
HETATM   21  C   UNL     1     -45.549  59.483 -50.561  1.00  0.00     0.000 A 
HETATM   22  C   UNL     1     -45.231  58.213 -51.040  1.00  0.00     0.001 A 
HETATM   23  C   UNL     1     -43.919  57.918 -51.417  1.00  0.00     0.018 A 
ENDBRANCH  17  18
ENDBRANCH  16  17
ENDBRANCH   2  16
ENDBRANCH   1   2
BRANCH   1  24
HETATM   24  O   UNL     1     -41.748  59.922 -56.238  1.00  0.00    -0.392 OA
HETATM   25  H   UNL     1     -40.847  60.255 -56.030  1.00  0.00     0.210 HD
ENDBRANCH   1  24
BRANCH   1  26
HETATM   26  C   UNL     1     -42.942  57.911 -56.801  1.00  0.00     0.269 C 
BRANCH  26  27
HETATM   27  N   UNL     1     -43.146  58.793 -58.040  1.00  0.00    -0.055 N 
HETATM   28  H   UNL     1     -42.719  59.683 -57.713  1.00  0.00     0.281 HD
HETATM   29  C   UNL     1     -44.594  59.175 -58.373  1.00  0.00     0.279 C 
HETATM   30  C   UNL     1     -45.292  57.936 -58.926  1.00  0.00     0.048 C 
HETATM   31  C   UNL     1     -44.592  57.454 -60.209  1.00  0.00    -0.006 C 
HETATM   32  C   UNL     1     -43.073  57.248 -60.052  1.00  0.00     0.016 C 
HETATM   33  C   UNL     1     -45.244  56.199 -60.796  1.00  0.00     0.005 C 
HETATM   34  C   UNL     1     -42.382  58.372 -59.259  1.00  0.00     0.241 C 
HETATM   35  C   UNL     1     -42.673  55.822 -59.616  1.00  0.00     0.007 C 
HETATM   36  C   UNL     1     -43.808  54.966 -59.065  1.00  0.00     0.000 C 
HETATM   37  C   UNL     1     -45.048  54.944 -59.951  1.00  0.00     0.000 C 
BRANCH  29  38
HETATM   38  C   UNL     1     -45.289  59.903 -57.194  1.00  0.00     0.249 C 
HETATM   39  N   UNL     1     -44.553  60.870 -56.547  1.00  0.00    -0.351 N 
HETATM   40  H   UNL     1     -43.556  60.909 -56.720  1.00  0.00     0.163 HD
HETATM   41  O   UNL     1     -46.424  59.559 -56.865  1.00  0.00    -0.271 OA
BRANCH  39  42
HETATM   42  C   UNL     1     -44.977  61.589 -55.326  1.00  0.00     0.022 C 
HETATM   43  C   UNL     1     -45.171  60.594 -54.173  1.00  0.00     0.037 C 
HETATM   44  C   UNL     1     -43.852  62.572 -54.949  1.00  0.00     0.037 C 
HETATM   45  C   UNL     1     -46.262  62.400 -55.551  1.00  0.00     0.037 C 
ENDBRANCH  39  42
ENDBRANCH  29  38
ENDBRANCH  26  27
ENDBRANCH   1  26
TORSDOF 12
ENDMDL
MODEL 3
REMARK VINA RESULT:      -8.2      3.114      6.536
REMARK  12 active torsions:
REMARK  status: ('A' for Active; 'I' for Inactive)
REMARK    1  A    between atoms: C_3  and  O_4 
REMARK    2  A    between atoms: C_8  and  C_9 
REMARK       I    between atoms: C_9  and  N_10 
REMARK    3  A    between atoms: N_10  and  C_11 
REMARK    4  A    between atoms: C_11  and  C_33 
REMARK    5  A    between atoms: C_11  and  C_12 
REMARK    6  A    between atoms: C_12  and  O_13 
REMARK    7  A    between atoms: C_12  and  C_14 
REMARK    8  A    between atoms: C_14  and  N_15 
REMARK    9  A    between atoms: C_17  and  C_18 
REMARK       I    between atoms: C_18  and  N_19 
REMARK   10  A    between atoms: N_19  and  C_20 
REMARK   11  A    between atoms: C_33  and  S_34 
REMARK   12  A    between atoms: S_34  and  C_35 
ROOT
HETATM    1  C   UNL     1     -42.504  59.180 -55.141  1.00  0.00     0.167 C 
ENDROOT
BRANCH   1   2
HETATM    2  C   UNL     1     -43.037  59.553 -56.563  1.00  0.00     0.124 C 
BRANCH   2   3
HETATM    3  N   UNL     1     -43.584  58.360 -57.237  1.00  0.00    -0.349 N 
HETATM    4  C   UNL     1     -43.098  57.940 -58.458  1.00  0.00     0.252 C 
HETATM    5  O   UNL     1     -42.126  58.461 -58.992  1.00  0.00    -0.268 OA
HETATM    6  H   UNL     1     -44.467  57.971 -56.918  1.00  0.00     0.163 HD
BRANCH   4   7
HETATM    7  C   UNL     1     -43.830  56.811 -59.091  1.00  0.00     0.040 A 
HETATM    8  C   UNL     1     -44.854  57.040 -60.037  1.00  0.00    -0.013 A 
HETATM    9  C   UNL     1     -45.280  58.434 -60.406  1.00  0.00     0.052 C 
HETATM   10  C   UNL     1     -45.447  55.915 -60.630  1.00  0.00     0.072 A 
HETATM   11  C   UNL     1     -45.086  54.618 -60.261  1.00  0.00     0.037 A 
HETATM   12  C   UNL     1     -44.090  54.410 -59.313  1.00  0.00     0.004 A 
HETATM   13  C   UNL     1     -43.453  55.504 -58.735  1.00  0.00     0.018 A 
BRANCH  10  14
HETATM   14  O   UNL     1     -46.409  55.998 -61.595  1.00  0.00    -0.360 OA
HETATM   15  H   UNL     1     -46.482  56.911 -61.916  1.00  0.00     0.217 HD
ENDBRANCH  10  14
ENDBRANCH   4   7
ENDBRANCH   2   3
BRANCH   2  16
HETATM   16  C   UNL     1     -44.093  60.671 -56.591  1.00  0.00     0.107 C 
BRANCH  16  17
HETATM   17  S   UNL     1     -43.335  62.326 -56.730  1.00  0.00    -0.128 SA
BRANCH  17  18
HETATM   18  C   UNL     1     -42.564  62.125 -58.327  1.00  0.00     0.000 A 
HETATM   19  C   UNL     1     -43.332  61.728 -59.425  1.00  0.00     0.018 A 
HETATM   20  C   UNL     1     -42.730  61.546 -60.671  1.00  0.00     0.001 A 
HETATM   21  C   UNL     1     -41.361  61.766 -60.826  1.00  0.00     0.000 A 
HETATM   22  C   UNL     1     -40.594  62.175 -59.737  1.00  0.00     0.001 A 
HETATM   23  C   UNL     1     -41.195  62.358 -58.490  1.00  0.00     0.018 A 
ENDBRANCH  17  18
ENDBRANCH  16  17
ENDBRANCH   2  16
ENDBRANCH   1   2
BRANCH   1  24
HETATM   24  O   UNL     1     -41.338  59.903 -54.707  1.00  0.00    -0.392 OA
HETATM   25  H   UNL     1     -40.592  59.269 -54.616  1.00  0.00     0.210 HD
ENDBRANCH   1  24
BRANCH   1  26
HETATM   26  C   UNL     1     -42.191  57.674 -55.003  1.00  0.00     0.269 C 
BRANCH  26  27
HETATM   27  N   UNL     1     -43.217  57.054 -54.043  1.00  0.00    -0.055 N 
HETATM   28  H   UNL     1     -43.933  57.808 -54.017  1.00  0.00     0.281 HD
HETATM   29  C   UNL     1     -42.778  56.906 -52.581  1.00  0.00     0.279 C 
HETATM   30  C   UNL     1     -41.764  55.768 -52.507  1.00  0.00     0.048 C 
HETATM   31  C   UNL     1     -42.401  54.449 -52.977  1.00  0.00    -0.006 C 
HETATM   32  C   UNL     1     -43.079  54.540 -54.358  1.00  0.00     0.016 C 
HETATM   33  C   UNL     1     -41.417  53.277 -52.939  1.00  0.00     0.005 C 
HETATM   34  C   UNL     1     -43.906  55.823 -54.551  1.00  0.00     0.241 C 
HETATM   35  C   UNL     1     -42.146  54.199 -55.540  1.00  0.00     0.007 C 
HETATM   36  C   UNL     1     -40.656  54.188 -55.213  1.00  0.00     0.000 C 
HETATM   37  C   UNL     1     -40.303  53.366 -53.978  1.00  0.00     0.000 C 
BRANCH  29  38
HETATM   38  C   UNL     1     -42.357  58.261 -51.960  1.00  0.00     0.249 C 
HETATM   39  N   UNL     1     -43.373  59.087 -51.534  1.00  0.00    -0.351 N 
HETATM   40  H   UNL     1     -44.318  58.876 -51.831  1.00  0.00     0.163 HD
HETATM   41  O   UNL     1     -41.162  58.555 -51.920  1.00  0.00    -0.271 OA
BRANCH  39  42
HETATM   42  C   UNL     1     -43.197  60.467 -51.033  1.00  0.00     0.022 C 
HETATM   43  C   UNL     1     -43.183  61.453 -52.210  1.00  0.00     0.037 C 
HETATM   44  C   UNL     1     -44.400  60.792 -50.128  1.00  0.00     0.037 C 
HETATM   45  C   UNL     1     -41.917  60.619 -50.196  1.00  0.00     0.037 C 
ENDBRANCH  39  42
ENDBRANCH  29  38
ENDBRANCH  26  27
ENDBRANCH   1  26
TORSDOF 12
ENDMDL
MODEL 4
REMARK VINA RESULT:      -8.2      3.661      7.113
REMARK  12 active torsions:
REMARK  status: ('A' for Active; 'I' for Inactive)
REMARK    1  A    between atoms: C_3  and  O_4 
REMARK    2  A    between atoms: C_8  and  C_9 
REMARK       I    between atoms: C_9  and  N_10 
REMARK    3  A    between atoms: N_10  and  C_11 
REMARK    4  A    between atoms: C_11  and  C_33 
REMARK    5  A    between atoms: C_11  and  C_12 
REMARK    6  A    between atoms: C_12  and  O_13 
REMARK    7  A    between atoms: C_12  and  C_14 
REMARK    8  A    between atoms: C_14  and  N_15 
REMARK    9  A    between atoms: C_17  and  C_18 
REMARK       I    between atoms: C_18  and  N_19 
REMARK   10  A    between atoms: N_19  and  C_20 
REMARK   11  A    between atoms: C_33  and  S_34 
REMARK   12  A    between atoms: S_34  and  C_35 
ROOT
HETATM    1  C   UNL     1     -42.465  58.793 -55.541  1.00  0.00     0.167 C 
ENDROOT
BRANCH   1   2
HETATM    2  C   UNL     1     -42.721  58.659 -57.078  1.00  0.00     0.124 C 
BRANCH   2   3
HETATM    3  N   UNL     1     -41.849  59.583 -57.827  1.00  0.00    -0.349 N 
HETATM    4  C   UNL     1     -42.339  60.754 -58.366  1.00  0.00     0.252 C 
HETATM    5  O   UNL     1     -43.484  61.142 -58.161  1.00  0.00    -0.268 OA
HETATM    6  H   UNL     1     -40.939  59.259 -58.143  1.00  0.00     0.163 HD
BRANCH   4   7
HETATM    7  C   UNL     1     -41.390  61.522 -59.214  1.00  0.00     0.040 A 
HETATM    8  C   UNL     1     -41.428  61.431 -60.624  1.00  0.00    -0.013 A 
HETATM    9  C   UNL     1     -42.397  60.516 -61.322  1.00  0.00     0.052 C 
HETATM   10  C   UNL     1     -40.538  62.239 -61.346  1.00  0.00     0.072 A 
HETATM   11  C   UNL     1     -39.609  63.059 -60.704  1.00  0.00     0.037 A 
HETATM   12  C   UNL     1     -39.571  63.122 -59.315  1.00  0.00     0.004 A 
HETATM   13  C   UNL     1     -40.467  62.364 -58.569  1.00  0.00     0.018 A 
BRANCH  10  14
HETATM   14  O   UNL     1     -40.509  62.285 -62.711  1.00  0.00    -0.360 OA
HETATM   15  H   UNL     1     -39.903  61.610 -63.055  1.00  0.00     0.217 HD
ENDBRANCH  10  14
ENDBRANCH   4   7
ENDBRANCH   2   3
BRANCH   2  16
HETATM   16  C   UNL     1     -42.551  57.240 -57.645  1.00  0.00     0.107 C 
BRANCH  16  17
HETATM   17  S   UNL     1     -42.395  57.242 -59.464  1.00  0.00    -0.128 SA
BRANCH  17  18
HETATM   18  C   UNL     1     -44.116  57.001 -59.872  1.00  0.00     0.000 A 
HETATM   19  C   UNL     1     -44.970  58.103 -59.965  1.00  0.00     0.018 A 
HETATM   20  C   UNL     1     -46.322  57.919 -60.260  1.00  0.00     0.001 A 
HETATM   21  C   UNL     1     -46.824  56.635 -60.470  1.00  0.00     0.000 A 
HETATM   22  C   UNL     1     -45.973  55.534 -60.392  1.00  0.00     0.001 A 
HETATM   23  C   UNL     1     -44.620  55.717 -60.097  1.00  0.00     0.018 A 
ENDBRANCH  17  18
ENDBRANCH  16  17
ENDBRANCH   2  16
ENDBRANCH   1   2
BRANCH   1  24
HETATM   24  O   UNL     1     -41.460  59.751 -55.160  1.00  0.00    -0.392 OA
HETATM   25  H   UNL     1     -41.863  60.397 -54.538  1.00  0.00     0.210 HD
ENDBRANCH   1  24
BRANCH   1  26
HETATM   26  C   UNL     1     -42.090  57.445 -54.884  1.00  0.00     0.269 C 
BRANCH  26  27
HETATM   27  N   UNL     1     -43.249  57.011 -53.977  1.00  0.00    -0.055 N 
HETATM   28  H   UNL     1     -43.951  57.746 -54.200  1.00  0.00     0.281 HD
HETATM   29  C   UNL     1     -43.023  57.158 -52.466  1.00  0.00     0.279 C 
HETATM   30  C   UNL     1     -42.046  56.071 -52.030  1.00  0.00     0.048 C 
HETATM   31  C   UNL     1     -42.631  54.677 -52.317  1.00  0.00    -0.006 C 
HETATM   32  C   UNL     1     -43.105  54.487 -53.771  1.00  0.00     0.016 C 
HETATM   33  C   UNL     1     -41.678  53.548 -51.913  1.00  0.00     0.005 C 
HETATM   34  C   UNL     1     -43.879  55.696 -54.326  1.00  0.00     0.241 C 
HETATM   35  C   UNL     1     -42.020  53.934 -54.720  1.00  0.00     0.007 C 
HETATM   36  C   UNL     1     -40.592  54.007 -54.190  1.00  0.00     0.000 C 
HETATM   37  C   UNL     1     -40.428  53.447 -52.782  1.00  0.00     0.000 C 
BRANCH  29  38
HETATM   38  C   UNL     1     -42.674  58.615 -52.070  1.00  0.00     0.249 C 
HETATM   39  N   UNL     1     -43.732  59.439 -51.757  1.00  0.00    -0.351 N 
HETATM   40  H   UNL     1     -44.666  59.134 -52.001  1.00  0.00     0.163 HD
HETATM   41  O   UNL     1     -41.497  58.976 -52.098  1.00  0.00    -0.271 OA
BRANCH  39  42
HETATM   42  C   UNL     1     -43.630  60.888 -51.478  1.00  0.00     0.022 C 
HETATM   43  C   UNL     1     -43.128  61.627 -52.726  1.00  0.00     0.037 C 
HETATM   44  C   UNL     1     -45.042  61.397 -51.134  1.00  0.00     0.037 C 
HETATM   45  C   UNL     1     -42.713  61.182 -50.281  1.00  0.00     0.037 C 
ENDBRANCH  39  42
ENDBRANCH  29  38
ENDBRANCH  26  27
ENDBRANCH   1  26
TORSDOF 12
ENDMDL
MODEL 5
REMARK VINA RESULT:      -8.1      2.711      6.413
REMARK  12 active torsions:
REMARK  status: ('A' for Active; 'I' for Inactive)
REMARK    1  A    between atoms: C_3  and  O_4 
REMARK    2  A    between atoms: C_8  and  C_9 
REMARK       I    between atoms: C_9  and  N_10 
REMARK    3  A    between atoms: N_10  and  C_11 
REMARK    4  A    between atoms: C_11  and  C_33 
REMARK    5  A    between atoms: C_11  and  C_12 
REMARK    6  A    between atoms: C_12  and  O_13 
REMARK    7  A    between atoms: C_12  and  C_14 
REMARK    8  A    between atoms: C_14  and  N_15 
REMARK    9  A    between atoms: C_17  and  C_18 
REMARK       I    between atoms: C_18  and  N_19 
REMARK   10  A    between atoms: N_19  and  C_20 
REMARK   11  A    between atoms: C_33  and  S_34 
REMARK   12  A    between atoms: S_34  and  C_35 
ROOT
HETATM    1  C   UNL     1     -43.597  55.533 -54.681  1.00  0.00     0.167 C 
ENDROOT
BRANCH   1   2
HETATM    2  C   UNL     1     -43.011  56.319 -55.899  1.00  0.00     0.124 C 
BRANCH   2   3
HETATM    3  N   UNL     1     -44.073  56.622 -56.876  1.00  0.00    -0.349 N 
HETATM    4  C   UNL     1     -43.827  56.601 -58.233  1.00  0.00     0.252 C 
HETATM    5  O   UNL     1     -42.757  56.230 -58.700  1.00  0.00    -0.268 OA
HETATM    6  H   UNL     1     -44.931  57.062 -56.556  1.00  0.00     0.163 HD
BRANCH   4   7
HETATM    7  C   UNL     1     -44.945  57.061 -59.100  1.00  0.00     0.040 A 
HETATM    8  C   UNL     1     -45.447  56.248 -60.140  1.00  0.00    -0.013 A 
HETATM    9  C   UNL     1     -44.841  54.906 -60.446  1.00  0.00     0.052 C 
HETATM   10  C   UNL     1     -46.544  56.736 -60.866  1.00  0.00     0.072 A 
HETATM   11  C   UNL     1     -47.085  57.997 -60.615  1.00  0.00     0.037 A 
HETATM   12  C   UNL     1     -46.566  58.794 -59.600  1.00  0.00     0.004 A 
HETATM   13  C   UNL     1     -45.504  58.324 -58.835  1.00  0.00     0.018 A 
BRANCH  10  14
HETATM   14  O   UNL     1     -47.157  56.027 -61.860  1.00  0.00    -0.360 OA
HETATM   15  H   UNL     1     -47.527  55.204 -61.505  1.00  0.00     0.217 HD
ENDBRANCH  10  14
ENDBRANCH   4   7
ENDBRANCH   2   3
BRANCH   2  16
HETATM   16  C   UNL     1     -42.276  57.622 -55.540  1.00  0.00     0.107 C 
BRANCH  16  17
HETATM   17  S   UNL     1     -43.432  59.011 -55.278  1.00  0.00    -0.128 SA
BRANCH  17  18
HETATM   18  C   UNL     1     -43.036  59.957 -56.739  1.00  0.00     0.000 A 
HETATM   19  C   UNL     1     -43.812  61.068 -57.080  1.00  0.00     0.018 A 
HETATM   20  C   UNL     1     -43.522  61.798 -58.234  1.00  0.00     0.001 A 
HETATM   21  C   UNL     1     -42.453  61.424 -59.048  1.00  0.00     0.000 A 
HETATM   22  C   UNL     1     -41.667  60.325 -58.705  1.00  0.00     0.001 A 
HETATM   23  C   UNL     1     -41.956  59.595 -57.550  1.00  0.00     0.018 A 
ENDBRANCH  17  18
ENDBRANCH  16  17
ENDBRANCH   2  16
ENDBRANCH   1   2
BRANCH   1  24
HETATM   24  O   UNL     1     -44.983  55.789 -54.386  1.00  0.00    -0.392 OA
HETATM   25  H   UNL     1     -45.505  55.674 -55.210  1.00  0.00     0.210 HD
ENDBRANCH   1  24
BRANCH   1  26
HETATM   26  C   UNL     1     -42.797  55.774 -53.381  1.00  0.00     0.269 C 
BRANCH  26  27
HETATM   27  N   UNL     1     -43.692  55.410 -52.189  1.00  0.00    -0.055 N 
HETATM   28  H   UNL     1     -44.634  55.567 -52.603  1.00  0.00     0.281 HD
HETATM   29  C   UNL     1     -43.649  56.366 -50.989  1.00  0.00     0.279 C 
HETATM   30  C   UNL     1     -42.318  56.162 -50.273  1.00  0.00     0.048 C 
HETATM   31  C   UNL     1     -42.196  54.714 -49.767  1.00  0.00    -0.006 C 
HETATM   32  C   UNL     1     -42.445  53.650 -50.854  1.00  0.00     0.016 C 
HETATM   33  C   UNL     1     -40.866  54.452 -49.055  1.00  0.00     0.005 C 
HETATM   34  C   UNL     1     -43.642  53.973 -51.764  1.00  0.00     0.241 C 
HETATM   35  C   UNL     1     -41.171  53.211 -51.607  1.00  0.00     0.007 C 
HETATM   36  C   UNL     1     -39.962  54.124 -51.434  1.00  0.00     0.000 C 
HETATM   37  C   UNL     1     -39.653  54.465 -49.980  1.00  0.00     0.000 C 
BRANCH  29  38
HETATM   38  C   UNL     1     -44.015  57.818 -51.389  1.00  0.00     0.249 C 
HETATM   39  N   UNL     1     -43.326  58.825 -50.751  1.00  0.00    -0.351 N 
HETATM   40  H   UNL     1     -42.787  58.590 -49.927  1.00  0.00     0.163 HD
HETATM   41  O   UNL     1     -44.919  58.004 -52.204  1.00  0.00    -0.271 OA
BRANCH  39  42
HETATM   42  C   UNL     1     -43.606  60.270 -50.890  1.00  0.00     0.022 C 
HETATM   43  C   UNL     1     -44.820  60.653 -50.032  1.00  0.00     0.037 C 
HETATM   44  C   UNL     1     -42.373  61.037 -50.376  1.00  0.00     0.037 C 
HETATM   45  C   UNL     1     -43.841  60.675 -52.354  1.00  0.00     0.037 C 
ENDBRANCH  39  42
ENDBRANCH  29  38
ENDBRANCH  26  27
ENDBRANCH   1  26
TORSDOF 12
ENDMDL
MODEL 6
REMARK VINA RESULT:      -8.1      1.717      4.340
REMARK  12 active torsions:
REMARK  status: ('A' for Active; 'I' for Inactive)
REMARK    1  A    between atoms: C_3  and  O_4 
REMARK    2  A    between atoms: C_8  and  C_9 
REMARK       I    between atoms: C_9  and  N_10 
REMARK    3  A    between atoms: N_10  and  C_11 
REMARK    4  A    between atoms: C_11  and  C_33 
REMARK    5  A    between atoms: C_11  and  C_12 
REMARK    6  A    between atoms: C_12  and  O_13 
REMARK    7  A    between atoms: C_12  and  C_14 
REMARK    8  A    between atoms: C_14  and  N_15 
REMARK    9  A    between atoms: C_17  and  C_18 
REMARK       I    between atoms: C_18  and  N_19 
REMARK   10  A    between atoms: N_19  and  C_20 
REMARK   11  A    between atoms: C_33  and  S_34 
REMARK   12  A    between atoms: S_34  and  C_35 
ROOT
HETATM    1  C   UNL     1     -44.370  57.280 -54.632  1.00  0.00     0.167 C 
ENDROOT
BRANCH   1   2
HETATM    2  C   UNL     1     -43.029  56.795 -55.274  1.00  0.00     0.124 C 
BRANCH   2   3
HETATM    3  N   UNL     1     -42.287  55.937 -54.332  1.00  0.00    -0.349 N 
HETATM    4  C   UNL     1     -42.807  54.738 -53.890  1.00  0.00     0.252 C 
HETATM    5  O   UNL     1     -43.850  54.273 -54.334  1.00  0.00    -0.268 OA
HETATM    6  H   UNL     1     -41.492  56.324 -53.830  1.00  0.00     0.163 HD
BRANCH   4   7
HETATM    7  C   UNL     1     -42.021  54.042 -52.838  1.00  0.00     0.040 A 
HETATM    8  C   UNL     1     -40.958  53.172 -53.171  1.00  0.00    -0.013 A 
HETATM    9  C   UNL     1     -40.610  52.877 -54.605  1.00  0.00     0.052 C 
HETATM   10  C   UNL     1     -40.231  52.608 -52.112  1.00  0.00     0.072 A 
HETATM   11  C   UNL     1     -40.575  52.844 -50.781  1.00  0.00     0.037 A 
HETATM   12  C   UNL     1     -41.637  53.687 -50.470  1.00  0.00     0.004 A 
HETATM   13  C   UNL     1     -42.353  54.295 -51.495  1.00  0.00     0.018 A 
BRANCH  10  14
HETATM   14  O   UNL     1     -39.150  51.794 -52.298  1.00  0.00    -0.360 OA
HETATM   15  H   UNL     1     -39.388  51.048 -52.871  1.00  0.00     0.217 HD
ENDBRANCH  10  14
ENDBRANCH   4   7
ENDBRANCH   2   3
BRANCH   2  16
HETATM   16  C   UNL     1     -43.179  56.054 -56.613  1.00  0.00     0.107 C 
BRANCH  16  17
HETATM   17  S   UNL     1     -42.869  57.149 -58.041  1.00  0.00    -0.128 SA
BRANCH  17  18
HETATM   18  C   UNL     1     -44.219  56.612 -59.078  1.00  0.00     0.000 A 
HETATM   19  C   UNL     1     -44.050  55.513 -59.924  1.00  0.00     0.018 A 
HETATM   20  C   UNL     1     -45.095  55.102 -60.755  1.00  0.00     0.001 A 
HETATM   21  C   UNL     1     -46.312  55.783 -60.738  1.00  0.00     0.000 A 
HETATM   22  C   UNL     1     -46.489  56.871 -59.885  1.00  0.00     0.001 A 
HETATM   23  C   UNL     1     -45.445  57.283 -59.054  1.00  0.00     0.018 A 
ENDBRANCH  17  18
ENDBRANCH  16  17
ENDBRANCH   2  16
ENDBRANCH   1   2
BRANCH   1  24
HETATM   24  O   UNL     1     -45.512  57.282 -55.508  1.00  0.00    -0.392 OA
HETATM   25  H   UNL     1     -45.988  58.136 -55.401  1.00  0.00     0.210 HD
ENDBRANCH   1  24
BRANCH   1  26
HETATM   26  C   UNL     1     -44.256  58.694 -54.020  1.00  0.00     0.269 C 
BRANCH  26  27
HETATM   27  N   UNL     1     -43.265  59.507 -54.865  1.00  0.00    -0.055 N 
HETATM   28  H   UNL     1     -42.733  58.740 -55.324  1.00  0.00     0.281 HD
HETATM   29  C   UNL     1     -42.195  60.291 -54.093  1.00  0.00     0.279 C 
HETATM   30  C   UNL     1     -42.875  61.485 -53.430  1.00  0.00     0.048 C 
HETATM   31  C   UNL     1     -43.503  62.403 -54.492  1.00  0.00    -0.006 C 
HETATM   32  C   UNL     1     -44.436  61.672 -55.477  1.00  0.00     0.016 C 
HETATM   33  C   UNL     1     -44.216  63.610 -53.875  1.00  0.00     0.005 C 
HETATM   34  C   UNL     1     -43.877  60.323 -55.962  1.00  0.00     0.241 C 
HETATM   35  C   UNL     1     -45.913  61.626 -55.028  1.00  0.00     0.007 C 
HETATM   36  C   UNL     1     -46.161  61.967 -53.562  1.00  0.00     0.000 C 
HETATM   37  C   UNL     1     -45.487  63.257 -53.108  1.00  0.00     0.000 C 
BRANCH  29  38
HETATM   38  C   UNL     1     -41.346  59.371 -53.180  1.00  0.00     0.249 C 
HETATM   39  N   UNL     1     -41.412  59.615 -51.826  1.00  0.00    -0.351 N 
HETATM   40  H   UNL     1     -41.825  60.486 -51.516  1.00  0.00     0.163 HD
HETATM   41  O   UNL     1     -40.627  58.515 -53.696  1.00  0.00    -0.271 OA
BRANCH  39  42
HETATM   42  C   UNL     1     -40.589  58.943 -50.797  1.00  0.00     0.022 C 
HETATM   43  C   UNL     1     -39.102  59.226 -51.050  1.00  0.00     0.037 C 
HETATM   44  C   UNL     1     -40.981  59.531 -49.429  1.00  0.00     0.037 C 
HETATM   45  C   UNL     1     -40.843  57.428 -50.754  1.00  0.00     0.037 C 
ENDBRANCH  39  42
ENDBRANCH  29  38
ENDBRANCH  26  27
ENDBRANCH   1  26
TORSDOF 12
ENDMDL
MODEL 7
REMARK VINA RESULT:      -8.0      1.900      4.277
REMARK  12 active torsions:
REMARK  status: ('A' for Active; 'I' for Inactive)
REMARK    1  A    between atoms: C_3  and  O_4 
REMARK    2  A    between atoms: C_8  and  C_9 
REMARK       I    between atoms: C_9  and  N_10 
REMARK    3  A    between atoms: N_10  and  C_11 
REMARK    4  A    between atoms: C_11  and  C_33 
REMARK    5  A    between atoms: C_11  and  C_12 
REMARK    6  A    between atoms: C_12  and  O_13 
REMARK    7  A    between atoms: C_12  and  C_14 
REMARK    8  A    between atoms: C_14  and  N_15 
REMARK    9  A    between atoms: C_17  and  C_18 
REMARK       I    between atoms: C_18  and  N_19 
REMARK   10  A    between atoms: N_19  and  C_20 
REMARK   11  A    between atoms: C_33  and  S_34 
REMARK   12  A    between atoms: S_34  and  C_35 
ROOT
HETATM    1  C   UNL     1     -43.494  56.956 -55.168  1.00  0.00     0.167 C 
ENDROOT
BRANCH   1   2
HETATM    2  C   UNL     1     -42.650  55.912 -55.970  1.00  0.00     0.124 C 
BRANCH   2   3
HETATM    3  N   UNL     1     -42.168  54.842 -55.076  1.00  0.00    -0.349 N 
HETATM    4  C   UNL     1     -40.910  54.890 -54.512  1.00  0.00     0.252 C 
HETATM    5  O   UNL     1     -40.174  55.862 -54.633  1.00  0.00    -0.268 OA
HETATM    6  H   UNL     1     -42.669  53.959 -55.045  1.00  0.00     0.163 HD
BRANCH   4   7
HETATM    7  C   UNL     1     -40.499  53.684 -53.746  1.00  0.00     0.040 A 
HETATM    8  C   UNL     1     -40.601  53.640 -52.338  1.00  0.00    -0.013 A 
HETATM    9  C   UNL     1     -41.082  54.829 -51.552  1.00  0.00     0.052 C 
HETATM   10  C   UNL     1     -40.250  52.439 -51.703  1.00  0.00     0.072 A 
HETATM   11  C   UNL     1     -39.763  51.347 -52.422  1.00  0.00     0.037 A 
HETATM   12  C   UNL     1     -39.650  51.413 -53.807  1.00  0.00     0.004 A 
HETATM   13  C   UNL     1     -40.027  52.575 -54.471  1.00  0.00     0.018 A 
BRANCH  10  14
HETATM   14  O   UNL     1     -40.353  52.249 -50.355  1.00  0.00    -0.360 OA
HETATM   15  H   UNL     1     -41.231  52.522 -50.045  1.00  0.00     0.217 HD
ENDBRANCH  10  14
ENDBRANCH   4   7
ENDBRANCH   2   3
BRANCH   2  16
HETATM   16  C   UNL     1     -43.371  55.274 -57.169  1.00  0.00     0.107 C 
BRANCH  16  17
HETATM   17  S   UNL     1     -42.894  56.052 -58.750  1.00  0.00    -0.128 SA
BRANCH  17  18
HETATM   18  C   UNL     1     -44.524  56.224 -59.456  1.00  0.00     0.000 A 
HETATM   19  C   UNL     1     -45.483  57.007 -58.809  1.00  0.00     0.018 A 
HETATM   20  C   UNL     1     -46.767  57.126 -59.344  1.00  0.00     0.001 A 
HETATM   21  C   UNL     1     -47.095  56.470 -60.530  1.00  0.00     0.000 A 
HETATM   22  C   UNL     1     -46.137  55.699 -61.186  1.00  0.00     0.001 A 
HETATM   23  C   UNL     1     -44.852  55.580 -60.653  1.00  0.00     0.018 A 
ENDBRANCH  17  18
ENDBRANCH  16  17
ENDBRANCH   2  16
ENDBRANCH   1   2
BRANCH   1  24
HETATM   24  O   UNL     1     -44.796  56.508 -54.747  1.00  0.00    -0.392 OA
HETATM   25  H   UNL     1     -45.021  56.952 -53.899  1.00  0.00     0.210 HD
ENDBRANCH   1  24
BRANCH   1  26
HETATM   26  C   UNL     1     -43.689  58.278 -55.943  1.00  0.00     0.269 C 
BRANCH  26  27
HETATM   27  N   UNL     1     -42.341  59.011 -55.994  1.00  0.00    -0.055 N 
HETATM   28  H   UNL     1     -41.739  58.336 -55.480  1.00  0.00     0.281 HD
HETATM   29  C   UNL     1     -42.237  60.304 -55.175  1.00  0.00     0.279 C 
HETATM   30  C   UNL     1     -43.046  61.380 -55.893  1.00  0.00     0.048 C 
HETATM   31  C   UNL     1     -42.478  61.630 -57.301  1.00  0.00    -0.006 C 
HETATM   32  C   UNL     1     -42.325  60.352 -58.148  1.00  0.00     0.016 C 
HETATM   33  C   UNL     1     -43.267  62.692 -58.072  1.00  0.00     0.005 C 
HETATM   34  C   UNL     1     -41.746  59.162 -57.362  1.00  0.00     0.241 C 
HETATM   35  C   UNL     1     -43.566  60.010 -59.000  1.00  0.00     0.007 C 
HETATM   36  C   UNL     1     -44.846  60.744 -58.613  1.00  0.00     0.000 C 
HETATM   37  C   UNL     1     -44.671  62.252 -58.474  1.00  0.00     0.000 C 
BRANCH  29  38
HETATM   38  C   UNL     1     -42.555  60.070 -53.677  1.00  0.00     0.249 C 
HETATM   39  N   UNL     1     -41.556  59.508 -52.915  1.00  0.00    -0.351 N 
HETATM   40  H   UNL     1     -40.768  59.088 -53.392  1.00  0.00     0.163 HD
HETATM   41  O   UNL     1     -43.678  60.346 -53.254  1.00  0.00    -0.271 OA
BRANCH  39  42
HETATM   42  C   UNL     1     -41.694  59.087 -51.504  1.00  0.00     0.022 C 
HETATM   43  C   UNL     1     -40.369  58.498 -51.001  1.00  0.00     0.037 C 
HETATM   44  C   UNL     1     -42.028  60.340 -50.673  1.00  0.00     0.037 C 
HETATM   45  C   UNL     1     -42.833  58.073 -51.314  1.00  0.00     0.037 C 
ENDBRANCH  39  42
ENDBRANCH  29  38
ENDBRANCH  26  27
ENDBRANCH   1  26
TORSDOF 12
ENDMDL
MODEL 8
REMARK VINA RESULT:      -7.7      2.645      6.898
REMARK  12 active torsions:
REMARK  status: ('A' for Active; 'I' for Inactive)
REMARK    1  A    between atoms: C_3  and  O_4 
REMARK    2  A    between atoms: C_8  and  C_9 
REMARK       I    between atoms: C_9  and  N_10 
REMARK    3  A    between atoms: N_10  and  C_11 
REMARK    4  A    between atoms: C_11  and  C_33 
REMARK    5  A    between atoms: C_11  and  C_12 
REMARK    6  A    between atoms: C_12  and  O_13 
REMARK    7  A    between atoms: C_12  and  C_14 
REMARK    8  A    between atoms: C_14  and  N_15 
REMARK    9  A    between atoms: C_17  and  C_18 
REMARK       I    between atoms: C_18  and  N_19 
REMARK   10  A    between atoms: N_19  and  C_20 
REMARK   11  A    between atoms: C_33  and  S_34 
REMARK   12  A    between atoms: S_34  and  C_35 
ROOT
HETATM    1  C   UNL     1     -42.291  59.256 -55.254  1.00  0.00     0.167 C 
ENDROOT
BRANCH   1   2
HETATM    2  C   UNL     1     -42.471  59.494 -56.789  1.00  0.00     0.124 C 
BRANCH   2   3
HETATM    3  N   UNL     1     -43.199  58.369 -57.404  1.00  0.00    -0.349 N 
HETATM    4  C   UNL     1     -42.768  57.792 -58.580  1.00  0.00     0.252 C 
HETATM    5  O   UNL     1     -41.710  58.105 -59.115  1.00  0.00    -0.268 OA
HETATM    6  H   UNL     1     -44.142  58.156 -57.089  1.00  0.00     0.163 HD
BRANCH   4   7
HETATM    7  C   UNL     1     -43.668  56.762 -59.163  1.00  0.00     0.040 A 
HETATM    8  C   UNL     1     -44.726  57.119 -60.028  1.00  0.00    -0.013 A 
HETATM    9  C   UNL     1     -45.018  58.558 -60.354  1.00  0.00     0.052 C 
HETATM   10  C   UNL     1     -45.485  56.077 -60.582  1.00  0.00     0.072 A 
HETATM   11  C   UNL     1     -45.247  54.743 -60.251  1.00  0.00     0.037 A 
HETATM   12  C   UNL     1     -44.214  54.409 -59.382  1.00  0.00     0.004 A 
HETATM   13  C   UNL     1     -43.416  55.415 -58.847  1.00  0.00     0.018 A 
BRANCH  10  14
HETATM   14  O   UNL     1     -46.501  56.284 -61.471  1.00  0.00    -0.360 OA
HETATM   15  H   UNL     1     -46.885  55.435 -61.743  1.00  0.00     0.217 HD
ENDBRANCH  10  14
ENDBRANCH   4   7
ENDBRANCH   2   3
BRANCH   2  16
HETATM   16  C   UNL     1     -43.175  60.809 -57.165  1.00  0.00     0.107 C 
BRANCH  16  17
HETATM   17  S   UNL     1     -44.938  60.805 -56.689  1.00  0.00    -0.128 SA
BRANCH  17  18
HETATM   18  C   UNL     1     -44.909  62.197 -55.574  1.00  0.00     0.000 A 
HETATM   19  C   UNL     1     -43.835  63.091 -55.605  1.00  0.00     0.018 A 
HETATM   20  C   UNL     1     -43.795  64.169 -54.719  1.00  0.00     0.001 A 
HETATM   21  C   UNL     1     -44.830  64.362 -53.804  1.00  0.00     0.000 A 
HETATM   22  C   UNL     1     -45.910  63.482 -53.779  1.00  0.00     0.001 A 
HETATM   23  C   UNL     1     -45.951  62.403 -54.665  1.00  0.00     0.018 A 
ENDBRANCH  17  18
ENDBRANCH  16  17
ENDBRANCH   2  16
ENDBRANCH   1   2
BRANCH   1  24
HETATM   24  O   UNL     1     -41.320  60.097 -54.605  1.00  0.00    -0.392 OA
HETATM   25  H   UNL     1     -40.495  60.094 -55.140  1.00  0.00     0.210 HD
ENDBRANCH   1  24
BRANCH   1  26
HETATM   26  C   UNL     1     -41.928  57.791 -54.923  1.00  0.00     0.269 C 
BRANCH  26  27
HETATM   27  N   UNL     1     -43.080  57.179 -54.113  1.00  0.00    -0.055 N 
HETATM   28  H   UNL     1     -43.772  57.954 -54.153  1.00  0.00     0.281 HD
HETATM   29  C   UNL     1     -42.827  56.982 -52.613  1.00  0.00     0.279 C 
HETATM   30  C   UNL     1     -41.862  55.812 -52.449  1.00  0.00     0.048 C 
HETATM   31  C   UNL     1     -42.473  54.525 -53.030  1.00  0.00    -0.006 C 
HETATM   32  C   UNL     1     -42.974  54.671 -54.480  1.00  0.00     0.016 C 
HETATM   33  C   UNL     1     -41.534  53.322 -52.906  1.00  0.00     0.005 C 
HETATM   34  C   UNL     1     -43.736  55.984 -54.735  1.00  0.00     0.241 C 
HETATM   35  C   UNL     1     -41.914  54.331 -55.549  1.00  0.00     0.007 C 
HETATM   36  C   UNL     1     -40.476  54.266 -55.044  1.00  0.00     0.000 C 
HETATM   37  C   UNL     1     -40.299  53.403 -53.799  1.00  0.00     0.000 C 
BRANCH  29  38
HETATM   38  C   UNL     1     -42.448  58.308 -51.907  1.00  0.00     0.249 C 
HETATM   39  N   UNL     1     -43.489  59.125 -51.529  1.00  0.00    -0.351 N 
HETATM   40  H   UNL     1     -44.409  58.936 -51.908  1.00  0.00     0.163 HD
HETATM   41  O   UNL     1     -41.257  58.588 -51.762  1.00  0.00    -0.271 OA
BRANCH  39  42
HETATM   42  C   UNL     1     -43.344  60.483 -50.961  1.00  0.00     0.022 C 
HETATM   43  C   UNL     1     -43.183  61.509 -52.092  1.00  0.00     0.037 C 
HETATM   44  C   UNL     1     -44.634  60.803 -50.181  1.00  0.00     0.037 C 
HETATM   45  C   UNL     1     -42.162  60.577 -49.985  1.00  0.00     0.037 C 
ENDBRANCH  39  42
ENDBRANCH  29  38
ENDBRANCH  26  27
ENDBRANCH   1  26
TORSDOF 12
ENDMDL
MODEL 9
REMARK VINA RESULT:      -7.6      2.005      3.196
REMARK  12 active torsions:
REMARK  status: ('A' for Active; 'I' for Inactive)
REMARK    1  A    between atoms: C_3  and  O_4 
REMARK    2  A    between atoms: C_8  and  C_9 
REMARK       I    between atoms: C_9  and  N_10 
REMARK    3  A    between atoms: N_10  and  C_11 
REMARK    4  A    between atoms: C_11  and  C_33 
REMARK    5  A    between atoms: C_11  and  C_12 
REMARK    6  A    between atoms: C_12  and  O_13 
REMARK    7  A    between atoms: C_12  and  C_14 
REMARK    8  A    between atoms: C_14  and  N_15 
REMARK    9  A    between atoms: C_17  and  C_18 
REMARK       I    between atoms: C_18  and  N_19 
REMARK   10  A    between atoms: N_19  and  C_20 
REMARK   11  A    between atoms: C_33  and  S_34 
REMARK   12  A    between atoms: S_34  and  C_35 
ROOT
HETATM    1  C   UNL     1     -44.523  58.389 -54.530  1.00  0.00     0.167 C 
ENDROOT
BRANCH   1   2
HETATM    2  C   UNL     1     -43.256  57.980 -55.350  1.00  0.00     0.124 C 
BRANCH   2   3
HETATM    3  N   UNL     1     -42.730  56.686 -54.875  1.00  0.00    -0.349 N 
HETATM    4  C   UNL     1     -41.550  56.608 -54.166  1.00  0.00     0.252 C 
HETATM    5  O   UNL     1     -40.936  57.604 -53.802  1.00  0.00    -0.268 OA
HETATM    6  H   UNL     1     -43.114  55.825 -55.255  1.00  0.00     0.163 HD
BRANCH   4   7
HETATM    7  C   UNL     1     -41.063  55.234 -53.870  1.00  0.00     0.040 A 
HETATM    8  C   UNL     1     -41.084  54.716 -52.556  1.00  0.00    -0.013 A 
HETATM    9  C   UNL     1     -41.552  55.551 -51.395  1.00  0.00     0.052 C 
HETATM   10  C   UNL     1     -40.666  53.389 -52.379  1.00  0.00     0.072 A 
HETATM   11  C   UNL     1     -40.192  52.623 -53.445  1.00  0.00     0.037 A 
HETATM   12  C   UNL     1     -40.158  53.155 -54.730  1.00  0.00     0.004 A 
HETATM   13  C   UNL     1     -40.604  54.455 -54.947  1.00  0.00     0.018 A 
BRANCH  10  14
HETATM   14  O   UNL     1     -40.687  52.753 -51.171  1.00  0.00    -0.360 OA
HETATM   15  H   UNL     1     -41.484  53.003 -50.676  1.00  0.00     0.217 HD
ENDBRANCH  10  14
ENDBRANCH   4   7
ENDBRANCH   2   3
BRANCH   2  16
HETATM   16  C   UNL     1     -43.460  57.907 -56.872  1.00  0.00     0.107 C 
BRANCH  16  17
HETATM   17  S   UNL     1     -42.895  56.315 -57.565  1.00  0.00    -0.128 SA
BRANCH  17  18
HETATM   18  C   UNL     1     -44.127  56.137 -58.844  1.00  0.00     0.000 A 
HETATM   19  C   UNL     1     -44.066  55.052 -59.722  1.00  0.00     0.018 A 
HETATM   20  C   UNL     1     -45.014  54.920 -60.739  1.00  0.00     0.001 A 
HETATM   21  C   UNL     1     -46.028  55.867 -60.878  1.00  0.00     0.000 A 
HETATM   22  C   UNL     1     -46.101  56.944 -59.996  1.00  0.00     0.001 A 
HETATM   23  C   UNL     1     -45.154  57.077 -58.978  1.00  0.00     0.018 A 
ENDBRANCH  17  18
ENDBRANCH  16  17
ENDBRANCH   2  16
ENDBRANCH   1   2
BRANCH   1  24
HETATM   24  O   UNL     1     -45.761  58.400 -55.266  1.00  0.00    -0.392 OA
HETATM   25  H   UNL     1     -46.201  59.268 -55.126  1.00  0.00     0.210 HD
ENDBRANCH   1  24
BRANCH   1  26
HETATM   26  C   UNL     1     -44.373  59.773 -53.860  1.00  0.00     0.269 C 
BRANCH  26  27
HETATM   27  N   UNL     1     -45.759  60.237 -53.394  1.00  0.00    -0.055 N 
HETATM   28  H   UNL     1     -46.369  59.620 -53.969  1.00  0.00     0.281 HD
HETATM   29  C   UNL     1     -46.174  61.657 -53.804  1.00  0.00     0.279 C 
HETATM   30  C   UNL     1     -45.371  62.642 -52.961  1.00  0.00     0.048 C 
HETATM   31  C   UNL     1     -45.673  62.442 -51.465  1.00  0.00    -0.006 C 
HETATM   32  C   UNL     1     -45.504  60.987 -50.984  1.00  0.00     0.016 C 
HETATM   33  C   UNL     1     -44.876  63.397 -50.573  1.00  0.00     0.005 C 
HETATM   34  C   UNL     1     -46.084  59.948 -51.960  1.00  0.00     0.241 C 
HETATM   35  C   UNL     1     -44.087  60.656 -50.469  1.00  0.00     0.007 C 
HETATM   36  C   UNL     1     -43.005  61.663 -50.843  1.00  0.00     0.000 C 
HETATM   37  C   UNL     1     -43.378  63.110 -50.537  1.00  0.00     0.000 C 
BRANCH  29  38
HETATM   38  C   UNL     1     -46.136  61.854 -55.340  1.00  0.00     0.249 C 
HETATM   39  N   UNL     1     -46.911  60.999 -56.091  1.00  0.00    -0.351 N 
HETATM   40  H   UNL     1     -47.287  60.173 -55.642  1.00  0.00     0.163 HD
HETATM   41  O   UNL     1     -45.393  62.714 -55.813  1.00  0.00    -0.271 OA
BRANCH  39  42
HETATM   42  C   UNL     1     -46.921  60.933 -57.569  1.00  0.00     0.022 C 
HETATM   43  C   UNL     1     -47.820  59.780 -58.035  1.00  0.00     0.037 C 
HETATM   44  C   UNL     1     -47.503  62.260 -58.091  1.00  0.00     0.037 C 
HETATM   45  C   UNL     1     -45.506  60.773 -58.148  1.00  0.00     0.037 C 
ENDBRANCH  39  42
ENDBRANCH  29  38
ENDBRANCH  26  27
ENDBRANCH   1  26
TORSDOF 12
ENDMDL
MODEL 10
REMARK VINA RESULT:      -7.4      3.647      7.770
REMARK  12 active torsions:
REMARK  status: ('A' for Active; 'I' for Inactive)
REMARK    1  A    between atoms: C_3  and  O_4 
REMARK    2  A    between atoms: C_8  and  C_9 
REMARK       I    between atoms: C_9  and  N_10 
REMARK    3  A    between atoms: N_10  and  C_11 
REMARK    4  A    between atoms: C_11  and  C_33 
REMARK    5  A    between atoms: C_11  and  C_12 
REMARK    6  A    between atoms: C_12  and  O_13 
REMARK    7  A    between atoms: C_12  and  C_14 
REMARK    8  A    between atoms: C_14  and  N_15 
REMARK    9  A    between atoms: C_17  and  C_18 
REMARK       I    between atoms: C_18  and  N_19 
REMARK   10  A    between atoms: N_19  and  C_20 
REMARK   11  A    between atoms: C_33  and  S_34 
REMARK   12  A    between atoms: S_34  and  C_35 
ROOT
HETATM    1  C   UNL     1     -42.336  57.981 -56.260  1.00  0.00     0.167 C 
ENDROOT
BRANCH   1   2
HETATM    2  C   UNL     1     -43.100  58.874 -57.292  1.00  0.00     0.124 C 
BRANCH   2   3
HETATM    3  N   UNL     1     -42.148  59.673 -58.086  1.00  0.00    -0.349 N 
HETATM    4  C   UNL     1     -42.405  60.991 -58.401  1.00  0.00     0.252 C 
HETATM    5  O   UNL     1     -43.372  61.596 -57.952  1.00  0.00    -0.268 OA
HETATM    6  H   UNL     1     -41.407  59.199 -58.594  1.00  0.00     0.163 HD
BRANCH   4   7
HETATM    7  C   UNL     1     -41.433  61.637 -59.322  1.00  0.00     0.040 A 
HETATM    8  C   UNL     1     -41.586  61.552 -60.724  1.00  0.00    -0.013 A 
HETATM    9  C   UNL     1     -42.708  60.764 -61.343  1.00  0.00     0.052 C 
HETATM   10  C   UNL     1     -40.658  62.245 -61.516  1.00  0.00     0.072 A 
HETATM   11  C   UNL     1     -39.590  62.944 -60.950  1.00  0.00     0.037 A 
HETATM   12  C   UNL     1     -39.443  63.000 -59.568  1.00  0.00     0.004 A 
HETATM   13  C   UNL     1     -40.369  62.358 -58.753  1.00  0.00     0.018 A 
BRANCH  10  14
HETATM   14  O   UNL     1     -40.723  62.288 -62.879  1.00  0.00    -0.360 OA
HETATM   15  H   UNL     1     -41.525  62.756 -63.161  1.00  0.00     0.217 HD
ENDBRANCH  10  14
ENDBRANCH   4   7
ENDBRANCH   2   3
BRANCH   2  16
HETATM   16  C   UNL     1     -44.033  58.111 -58.247  1.00  0.00     0.107 C 
BRANCH  16  17
HETATM   17  S   UNL     1     -45.760  58.099 -57.655  1.00  0.00    -0.128 SA
BRANCH  17  18
HETATM   18  C   UNL     1     -46.572  57.890 -59.231  1.00  0.00     0.000 A 
HETATM   19  C   UNL     1     -47.041  59.008 -59.925  1.00  0.00     0.018 A 
HETATM   20  C   UNL     1     -47.698  58.849 -61.147  1.00  0.00     0.001 A 
HETATM   21  C   UNL     1     -47.884  57.575 -61.681  1.00  0.00     0.000 A 
HETATM   22  C   UNL     1     -47.406  56.457 -60.999  1.00  0.00     0.001 A 
HETATM   23  C   UNL     1     -46.748  56.615 -59.777  1.00  0.00     0.018 A 
ENDBRANCH  17  18
ENDBRANCH  16  17
ENDBRANCH   2  16
ENDBRANCH   1   2
BRANCH   1  24
HETATM   24  O   UNL     1     -42.160  56.604 -56.641  1.00  0.00    -0.392 OA
HETATM   25  H   UNL     1     -43.008  56.271 -57.011  1.00  0.00     0.210 HD
ENDBRANCH   1  24
BRANCH   1  26
HETATM   26  C   UNL     1     -42.998  57.992 -54.864  1.00  0.00     0.269 C 
BRANCH  26  27
HETATM   27  N   UNL     1     -41.922  58.333 -53.823  1.00  0.00    -0.055 N 
HETATM   28  H   UNL     1     -41.079  57.932 -54.281  1.00  0.00     0.281 HD
HETATM   29  C   UNL     1     -42.009  57.587 -52.485  1.00  0.00     0.279 C 
HETATM   30  C   UNL     1     -43.191  58.156 -51.705  1.00  0.00     0.048 C 
HETATM   31  C   UNL     1     -42.981  59.656 -51.432  1.00  0.00    -0.006 C 
HETATM   32  C   UNL     1     -42.660  60.482 -52.693  1.00  0.00     0.016 C 
HETATM   33  C   UNL     1     -44.151  60.281 -50.666  1.00  0.00     0.005 C 
HETATM   34  C   UNL     1     -41.654  59.796 -53.634  1.00  0.00     0.241 C 
HETATM   35  C   UNL     1     -43.905  61.058 -53.401  1.00  0.00     0.007 C 
HETATM   36  C   UNL     1     -45.237  60.442 -52.984  1.00  0.00     0.000 C 
HETATM   37  C   UNL     1     -45.441  60.381 -51.475  1.00  0.00     0.000 C 
BRANCH  29  38
HETATM   38  C   UNL     1     -41.969  56.049 -52.673  1.00  0.00     0.249 C 
HETATM   39  N   UNL     1     -41.118  55.569 -53.643  1.00  0.00    -0.351 N 
HETATM   40  H   UNL     1     -40.735  56.225 -54.312  1.00  0.00     0.163 HD
HETATM   41  O   UNL     1     -42.719  55.345 -51.996  1.00  0.00    -0.271 OA
BRANCH  39  42
HETATM   42  C   UNL     1     -41.022  54.156 -54.069  1.00  0.00     0.022 C 
HETATM   43  C   UNL     1     -42.381  53.675 -54.596  1.00  0.00     0.037 C 
HETATM   44  C   UNL     1     -39.991  54.081 -55.210  1.00  0.00     0.037 C 
HETATM   45  C   UNL     1     -40.539  53.242 -52.931  1.00  0.00     0.037 C 
ENDBRANCH  39  42
ENDBRANCH  29  38
ENDBRANCH  26  27
ENDBRANCH   1  26
TORSDOF 12
ENDMDL
