MODEL 1
REMARK VINA RESULT:      -9.1      0.000      0.000
REMARK  7 active torsions:
REMARK  status: ('A' for Active; 'I' for Inactive)
REMARK    1  A    between atoms: C_4  and  N_5 
REMARK    2  A    between atoms: C_11  and  C_12 
REMARK    3  A    between atoms: C_12  and  C_13 
REMARK    4  A    between atoms: C_13  and  C_14 
REMARK       I    between atoms: C_14  and  N_15 
REMARK    5  A    between atoms: N_15  and  C_16 
REMARK    6  A    between atoms: N_19  and  C_21 
REMARK    7  A    between atoms: C_21  and  C_22 
ROOT
HETATM    1  C   UNL     1     -42.863  61.040 -50.274  1.00  0.00     0.110 C 
ENDROOT
BRANCH   1   2
HETATM    2  C   UNL     1     -43.189  62.520 -50.350  1.00  0.00     0.088 C 
BRANCH   2   3
HETATM    3  C   UNL     1     -44.464  62.850 -49.616  1.00  0.00     0.109 A 
HETATM    4  N   UNL     1     -44.418  63.051 -48.329  1.00  0.00    -0.215 NA
HETATM    5  C   UNL     1     -45.637  63.322 -47.778  1.00  0.00     0.170 A 
HETATM    6  N   UNL     1     -45.967  63.465 -46.428  1.00  0.00    -0.215 N 
HETATM    7  C   UNL     1     -46.820  63.469 -48.469  1.00  0.00     0.099 A 
HETATM    8  N   UNL     1     -47.282  63.827 -46.291  1.00  0.00    -0.177 NA
HETATM    9  C   UNL     1     -47.789  63.785 -47.523  1.00  0.00     0.160 A 
HETATM   10  C   UNL     1     -46.840  63.287 -49.888  1.00  0.00     0.262 A 
HETATM   11  N   UNL     1     -45.600  62.950 -50.393  1.00  0.00    -0.311 N 
HETATM   12  O   UNL     1     -47.830  63.410 -50.594  1.00  0.00    -0.267 OA
HETATM   13  H   UNL     1     -45.582  62.787 -51.391  1.00  0.00     0.170 HD
BRANCH   6  14
HETATM   14  C   UNL     1     -45.163  63.276 -45.262  1.00  0.00     0.060 A 
HETATM   15  C   UNL     1     -44.748  61.976 -44.927  1.00  0.00     0.031 A 
HETATM   16  C   UNL     1     -43.933  61.754 -43.815  1.00  0.00     0.002 A 
HETATM   17  C   UNL     1     -43.523  62.826 -43.027  1.00  0.00     0.000 A 
HETATM   18  C   UNL     1     -43.926  64.120 -43.352  1.00  0.00     0.002 A 
HETATM   19  C   UNL     1     -44.742  64.348 -44.465  1.00  0.00     0.031 A 
ENDBRANCH   6  14
ENDBRANCH   2   3
ENDBRANCH   1   2
BRANCH   1  20
HETATM   20  C   UNL     1     -43.676  60.076 -51.126  1.00  0.00     0.218 C 
HETATM   21  N   UNL     1     -43.552  58.729 -50.859  1.00  0.00    -0.356 N 
HETATM   22  H   UNL     1     -42.625  58.452 -50.537  1.00  0.00     0.162 HD
HETATM   23  O   UNL     1     -44.521  60.523 -51.898  1.00  0.00    -0.274 OA
BRANCH  21  24
HETATM   24  C   UNL     1     -44.256  57.656 -51.585  1.00  0.00     0.087 C 
HETATM   25  C   UNL     1     -44.397  56.305 -50.878  1.00  0.00     0.053 C 
HETATM   26  C   UNL     1     -43.045  55.689 -50.565  1.00  0.00     0.237 C 
HETATM   27  N   UNL     1     -42.247  55.509 -51.844  1.00  0.00    -0.067 N 
HETATM   28  H   UNL     1     -42.727  54.783 -52.392  1.00  0.00     0.280 HD
HETATM   29  C   UNL     1     -42.164  56.767 -52.681  1.00  0.00     0.237 C 
HETATM   30  C   UNL     1     -43.536  57.393 -52.911  1.00  0.00     0.053 C 
BRANCH  27  31
HETATM   31  C   UNL     1     -40.843  54.986 -51.574  1.00  0.00     0.273 C 
BRANCH  31  32
HETATM   32  C   UNL     1     -40.494  53.702 -52.276  1.00  0.00    -0.033 A 
HETATM   33  C   UNL     1     -39.887  52.643 -51.585  1.00  0.00     0.010 A 
HETATM   34  C   UNL     1     -39.566  51.456 -52.253  1.00  0.00     0.024 A 
HETATM   35  C   UNL     1     -39.841  51.324 -53.613  1.00  0.00     0.034 A 
HETATM   36 CL   UNL     1     -39.443  49.864 -54.429  1.00  0.00    -0.084 Cl
HETATM   37  C   UNL     1     -40.438  52.368 -54.313  1.00  0.00     0.024 A 
HETATM   38  C   UNL     1     -40.766  53.552 -53.648  1.00  0.00     0.010 A 
ENDBRANCH  31  32
ENDBRANCH  27  31
ENDBRANCH  21  24
ENDBRANCH   1  20
TORSDOF 7
ENDMDL
MODEL 2
REMARK VINA RESULT:      -8.9      1.400      1.955
REMARK  7 active torsions:
REMARK  status: ('A' for Active; 'I' for Inactive)
REMARK    1  A    between atoms: C_4  and  N_5 
REMARK    2  A    between atoms: C_11  and  C_12 
REMARK    3  A    between atoms: C_12  and  C_13 
REMARK    4  A    between atoms: C_13  and  C_14 
REMARK       I    between atoms: C_14  and  N_15 
REMARK    5  A    between atoms: N_15  and  C_16 
REMARK    6  A    between atoms: N_19  and  C_21 
REMARK    7  A    between atoms: C_21  and  C_22 
ROOT
HETATM    1  C   UNL     1     -44.446  60.635 -50.781  1.00  0.00     0.110 C 
ENDROOT
BRANCH   1   2
HETATM    2  C   UNL     1     -45.010  61.941 -51.310  1.00  0.00     0.088 C 
BRANCH   2   3
HETATM    3  C   UNL     1     -45.975  62.569 -50.338  1.00  0.00     0.109 A 
HETATM    4  N   UNL     1     -45.648  62.636 -49.078  1.00  0.00    -0.215 NA
HETATM    5  C   UNL     1     -46.610  63.207 -48.296  1.00  0.00     0.170 A 
HETATM    6  N   UNL     1     -46.641  63.326 -46.904  1.00  0.00    -0.215 N 
HETATM    7  C   UNL     1     -47.792  63.757 -48.744  1.00  0.00     0.099 A 
HETATM    8  N   UNL     1     -47.737  64.047 -46.508  1.00  0.00    -0.177 NA
HETATM    9  C   UNL     1     -48.438  64.262 -47.622  1.00  0.00     0.160 A 
HETATM   10  C   UNL     1     -48.112  63.711 -50.138  1.00  0.00     0.262 A 
HETATM   11  N   UNL     1     -47.142  63.066 -50.880  1.00  0.00    -0.311 N 
HETATM   12  O   UNL     1     -49.124  64.180 -50.638  1.00  0.00    -0.267 OA
HETATM   13  H   UNL     1     -47.349  62.992 -51.867  1.00  0.00     0.170 HD
BRANCH   6  14
HETATM   14  C   UNL     1     -45.744  62.808 -45.920  1.00  0.00     0.060 A 
HETATM   15  C   UNL     1     -45.291  63.660 -44.898  1.00  0.00     0.031 A 
HETATM   16  C   UNL     1     -44.441  63.183 -43.899  1.00  0.00     0.002 A 
HETATM   17  C   UNL     1     -44.035  61.851 -43.907  1.00  0.00     0.000 A 
HETATM   18  C   UNL     1     -44.481  60.997 -44.913  1.00  0.00     0.002 A 
HETATM   19  C   UNL     1     -45.334  61.469 -45.917  1.00  0.00     0.031 A 
ENDBRANCH   6  14
ENDBRANCH   2   3
ENDBRANCH   1   2
BRANCH   1  20
HETATM   20  C   UNL     1     -42.944  60.406 -50.873  1.00  0.00     0.218 C 
HETATM   21  N   UNL     1     -42.508  59.342 -51.634  1.00  0.00    -0.356 N 
HETATM   22  H   UNL     1     -43.137  58.539 -51.626  1.00  0.00     0.162 HD
HETATM   23  O   UNL     1     -42.179  61.251 -50.415  1.00  0.00    -0.274 OA
BRANCH  21  24
HETATM   24  C   UNL     1     -41.096  58.968 -51.829  1.00  0.00     0.087 C 
HETATM   25  C   UNL     1     -40.749  58.166 -53.088  1.00  0.00     0.053 C 
HETATM   26  C   UNL     1     -41.475  56.833 -53.124  1.00  0.00     0.237 C 
HETATM   27  N   UNL     1     -41.123  56.016 -51.894  1.00  0.00    -0.067 N 
HETATM   28  H   UNL     1     -40.132  55.760 -51.983  1.00  0.00     0.280 HD
HETATM   29  C   UNL     1     -41.310  56.776 -50.598  1.00  0.00     0.237 C 
HETATM   30  C   UNL     1     -40.626  58.139 -50.630  1.00  0.00     0.053 C 
BRANCH  27  31
HETATM   31  C   UNL     1     -41.903  54.710 -51.833  1.00  0.00     0.273 C 
BRANCH  31  32
HETATM   32  C   UNL     1     -41.208  53.523 -52.444  1.00  0.00    -0.033 A 
HETATM   33  C   UNL     1     -40.270  52.781 -51.712  1.00  0.00     0.010 A 
HETATM   34  C   UNL     1     -39.630  51.682 -52.295  1.00  0.00     0.024 A 
HETATM   35  C   UNL     1     -39.918  51.322 -53.611  1.00  0.00     0.034 A 
HETATM   36 CL   UNL     1     -39.128  49.972 -54.322  1.00  0.00    -0.084 Cl
HETATM   37  C   UNL     1     -40.843  52.053 -54.350  1.00  0.00     0.024 A 
HETATM   38  C   UNL     1     -41.488  53.147 -53.770  1.00  0.00     0.010 A 
ENDBRANCH  31  32
ENDBRANCH  27  31
ENDBRANCH  21  24
ENDBRANCH   1  20
TORSDOF 7
ENDMDL
MODEL 3
REMARK VINA RESULT:      -8.9      7.289     11.900
REMARK  7 active torsions:
REMARK  status: ('A' for Active; 'I' for Inactive)
REMARK    1  A    between atoms: C_4  and  N_5 
REMARK    2  A    between atoms: C_11  and  C_12 
REMARK    3  A    between atoms: C_12  and  C_13 
REMARK    4  A    between atoms: C_13  and  C_14 
REMARK       I    between atoms: C_14  and  N_15 
REMARK    5  A    between atoms: N_15  and  C_16 
REMARK    6  A    between atoms: N_19  and  C_21 
REMARK    7  A    between atoms: C_21  and  C_22 
ROOT
HETATM    1  C   UNL     1     -43.379  54.645 -55.433  1.00  0.00     0.110 C 
ENDROOT
BRANCH   1   2
HETATM    2  C   UNL     1     -43.894  55.225 -54.129  1.00  0.00     0.088 C 
BRANCH   2   3
HETATM    3  C   UNL     1     -42.869  55.125 -53.029  1.00  0.00     0.109 A 
HETATM    4  N   UNL     1     -42.016  54.140 -53.048  1.00  0.00    -0.215 NA
HETATM    5  C   UNL     1     -41.152  54.148 -51.991  1.00  0.00     0.170 A 
HETATM    6  N   UNL     1     -40.202  53.186 -51.638  1.00  0.00    -0.215 N 
HETATM    7  C   UNL     1     -41.079  55.120 -51.016  1.00  0.00     0.099 A 
HETATM    8  N   UNL     1     -39.468  53.609 -50.561  1.00  0.00    -0.177 NA
HETATM    9  C   UNL     1     -40.035  54.753 -50.176  1.00  0.00     0.160 A 
HETATM   10  C   UNL     1     -41.998  56.216 -51.039  1.00  0.00     0.262 A 
HETATM   11  N   UNL     1     -42.894  56.132 -52.086  1.00  0.00    -0.311 N 
HETATM   12  O   UNL     1     -42.009  57.135 -50.232  1.00  0.00    -0.267 OA
HETATM   13  H   UNL     1     -43.576  56.878 -52.117  1.00  0.00     0.170 HD
BRANCH   6  14
HETATM   14  C   UNL     1     -39.938  51.905 -52.212  1.00  0.00     0.060 A 
HETATM   15  C   UNL     1     -39.714  50.811 -51.358  1.00  0.00     0.031 A 
HETATM   16  C   UNL     1     -39.487  49.536 -51.881  1.00  0.00     0.002 A 
HETATM   17  C   UNL     1     -39.481  49.339 -53.258  1.00  0.00     0.000 A 
HETATM   18  C   UNL     1     -39.704  50.415 -54.114  1.00  0.00     0.002 A 
HETATM   19  C   UNL     1     -39.934  51.695 -53.597  1.00  0.00     0.031 A 
ENDBRANCH   6  14
ENDBRANCH   2   3
ENDBRANCH   1   2
BRANCH   1  20
HETATM   20  C   UNL     1     -42.833  55.601 -56.483  1.00  0.00     0.218 C 
HETATM   21  N   UNL     1     -43.544  55.732 -57.657  1.00  0.00    -0.356 N 
HETATM   22  H   UNL     1     -44.017  54.879 -57.955  1.00  0.00     0.162 HD
HETATM   23  O   UNL     1     -41.889  56.332 -56.196  1.00  0.00    -0.274 OA
BRANCH  21  24
HETATM   24  C   UNL     1     -43.162  56.604 -58.783  1.00  0.00     0.087 C 
HETATM   25  C   UNL     1     -43.955  57.902 -58.967  1.00  0.00     0.053 C 
HETATM   26  C   UNL     1     -45.428  57.632 -59.215  1.00  0.00     0.237 C 
HETATM   27  N   UNL     1     -45.596  56.760 -60.447  1.00  0.00    -0.067 N 
HETATM   28  H   UNL     1     -45.310  57.329 -61.253  1.00  0.00     0.280 HD
HETATM   29  C   UNL     1     -44.745  55.508 -60.415  1.00  0.00     0.237 C 
HETATM   30  C   UNL     1     -43.286  55.817 -60.091  1.00  0.00     0.053 C 
BRANCH  27  31
HETATM   31  C   UNL     1     -47.051  56.378 -60.682  1.00  0.00     0.273 C 
BRANCH  31  32
HETATM   32  C   UNL     1     -47.833  57.339 -61.536  1.00  0.00    -0.033 A 
HETATM   33  C   UNL     1     -48.477  56.906 -62.705  1.00  0.00     0.010 A 
HETATM   34  C   UNL     1     -49.198  57.812 -63.489  1.00  0.00     0.024 A 
HETATM   35  C   UNL     1     -49.273  59.154 -63.117  1.00  0.00     0.034 A 
HETATM   36 CL   UNL     1     -50.160  60.263 -64.085  1.00  0.00    -0.084 Cl
HETATM   37  C   UNL     1     -48.635  59.598 -61.963  1.00  0.00     0.024 A 
HETATM   38  C   UNL     1     -47.920  58.694 -61.173  1.00  0.00     0.010 A 
ENDBRANCH  31  32
ENDBRANCH  27  31
ENDBRANCH  21  24
ENDBRANCH   1  20
TORSDOF 7
ENDMDL
MODEL 4
REMARK VINA RESULT:      -8.8      6.444      9.772
REMARK  7 active torsions:
REMARK  status: ('A' for Active; 'I' for Inactive)
REMARK    1  A    between atoms: C_4  and  N_5 
REMARK    2  A    between atoms: C_11  and  C_12 
REMARK    3  A    between atoms: C_12  and  C_13 
REMARK    4  A    between atoms: C_13  and  C_14 
REMARK       I    between atoms: C_14  and  N_15 
REMARK    5  A    between atoms: N_15  and  C_16 
REMARK    6  A    between atoms: N_19  and  C_21 
REMARK    7  A    between atoms: C_21  and  C_22 
ROOT
HETATM    1  C   UNL     1     -43.205  55.685 -55.643  1.00  0.00     0.110 C 
ENDROOT
BRANCH   1   2
HETATM    2  C   UNL     1     -42.295  56.644 -56.389  1.00  0.00     0.088 C 
BRANCH   2   3
HETATM    3  C   UNL     1     -43.006  57.308 -57.540  1.00  0.00     0.109 A 
HETATM    4  N   UNL     1     -42.424  58.300 -58.154  1.00  0.00    -0.215 NA
HETATM    5  C   UNL     1     -43.175  58.828 -59.165  1.00  0.00     0.170 A 
HETATM    6  N   UNL     1     -42.914  59.961 -59.940  1.00  0.00    -0.215 N 
HETATM    7  C   UNL     1     -44.393  58.351 -59.600  1.00  0.00     0.099 A 
HETATM    8  N   UNL     1     -43.866  60.106 -60.915  1.00  0.00    -0.177 NA
HETATM    9  C   UNL     1     -44.767  59.155 -60.670  1.00  0.00     0.160 A 
HETATM   10  C   UNL     1     -44.993  57.234 -58.939  1.00  0.00     0.262 A 
HETATM   11  N   UNL     1     -44.231  56.774 -57.883  1.00  0.00    -0.311 N 
HETATM   12  O   UNL     1     -46.060  56.726 -59.254  1.00  0.00    -0.267 OA
HETATM   13  H   UNL     1     -44.639  56.001 -57.375  1.00  0.00     0.170 HD
BRANCH   6  14
HETATM   14  C   UNL     1     -41.863  60.923 -59.832  1.00  0.00     0.060 A 
HETATM   15  C   UNL     1     -41.404  61.562 -60.997  1.00  0.00     0.031 A 
HETATM   16  C   UNL     1     -40.402  62.532 -60.928  1.00  0.00     0.002 A 
HETATM   17  C   UNL     1     -39.849  62.877 -59.698  1.00  0.00     0.000 A 
HETATM   18  C   UNL     1     -40.299  62.252 -58.536  1.00  0.00     0.002 A 
HETATM   19  C   UNL     1     -41.303  61.280 -58.598  1.00  0.00     0.031 A 
ENDBRANCH   6  14
ENDBRANCH   2   3
ENDBRANCH   1   2
BRANCH   1  20
HETATM   20  C   UNL     1     -43.727  56.100 -54.275  1.00  0.00     0.218 C 
HETATM   21  N   UNL     1     -42.931  55.832 -53.182  1.00  0.00    -0.356 N 
HETATM   22  H   UNL     1     -42.378  54.980 -53.268  1.00  0.00     0.162 HD
HETATM   23  O   UNL     1     -44.740  56.791 -54.204  1.00  0.00    -0.274 OA
BRANCH  21  24
HETATM   24  C   UNL     1     -43.278  56.156 -51.786  1.00  0.00     0.087 C 
HETATM   25  C   UNL     1     -42.201  56.834 -50.934  1.00  0.00     0.053 C 
HETATM   26  C   UNL     1     -40.963  55.966 -50.796  1.00  0.00     0.237 C 
HETATM   27  N   UNL     1     -41.330  54.630 -50.175  1.00  0.00    -0.067 N 
HETATM   28  H   UNL     1     -41.606  54.822 -49.204  1.00  0.00     0.280 HD
HETATM   29  C   UNL     1     -42.482  53.941 -50.875  1.00  0.00     0.237 C 
HETATM   30  C   UNL     1     -43.678  54.869 -51.057  1.00  0.00     0.053 C 
BRANCH  27  31
HETATM   31  C   UNL     1     -40.139  53.685 -50.106  1.00  0.00     0.273 C 
BRANCH  31  32
HETATM   32  C   UNL     1     -40.017  52.728 -51.261  1.00  0.00    -0.033 A 
HETATM   33  C   UNL     1     -40.156  53.172 -52.584  1.00  0.00     0.010 A 
HETATM   34  C   UNL     1     -40.042  52.269 -53.646  1.00  0.00     0.024 A 
HETATM   35  C   UNL     1     -39.796  50.920 -53.394  1.00  0.00     0.034 A 
HETATM   36 CL   UNL     1     -39.658  49.815 -54.704  1.00  0.00    -0.084 Cl
HETATM   37  C   UNL     1     -39.660  50.465 -52.086  1.00  0.00     0.024 A 
HETATM   38  C   UNL     1     -39.767  51.364 -51.023  1.00  0.00     0.010 A 
ENDBRANCH  31  32
ENDBRANCH  27  31
ENDBRANCH  21  24
ENDBRANCH   1  20
TORSDOF 7
ENDMDL
MODEL 5
REMARK VINA RESULT:      -8.7      5.956      9.793
REMARK  7 active torsions:
REMARK  status: ('A' for Active; 'I' for Inactive)
REMARK    1  A    between atoms: C_4  and  N_5 
REMARK    2  A    between atoms: C_11  and  C_12 
REMARK    3  A    between atoms: C_12  and  C_13 
REMARK    4  A    between atoms: C_13  and  C_14 
REMARK       I    between atoms: C_14  and  N_15 
REMARK    5  A    between atoms: N_15  and  C_16 
REMARK    6  A    between atoms: N_19  and  C_21 
REMARK    7  A    between atoms: C_21  and  C_22 
ROOT
HETATM    1  C   UNL     1     -43.834  60.947 -54.992  1.00  0.00     0.110 C 
ENDROOT
BRANCH   1   2
HETATM    2  C   UNL     1     -42.387  60.691 -55.373  1.00  0.00     0.088 C 
BRANCH   2   3
HETATM    3  C   UNL     1     -42.188  60.724 -56.867  1.00  0.00     0.109 A 
HETATM    4  N   UNL     1     -42.772  59.819 -57.601  1.00  0.00    -0.215 NA
HETATM    5  C   UNL     1     -42.501  59.942 -58.934  1.00  0.00     0.170 A 
HETATM    6  N   UNL     1     -42.858  59.083 -59.976  1.00  0.00    -0.215 N 
HETATM    7  C   UNL     1     -41.765  60.951 -59.517  1.00  0.00     0.099 A 
HETATM    8  N   UNL     1     -42.477  59.608 -61.183  1.00  0.00    -0.177 NA
HETATM    9  C   UNL     1     -41.786  60.709 -60.886  1.00  0.00     0.160 A 
HETATM   10  C   UNL     1     -41.168  61.959 -58.695  1.00  0.00     0.262 A 
HETATM   11  N   UNL     1     -41.413  61.757 -57.351  1.00  0.00    -0.311 N 
HETATM   12  O   UNL     1     -40.510  62.901 -59.113  1.00  0.00    -0.267 OA
HETATM   13  H   UNL     1     -40.983  62.437 -56.739  1.00  0.00     0.170 HD
BRANCH   6  14
HETATM   14  C   UNL     1     -43.507  57.811 -59.934  1.00  0.00     0.060 A 
HETATM   15  C   UNL     1     -44.900  57.753 -60.105  1.00  0.00     0.031 A 
HETATM   16  C   UNL     1     -45.566  56.525 -60.104  1.00  0.00     0.002 A 
HETATM   17  C   UNL     1     -44.849  55.344 -59.934  1.00  0.00     0.000 A 
HETATM   18  C   UNL     1     -43.467  55.390 -59.766  1.00  0.00     0.002 A 
HETATM   19  C   UNL     1     -42.794  56.616 -59.767  1.00  0.00     0.031 A 
ENDBRANCH   6  14
ENDBRANCH   2   3
ENDBRANCH   1   2
BRANCH   1  20
HETATM   20  C   UNL     1     -44.584  59.861 -54.234  1.00  0.00     0.218 C 
HETATM   21  N   UNL     1     -43.977  58.628 -54.122  1.00  0.00    -0.356 N 
HETATM   22  H   UNL     1     -43.402  58.372 -54.924  1.00  0.00     0.162 HD
HETATM   23  O   UNL     1     -45.606  60.155 -53.620  1.00  0.00    -0.274 OA
BRANCH  21  24
HETATM   24  C   UNL     1     -44.558  57.462 -53.431  1.00  0.00     0.087 C 
HETATM   25  C   UNL     1     -43.914  57.038 -52.107  1.00  0.00     0.053 C 
HETATM   26  C   UNL     1     -42.458  56.650 -52.287  1.00  0.00     0.237 C 
HETATM   27  N   UNL     1     -42.341  55.517 -53.290  1.00  0.00    -0.067 N 
HETATM   28  H   UNL     1     -42.763  54.689 -52.851  1.00  0.00     0.280 HD
HETATM   29  C   UNL     1     -43.063  55.793 -54.592  1.00  0.00     0.237 C 
HETATM   30  C   UNL     1     -44.501  56.248 -54.363  1.00  0.00     0.053 C 
BRANCH  27  31
HETATM   31  C   UNL     1     -40.891  55.157 -53.581  1.00  0.00     0.273 C 
BRANCH  31  32
HETATM   32  C   UNL     1     -40.528  53.718 -53.336  1.00  0.00    -0.033 A 
HETATM   33  C   UNL     1     -40.200  53.265 -52.050  1.00  0.00     0.010 A 
HETATM   34  C   UNL     1     -39.863  51.924 -51.838  1.00  0.00     0.024 A 
HETATM   35  C   UNL     1     -39.844  51.031 -52.909  1.00  0.00     0.034 A 
HETATM   36 CL   UNL     1     -39.428  49.385 -52.643  1.00  0.00    -0.084 Cl
HETATM   37  C   UNL     1     -40.163  51.467 -54.191  1.00  0.00     0.024 A 
HETATM   38  C   UNL     1     -40.506  52.804 -54.405  1.00  0.00     0.010 A 
ENDBRANCH  31  32
ENDBRANCH  27  31
ENDBRANCH  21  24
ENDBRANCH   1  20
TORSDOF 7
ENDMDL
MODEL 6
REMARK VINA RESULT:      -8.6      5.707     10.038
REMARK  7 active torsions:
REMARK  status: ('A' for Active; 'I' for Inactive)
REMARK    1  A    between atoms: C_4  and  N_5 
REMARK    2  A    between atoms: C_11  and  C_12 
REMARK    3  A    between atoms: C_12  and  C_13 
REMARK    4  A    between atoms: C_13  and  C_14 
REMARK       I    between atoms: C_14  and  N_15 
REMARK    5  A    between atoms: N_15  and  C_16 
REMARK    6  A    between atoms: N_19  and  C_21 
REMARK    7  A    between atoms: C_21  and  C_22 
ROOT
HETATM    1  C   UNL     1     -44.584  59.945 -54.756  1.00  0.00     0.110 C 
ENDROOT
BRANCH   1   2
HETATM    2  C   UNL     1     -45.276  58.645 -55.128  1.00  0.00     0.088 C 
BRANCH   2   3
HETATM    3  C   UNL     1     -44.582  57.950 -56.270  1.00  0.00     0.109 A 
HETATM    4  N   UNL     1     -44.564  58.523 -57.441  1.00  0.00    -0.215 NA
HETATM    5  C   UNL     1     -43.924  57.787 -58.396  1.00  0.00     0.170 A 
HETATM    6  N   UNL     1     -43.825  58.040 -59.767  1.00  0.00    -0.215 N 
HETATM    7  C   UNL     1     -43.266  56.594 -58.189  1.00  0.00     0.099 A 
HETATM    8  N   UNL     1     -43.018  57.112 -60.370  1.00  0.00    -0.177 NA
HETATM    9  C   UNL     1     -42.724  56.228 -59.416  1.00  0.00     0.160 A 
HETATM   10  C   UNL     1     -43.262  56.004 -56.886  1.00  0.00     0.262 A 
HETATM   11  N   UNL     1     -43.976  56.748 -55.968  1.00  0.00    -0.311 N 
HETATM   12  O   UNL     1     -42.698  54.959 -56.594  1.00  0.00    -0.267 OA
HETATM   13  H   UNL     1     -44.016  56.346 -55.041  1.00  0.00     0.170 HD
BRANCH   6  14
HETATM   14  C   UNL     1     -44.435  59.063 -60.556  1.00  0.00     0.060 A 
HETATM   15  C   UNL     1     -43.614  59.935 -61.291  1.00  0.00     0.031 A 
HETATM   16  C   UNL     1     -44.173  60.926 -62.101  1.00  0.00     0.002 A 
HETATM   17  C   UNL     1     -45.556  61.056 -62.187  1.00  0.00     0.000 A 
HETATM   18  C   UNL     1     -46.380  60.196 -61.465  1.00  0.00     0.002 A 
HETATM   19  C   UNL     1     -45.826  59.200 -60.653  1.00  0.00     0.031 A 
ENDBRANCH   6  14
ENDBRANCH   2   3
ENDBRANCH   1   2
BRANCH   1  20
HETATM   20  C   UNL     1     -43.118  59.893 -54.353  1.00  0.00     0.218 C 
HETATM   21  N   UNL     1     -42.771  59.052 -53.317  1.00  0.00    -0.356 N 
HETATM   22  H   UNL     1     -43.490  58.956 -52.600  1.00  0.00     0.162 HD
HETATM   23  O   UNL     1     -42.283  60.462 -55.052  1.00  0.00    -0.274 OA
BRANCH  21  24
HETATM   24  C   UNL     1     -41.405  58.881 -52.790  1.00  0.00     0.087 C 
HETATM   25  C   UNL     1     -40.517  57.834 -53.470  1.00  0.00     0.053 C 
HETATM   26  C   UNL     1     -41.111  56.440 -53.369  1.00  0.00     0.237 C 
HETATM   27  N   UNL     1     -41.308  56.064 -51.911  1.00  0.00    -0.067 N 
HETATM   28  H   UNL     1     -40.371  55.962 -51.503  1.00  0.00     0.280 HD
HETATM   29  C   UNL     1     -42.068  57.108 -51.121  1.00  0.00     0.237 C 
HETATM   30  C   UNL     1     -41.482  58.504 -51.308  1.00  0.00     0.053 C 
BRANCH  27  31
HETATM   31  C   UNL     1     -41.994  54.714 -51.757  1.00  0.00     0.273 C 
BRANCH  31  32
HETATM   32  C   UNL     1     -41.271  53.555 -52.389  1.00  0.00    -0.033 A 
HETATM   33  C   UNL     1     -40.287  52.847 -51.684  1.00  0.00     0.010 A 
HETATM   34  C   UNL     1     -39.622  51.774 -52.286  1.00  0.00     0.024 A 
HETATM   35  C   UNL     1     -39.930  51.407 -53.595  1.00  0.00     0.034 A 
HETATM   36 CL   UNL     1     -39.109  50.088 -54.331  1.00  0.00    -0.084 Cl
HETATM   37  C   UNL     1     -40.901  52.103 -54.309  1.00  0.00     0.024 A 
HETATM   38  C   UNL     1     -41.571  53.171 -53.708  1.00  0.00     0.010 A 
ENDBRANCH  31  32
ENDBRANCH  27  31
ENDBRANCH  21  24
ENDBRANCH   1  20
TORSDOF 7
ENDMDL
MODEL 7
REMARK VINA RESULT:      -8.6      5.063      8.786
REMARK  7 active torsions:
REMARK  status: ('A' for Active; 'I' for Inactive)
REMARK    1  A    between atoms: C_4  and  N_5 
REMARK    2  A    between atoms: C_11  and  C_12 
REMARK    3  A    between atoms: C_12  and  C_13 
REMARK    4  A    between atoms: C_13  and  C_14 
REMARK       I    between atoms: C_14  and  N_15 
REMARK    5  A    between atoms: N_15  and  C_16 
REMARK    6  A    between atoms: N_19  and  C_21 
REMARK    7  A    between atoms: C_21  and  C_22 
ROOT
HETATM    1  C   UNL     1     -44.449  60.706 -52.607  1.00  0.00     0.110 C 
ENDROOT
BRANCH   1   2
HETATM    2  C   UNL     1     -45.257  60.440 -53.864  1.00  0.00     0.088 C 
BRANCH   2   3
HETATM    3  C   UNL     1     -44.673  59.314 -54.676  1.00  0.00     0.109 A 
HETATM    4  N   UNL     1     -44.025  59.595 -55.772  1.00  0.00    -0.215 NA
HETATM    5  C   UNL     1     -43.562  58.491 -56.428  1.00  0.00     0.170 A 
HETATM    6  N   UNL     1     -42.941  58.420 -57.678  1.00  0.00    -0.215 N 
HETATM    7  C   UNL     1     -43.658  57.190 -55.985  1.00  0.00     0.099 A 
HETATM    8  N   UNL     1     -42.540  57.136 -57.943  1.00  0.00    -0.177 NA
HETATM    9  C   UNL     1     -43.014  56.405 -56.934  1.00  0.00     0.160 A 
HETATM   10  C   UNL     1     -44.336  56.907 -54.757  1.00  0.00     0.262 A 
HETATM   11  N   UNL     1     -44.845  58.045 -54.162  1.00  0.00    -0.311 N 
HETATM   12  O   UNL     1     -44.464  55.793 -54.270  1.00  0.00    -0.267 OA
HETATM   13  H   UNL     1     -45.354  57.879 -53.305  1.00  0.00     0.170 HD
BRANCH   6  14
HETATM   14  C   UNL     1     -42.709  59.445 -58.646  1.00  0.00     0.060 A 
HETATM   15  C   UNL     1     -41.668  60.363 -58.428  1.00  0.00     0.031 A 
HETATM   16  C   UNL     1     -41.389  61.358 -59.367  1.00  0.00     0.002 A 
HETATM   17  C   UNL     1     -42.144  61.447 -60.533  1.00  0.00     0.000 A 
HETATM   18  C   UNL     1     -43.177  60.540 -60.761  1.00  0.00     0.002 A 
HETATM   19  C   UNL     1     -43.461  59.540 -59.824  1.00  0.00     0.031 A 
ENDBRANCH   6  14
ENDBRANCH   2   3
ENDBRANCH   1   2
BRANCH   1  20
HETATM   20  C   UNL     1     -42.944  60.485 -52.655  1.00  0.00     0.218 C 
HETATM   21  N   UNL     1     -42.448  59.346 -52.057  1.00  0.00    -0.356 N 
HETATM   22  H   UNL     1     -42.971  59.045 -51.236  1.00  0.00     0.162 HD
HETATM   23  O   UNL     1     -42.251  61.224 -53.349  1.00  0.00    -0.274 OA
BRANCH  21  24
HETATM   24  C   UNL     1     -41.022  58.975 -52.002  1.00  0.00     0.087 C 
HETATM   25  C   UNL     1     -40.491  58.061 -53.111  1.00  0.00     0.053 C 
HETATM   26  C   UNL     1     -41.203  56.720 -53.125  1.00  0.00     0.237 C 
HETATM   27  N   UNL     1     -41.040  56.031 -51.783  1.00  0.00    -0.067 N 
HETATM   28  H   UNL     1     -40.047  55.781 -51.697  1.00  0.00     0.280 HD
HETATM   29  C   UNL     1     -41.419  56.909 -50.609  1.00  0.00     0.237 C 
HETATM   30  C   UNL     1     -40.738  58.272 -50.671  1.00  0.00     0.053 C 
BRANCH  27  31
HETATM   31  C   UNL     1     -41.820  54.725 -51.712  1.00  0.00     0.273 C 
BRANCH  31  32
HETATM   32  C   UNL     1     -41.163  53.552 -52.386  1.00  0.00    -0.033 A 
HETATM   33  C   UNL     1     -41.480  53.207 -53.708  1.00  0.00     0.010 A 
HETATM   34  C   UNL     1     -40.862  52.112 -54.320  1.00  0.00     0.024 A 
HETATM   35  C   UNL     1     -39.931  51.351 -53.614  1.00  0.00     0.034 A 
HETATM   36 CL   UNL     1     -39.176  50.005 -54.370  1.00  0.00    -0.084 Cl
HETATM   37  C   UNL     1     -39.610  51.678 -52.300  1.00  0.00     0.024 A 
HETATM   38  C   UNL     1     -40.221  52.775 -51.688  1.00  0.00     0.010 A 
ENDBRANCH  31  32
ENDBRANCH  27  31
ENDBRANCH  21  24
ENDBRANCH   1  20
TORSDOF 7
ENDMDL
MODEL 8
REMARK VINA RESULT:      -8.5      7.199     11.369
REMARK  7 active torsions:
REMARK  status: ('A' for Active; 'I' for Inactive)
REMARK    1  A    between atoms: C_4  and  N_5 
REMARK    2  A    between atoms: C_11  and  C_12 
REMARK    3  A    between atoms: C_12  and  C_13 
REMARK    4  A    between atoms: C_13  and  C_14 
REMARK       I    between atoms: C_14  and  N_15 
REMARK    5  A    between atoms: N_15  and  C_16 
REMARK    6  A    between atoms: N_19  and  C_21 
REMARK    7  A    between atoms: C_21  and  C_22 
ROOT
HETATM    1  C   UNL     1     -42.952  55.496 -55.408  1.00  0.00     0.110 C 
ENDROOT
BRANCH   1   2
HETATM    2  C   UNL     1     -41.687  56.198 -54.949  1.00  0.00     0.088 C 
BRANCH   2   3
HETATM    3  C   UNL     1     -41.353  55.870 -53.517  1.00  0.00     0.109 A 
HETATM    4  N   UNL     1     -40.853  54.700 -53.237  1.00  0.00    -0.215 NA
HETATM    5  C   UNL     1     -40.611  54.516 -51.906  1.00  0.00     0.170 A 
HETATM    6  N   UNL     1     -40.197  53.353 -51.251  1.00  0.00    -0.215 N 
HETATM    7  C   UNL     1     -40.775  55.463 -50.918  1.00  0.00     0.099 A 
HETATM    8  N   UNL     1     -39.977  53.604 -49.921  1.00  0.00    -0.177 NA
HETATM    9  C   UNL     1     -40.368  54.864 -49.732  1.00  0.00     0.160 A 
HETATM   10  C   UNL     1     -41.285  56.756 -51.254  1.00  0.00     0.262 A 
HETATM   11  N   UNL     1     -41.577  56.875 -52.599  1.00  0.00    -0.311 N 
HETATM   12  O   UNL     1     -41.454  57.669 -50.458  1.00  0.00    -0.267 OA
HETATM   13  H   UNL     1     -41.965  57.769 -52.867  1.00  0.00     0.170 HD
BRANCH   6  14
HETATM   14  C   UNL     1     -40.008  52.032 -51.760  1.00  0.00     0.060 A 
HETATM   15  C   UNL     1     -39.909  51.847 -53.149  1.00  0.00     0.031 A 
HETATM   16  C   UNL     1     -39.690  50.575 -53.684  1.00  0.00     0.002 A 
HETATM   17  C   UNL     1     -39.568  49.476 -52.838  1.00  0.00     0.000 A 
HETATM   18  C   UNL     1     -39.662  49.648 -51.459  1.00  0.00     0.002 A 
HETATM   19  C   UNL     1     -39.880  50.920 -50.918  1.00  0.00     0.031 A 
ENDBRANCH   6  14
ENDBRANCH   2   3
ENDBRANCH   1   2
BRANCH   1  20
HETATM   20  C   UNL     1     -43.182  55.324 -56.902  1.00  0.00     0.218 C 
HETATM   21  N   UNL     1     -42.722  56.322 -57.736  1.00  0.00    -0.356 N 
HETATM   22  H   UNL     1     -42.760  57.256 -57.329  1.00  0.00     0.162 HD
HETATM   23  O   UNL     1     -43.612  54.254 -57.324  1.00  0.00    -0.274 OA
BRANCH  21  24
HETATM   24  C   UNL     1     -42.863  56.326 -59.204  1.00  0.00     0.087 C 
HETATM   25  C   UNL     1     -41.786  57.058 -60.010  1.00  0.00     0.053 C 
HETATM   26  C   UNL     1     -41.724  58.533 -59.659  1.00  0.00     0.237 C 
HETATM   27  N   UNL     1     -43.072  59.185 -59.910  1.00  0.00    -0.067 N 
HETATM   28  H   UNL     1     -43.217  59.180 -60.928  1.00  0.00     0.280 HD
HETATM   29  C   UNL     1     -44.223  58.451 -59.256  1.00  0.00     0.237 C 
HETATM   30  C   UNL     1     -44.206  56.960 -59.577  1.00  0.00     0.053 C 
BRANCH  27  31
HETATM   31  C   UNL     1     -43.090  60.645 -59.479  1.00  0.00     0.273 C 
BRANCH  31  32
HETATM   32  C   UNL     1     -41.914  61.462 -59.941  1.00  0.00    -0.033 A 
HETATM   33  C   UNL     1     -40.969  61.948 -59.025  1.00  0.00     0.010 A 
HETATM   34  C   UNL     1     -39.883  62.709 -59.469  1.00  0.00     0.024 A 
HETATM   35  C   UNL     1     -39.737  62.993 -60.826  1.00  0.00     0.034 A 
HETATM   36 CL   UNL     1     -38.401  63.929 -61.366  1.00  0.00    -0.084 Cl
HETATM   37  C   UNL     1     -40.669  62.521 -61.746  1.00  0.00     0.024 A 
HETATM   38  C   UNL     1     -41.752  61.756 -61.306  1.00  0.00     0.010 A 
ENDBRANCH  31  32
ENDBRANCH  27  31
ENDBRANCH  21  24
ENDBRANCH   1  20
TORSDOF 7
ENDMDL
MODEL 9
REMARK VINA RESULT:      -8.5      3.708     11.007
REMARK  7 active torsions:
REMARK  status: ('A' for Active; 'I' for Inactive)
REMARK    1  A    between atoms: C_4  and  N_5 
REMARK    2  A    between atoms: C_11  and  C_12 
REMARK    3  A    between atoms: C_12  and  C_13 
REMARK    4  A    between atoms: C_13  and  C_14 
REMARK       I    between atoms: C_14  and  N_15 
REMARK    5  A    between atoms: N_15  and  C_16 
REMARK    6  A    between atoms: N_19  and  C_21 
REMARK    7  A    between atoms: C_21  and  C_22 
ROOT
HETATM    1  C   UNL     1     -41.931  59.350 -51.428  1.00  0.00     0.110 C 
ENDROOT
BRANCH   1   2
HETATM    2  C   UNL     1     -40.790  58.899 -52.321  1.00  0.00     0.088 C 
BRANCH   2   3
HETATM    3  C   UNL     1     -41.261  57.949 -53.392  1.00  0.00     0.109 A 
HETATM    4  N   UNL     1     -41.145  56.666 -53.194  1.00  0.00    -0.215 NA
HETATM    5  C   UNL     1     -41.588  55.912 -54.243  1.00  0.00     0.170 A 
HETATM    6  N   UNL     1     -41.501  54.528 -54.416  1.00  0.00    -0.215 N 
HETATM    7  C   UNL     1     -42.188  56.394 -55.386  1.00  0.00     0.099 A 
HETATM    8  N   UNL     1     -42.148  54.146 -55.562  1.00  0.00    -0.177 NA
HETATM    9  C   UNL     1     -42.519  55.282 -56.152  1.00  0.00     0.160 A 
HETATM   10  C   UNL     1     -42.345  57.805 -55.564  1.00  0.00     0.262 A 
HETATM   11  N   UNL     1     -41.824  58.530 -54.510  1.00  0.00    -0.311 N 
HETATM   12  O   UNL     1     -42.875  58.333 -56.531  1.00  0.00    -0.267 OA
HETATM   13  H   UNL     1     -41.893  59.533 -54.615  1.00  0.00     0.170 HD
BRANCH   6  14
HETATM   14  C   UNL     1     -40.851  53.543 -53.611  1.00  0.00     0.060 A 
HETATM   15  C   UNL     1     -40.242  52.444 -54.240  1.00  0.00     0.031 A 
HETATM   16  C   UNL     1     -39.568  51.478 -53.490  1.00  0.00     0.002 A 
HETATM   17  C   UNL     1     -39.493  51.599 -52.106  1.00  0.00     0.000 A 
HETATM   18  C   UNL     1     -40.091  52.686 -51.471  1.00  0.00     0.002 A 
HETATM   19  C   UNL     1     -40.767  53.657 -52.217  1.00  0.00     0.031 A 
ENDBRANCH   6  14
ENDBRANCH   2   3
ENDBRANCH   1   2
BRANCH   1  20
HETATM   20  C   UNL     1     -42.658  60.640 -51.781  1.00  0.00     0.218 C 
HETATM   21  N   UNL     1     -43.202  61.369 -50.744  1.00  0.00    -0.356 N 
HETATM   22  H   UNL     1     -43.539  60.801 -49.967  1.00  0.00     0.162 HD
HETATM   23  O   UNL     1     -42.600  61.067 -52.931  1.00  0.00    -0.274 OA
BRANCH  21  24
HETATM   24  C   UNL     1     -43.943  62.633 -50.900  1.00  0.00     0.087 C 
HETATM   25  C   UNL     1     -43.865  63.640 -49.747  1.00  0.00     0.053 C 
HETATM   26  C   UNL     1     -44.419  63.063 -48.457  1.00  0.00     0.237 C 
HETATM   27  N   UNL     1     -45.862  62.636 -48.656  1.00  0.00    -0.067 N 
HETATM   28  H   UNL     1     -46.408  63.496 -48.796  1.00  0.00     0.280 HD
HETATM   29  C   UNL     1     -46.061  61.739 -49.859  1.00  0.00     0.237 C 
HETATM   30  C   UNL     1     -45.427  62.321 -51.118  1.00  0.00     0.053 C 
BRANCH  27  31
HETATM   31  C   UNL     1     -46.434  61.960 -47.418  1.00  0.00     0.273 C 
BRANCH  31  32
HETATM   32  C   UNL     1     -45.653  62.181 -46.151  1.00  0.00    -0.033 A 
HETATM   33  C   UNL     1     -45.670  63.424 -45.501  1.00  0.00     0.010 A 
HETATM   34  C   UNL     1     -44.936  63.614 -44.325  1.00  0.00     0.024 A 
HETATM   35  C   UNL     1     -44.177  62.570 -43.798  1.00  0.00     0.034 A 
HETATM   36 CL   UNL     1     -43.277  62.810 -42.354  1.00  0.00    -0.084 Cl
HETATM   37  C   UNL     1     -44.148  61.333 -44.435  1.00  0.00     0.024 A 
HETATM   38  C   UNL     1     -44.884  61.138 -45.606  1.00  0.00     0.010 A 
ENDBRANCH  31  32
ENDBRANCH  27  31
ENDBRANCH  21  24
ENDBRANCH   1  20
TORSDOF 7
ENDMDL
MODEL 10
REMARK VINA RESULT:      -8.5      6.154     10.066
REMARK  7 active torsions:
REMARK  status: ('A' for Active; 'I' for Inactive)
REMARK    1  A    between atoms: C_4  and  N_5 
REMARK    2  A    between atoms: C_11  and  C_12 
REMARK    3  A    between atoms: C_12  and  C_13 
REMARK    4  A    between atoms: C_13  and  C_14 
REMARK       I    between atoms: C_14  and  N_15 
REMARK    5  A    between atoms: N_15  and  C_16 
REMARK    6  A    between atoms: N_19  and  C_21 
REMARK    7  A    between atoms: C_21  and  C_22 
ROOT
HETATM    1  C   UNL     1     -44.490  57.179 -53.516  1.00  0.00     0.110 C 
ENDROOT
BRANCH   1   2
HETATM    2  C   UNL     1     -43.456  56.162 -53.963  1.00  0.00     0.088 C 
BRANCH   2   3
HETATM    3  C   UNL     1     -42.509  55.801 -52.847  1.00  0.00     0.109 A 
HETATM    4  N   UNL     1     -41.775  54.729 -52.964  1.00  0.00    -0.215 NA
HETATM    5  C   UNL     1     -40.974  54.499 -51.883  1.00  0.00     0.170 A 
HETATM    6  N   UNL     1     -40.162  53.392 -51.623  1.00  0.00    -0.215 N 
HETATM    7  C   UNL     1     -40.843  55.323 -50.786  1.00  0.00     0.099 A 
HETATM    8  N   UNL     1     -39.443  53.583 -50.472  1.00  0.00    -0.177 NA
HETATM    9  C   UNL     1     -39.894  54.729 -49.962  1.00  0.00     0.160 A 
HETATM   10  C   UNL     1     -41.626  56.517 -50.699  1.00  0.00     0.262 A 
HETATM   11  N   UNL     1     -42.469  56.676 -51.781  1.00  0.00    -0.311 N 
HETATM   12  O   UNL     1     -41.574  57.321 -49.779  1.00  0.00    -0.267 OA
HETATM   13  H   UNL     1     -43.057  57.496 -51.740  1.00  0.00     0.170 HD
BRANCH   6  14
HETATM   14  C   UNL     1     -40.017  52.171 -52.351  1.00  0.00     0.060 A 
HETATM   15  C   UNL     1     -39.655  51.005 -51.655  1.00  0.00     0.031 A 
HETATM   16  C   UNL     1     -39.537  49.785 -52.325  1.00  0.00     0.002 A 
HETATM   17  C   UNL     1     -39.780  49.716 -53.694  1.00  0.00     0.000 A 
HETATM   18  C   UNL     1     -40.142  50.865 -54.393  1.00  0.00     0.002 A 
HETATM   19  C   UNL     1     -40.263  52.090 -53.727  1.00  0.00     0.031 A 
ENDBRANCH   6  14
ENDBRANCH   2   3
ENDBRANCH   1   2
BRANCH   1  20
HETATM   20  C   UNL     1     -44.209  58.653 -53.768  1.00  0.00     0.218 C 
HETATM   21  N   UNL     1     -44.439  59.137 -55.038  1.00  0.00    -0.356 N 
HETATM   22  H   UNL     1     -44.263  58.460 -55.780  1.00  0.00     0.162 HD
HETATM   23  O   UNL     1     -43.950  59.386 -52.817  1.00  0.00    -0.274 OA
BRANCH  21  24
HETATM   24  C   UNL     1     -44.217  60.531 -55.463  1.00  0.00     0.087 C 
HETATM   25  C   UNL     1     -44.841  60.968 -56.792  1.00  0.00     0.053 C 
HETATM   26  C   UNL     1     -44.308  60.156 -57.959  1.00  0.00     0.237 C 
HETATM   27  N   UNL     1     -42.799  60.293 -58.041  1.00  0.00    -0.067 N 
HETATM   28  H   UNL     1     -42.604  61.266 -58.310  1.00  0.00     0.280 HD
HETATM   29  C   UNL     1     -42.099  60.006 -56.730  1.00  0.00     0.237 C 
HETATM   30  C   UNL     1     -42.711  60.788 -55.572  1.00  0.00     0.053 C 
BRANCH  27  31
HETATM   31  C   UNL     1     -42.204  59.417 -59.135  1.00  0.00     0.273 C 
BRANCH  31  32
HETATM   32  C   UNL     1     -42.813  58.047 -59.258  1.00  0.00    -0.033 A 
HETATM   33  C   UNL     1     -43.613  57.709 -60.360  1.00  0.00     0.010 A 
HETATM   34  C   UNL     1     -44.174  56.431 -60.458  1.00  0.00     0.024 A 
HETATM   35  C   UNL     1     -43.948  55.489 -59.456  1.00  0.00     0.034 A 
HETATM   36 CL   UNL     1     -44.641  53.922 -59.581  1.00  0.00    -0.084 Cl
HETATM   37  C   UNL     1     -43.161  55.813 -58.355  1.00  0.00     0.024 A 
HETATM   38  C   UNL     1     -42.593  57.085 -58.256  1.00  0.00     0.010 A 
ENDBRANCH  31  32
ENDBRANCH  27  31
ENDBRANCH  21  24
ENDBRANCH   1  20
TORSDOF 7
ENDMDL
