MODEL 1
REMARK VINA RESULT:      -8.4      0.000      0.000
REMARK  3 active torsions:
REMARK  status: ('A' for Active; 'I' for Inactive)
REMARK    1  A    between atoms: C_3  and  N_4 
REMARK       I    between atoms: N_4  and  C_5 
REMARK    2  A    between atoms: C_5  and  C_6 
REMARK    3  A    between atoms: C_6  and  C_7 
ROOT
HETATM    1  C   UNL     1     -42.150  55.188 -50.486  1.00  0.00     0.286 C 
HETATM    2  N   UNL     1     -41.343  56.256 -51.221  1.00  0.00    -0.056 N 
HETATM    3  H   UNL     1     -41.425  57.122 -50.672  1.00  0.00     0.278 HD
HETATM    4  H   UNL     1     -40.335  56.005 -51.136  1.00  0.00     0.278 HD
HETATM    5  C   UNL     1     -41.712  56.562 -52.642  1.00  0.00     0.209 C 
HETATM    6  C   UNL     1     -43.243  56.759 -52.747  1.00  0.00     0.115 C 
HETATM    7  N   UNL     1     -43.999  55.705 -52.075  1.00  0.00    -0.353 N 
HETATM    8  C   UNL     1     -43.642  55.191 -50.854  1.00  0.00     0.249 C 
HETATM    9  O   UNL     1     -44.484  54.652 -50.145  1.00  0.00    -0.271 OA
HETATM   10  C   UNL     1     -41.156  55.499 -53.588  1.00  0.00     0.035 C 
HETATM   11  C   UNL     1     -41.606  55.747 -55.025  1.00  0.00     0.002 C 
HETATM   12  C   UNL     1     -43.127  55.818 -55.115  1.00  0.00     0.002 C 
HETATM   13  C   UNL     1     -43.689  56.910 -54.206  1.00  0.00     0.027 C 
HETATM   14  H   UNL     1     -45.009  55.688 -52.213  1.00  0.00     0.163 HD
ENDROOT
BRANCH   1  15
HETATM   15  C   UNL     1     -41.627  53.755 -50.678  1.00  0.00     0.146 C 
BRANCH  15  16
HETATM   16  C   UNL     1     -40.153  53.609 -50.439  1.00  0.00     0.224 C 
HETATM   17  N   UNL     1     -39.386  52.753 -51.159  1.00  0.00    -0.325 N 
HETATM   18  H   UNL     1     -38.402  52.796 -50.888  1.00  0.00     0.169 HD
HETATM   19  O   UNL     1     -39.608  54.338 -49.599  1.00  0.00    -0.273 OA
BRANCH  17  20
HETATM   20  C   UNL     1     -39.628  51.849 -52.217  1.00  0.00     0.073 A 
HETATM   21  C   UNL     1     -39.976  52.174 -53.527  1.00  0.00     0.033 A 
HETATM   22  C   UNL     1     -40.169  51.161 -54.479  1.00  0.00     0.002 A 
HETATM   23  C   UNL     1     -40.020  49.819 -54.135  1.00  0.00     0.003 A 
HETATM   24  C   UNL     1     -39.680  49.478 -52.831  1.00  0.00     0.044 A 
HETATM   25  C   UNL     1     -39.492  50.488 -51.893  1.00  0.00     0.143 A 
HETATM   26  F   UNL     1     -39.156  50.148 -50.638  1.00  0.00    -0.204 F 
ENDBRANCH  17  20
ENDBRANCH  15  16
ENDBRANCH   1  15
TORSDOF 3
ENDMDL
MODEL 2
REMARK VINA RESULT:      -7.7      2.105      2.723
REMARK  3 active torsions:
REMARK  status: ('A' for Active; 'I' for Inactive)
REMARK    1  A    between atoms: C_3  and  N_4 
REMARK       I    between atoms: N_4  and  C_5 
REMARK    2  A    between atoms: C_5  and  C_6 
REMARK    3  A    between atoms: C_6  and  C_7 
ROOT
HETATM    1  C   UNL     1     -41.859  54.974 -52.741  1.00  0.00     0.286 C 
HETATM    2  N   UNL     1     -41.359  56.302 -53.307  1.00  0.00    -0.056 N 
HETATM    3  H   UNL     1     -40.868  56.785 -52.544  1.00  0.00     0.278 HD
HETATM    4  H   UNL     1     -40.603  56.090 -53.992  1.00  0.00     0.278 HD
HETATM    5  C   UNL     1     -42.372  57.245 -53.886  1.00  0.00     0.209 C 
HETATM    6  C   UNL     1     -43.558  57.395 -52.906  1.00  0.00     0.115 C 
HETATM    7  N   UNL     1     -44.050  56.112 -52.408  1.00  0.00    -0.353 N 
HETATM    8  C   UNL     1     -43.219  55.086 -52.037  1.00  0.00     0.249 C 
HETATM    9  O   UNL     1     -43.613  54.230 -51.252  1.00  0.00    -0.271 OA
HETATM   10  C   UNL     1     -42.780  56.805 -55.293  1.00  0.00     0.035 C 
HETATM   11  C   UNL     1     -43.880  57.701 -55.854  1.00  0.00     0.002 C 
HETATM   12  C   UNL     1     -45.086  57.736 -54.920  1.00  0.00     0.002 C 
HETATM   13  C   UNL     1     -44.696  58.217 -53.523  1.00  0.00     0.027 C 
HETATM   14  H   UNL     1     -44.913  56.117 -51.865  1.00  0.00     0.163 HD
ENDROOT
BRANCH   1  15
HETATM   15  C   UNL     1     -41.964  53.843 -53.779  1.00  0.00     0.146 C 
BRANCH  15  16
HETATM   16  C   UNL     1     -40.688  53.581 -54.523  1.00  0.00     0.224 C 
HETATM   17  N   UNL     1     -39.807  52.626 -54.133  1.00  0.00    -0.325 N 
HETATM   18  H   UNL     1     -39.006  52.560 -54.763  1.00  0.00     0.169 HD
HETATM   19  O   UNL     1     -40.460  54.216 -55.562  1.00  0.00    -0.273 OA
BRANCH  17  20
HETATM   20  C   UNL     1     -39.764  51.682 -53.083  1.00  0.00     0.073 A 
HETATM   21  C   UNL     1     -39.828  51.950 -51.717  1.00  0.00     0.033 A 
HETATM   22  C   UNL     1     -39.791  50.900 -50.787  1.00  0.00     0.002 A 
HETATM   23  C   UNL     1     -39.689  49.576 -51.209  1.00  0.00     0.003 A 
HETATM   24  C   UNL     1     -39.617  49.292 -52.567  1.00  0.00     0.044 A 
HETATM   25  C   UNL     1     -39.653  50.338 -53.483  1.00  0.00     0.143 A 
HETATM   26  F   UNL     1     -39.591  50.053 -54.793  1.00  0.00    -0.204 F 
ENDBRANCH  17  20
ENDBRANCH  15  16
ENDBRANCH   1  15
TORSDOF 3
ENDMDL
MODEL 3
REMARK VINA RESULT:      -7.4      1.904      2.589
REMARK  3 active torsions:
REMARK  status: ('A' for Active; 'I' for Inactive)
REMARK    1  A    between atoms: C_3  and  N_4 
REMARK       I    between atoms: N_4  and  C_5 
REMARK    2  A    between atoms: C_5  and  C_6 
REMARK    3  A    between atoms: C_6  and  C_7 
ROOT
HETATM    1  C   UNL     1     -43.061  54.723 -53.291  1.00  0.00     0.286 C 
HETATM    2  N   UNL     1     -43.775  55.698 -52.358  1.00  0.00    -0.056 N 
HETATM    3  H   UNL     1     -44.656  55.250 -52.075  1.00  0.00     0.278 HD
HETATM    4  H   UNL     1     -43.228  55.746 -51.471  1.00  0.00     0.278 HD
HETATM    5  C   UNL     1     -44.089  57.069 -52.879  1.00  0.00     0.209 C 
HETATM    6  C   UNL     1     -44.747  56.952 -54.275  1.00  0.00     0.115 C 
HETATM    7  N   UNL     1     -44.027  56.047 -55.168  1.00  0.00    -0.353 N 
HETATM    8  C   UNL     1     -43.507  54.847 -54.756  1.00  0.00     0.249 C 
HETATM    9  O   UNL     1     -43.304  53.954 -55.572  1.00  0.00    -0.271 OA
HETATM   10  C   UNL     1     -42.847  57.959 -52.851  1.00  0.00     0.035 C 
HETATM   11  C   UNL     1     -43.131  59.325 -53.469  1.00  0.00     0.002 C 
HETATM   12  C   UNL     1     -43.668  59.180 -54.890  1.00  0.00     0.002 C 
HETATM   13  C   UNL     1     -44.937  58.329 -54.922  1.00  0.00     0.027 C 
HETATM   14  H   UNL     1     -44.318  56.020 -56.145  1.00  0.00     0.163 HD
ENDROOT
BRANCH   1  15
HETATM   15  C   UNL     1     -41.527  54.825 -53.262  1.00  0.00     0.146 C 
BRANCH  15  16
HETATM   16  C   UNL     1     -40.923  54.505 -51.926  1.00  0.00     0.224 C 
HETATM   17  N   UNL     1     -40.340  53.309 -51.665  1.00  0.00    -0.325 N 
HETATM   18  H   UNL     1     -39.955  53.266 -50.720  1.00  0.00     0.169 HD
HETATM   19  O   UNL     1     -40.902  55.384 -51.053  1.00  0.00    -0.273 OA
BRANCH  17  20
HETATM   20  C   UNL     1     -40.108  52.131 -52.410  1.00  0.00     0.073 A 
HETATM   21  C   UNL     1     -40.111  52.009 -53.798  1.00  0.00     0.033 A 
HETATM   22  C   UNL     1     -39.845  50.770 -54.399  1.00  0.00     0.002 A 
HETATM   23  C   UNL     1     -39.577  49.643 -53.625  1.00  0.00     0.003 A 
HETATM   24  C   UNL     1     -39.577  49.746 -52.239  1.00  0.00     0.044 A 
HETATM   25  C   UNL     1     -39.843  50.978 -51.651  1.00  0.00     0.143 A 
HETATM   26  F   UNL     1     -39.833  51.069 -50.311  1.00  0.00    -0.204 F 
ENDBRANCH  17  20
ENDBRANCH  15  16
ENDBRANCH   1  15
TORSDOF 3
ENDMDL
MODEL 4
REMARK VINA RESULT:      -7.1     13.451     15.116
REMARK  3 active torsions:
REMARK  status: ('A' for Active; 'I' for Inactive)
REMARK    1  A    between atoms: C_3  and  N_4 
REMARK       I    between atoms: N_4  and  C_5 
REMARK    2  A    between atoms: C_5  and  C_6 
REMARK    3  A    between atoms: C_6  and  C_7 
ROOT
HETATM    1  C   UNL     1     -36.759  40.147 -54.321  1.00  0.00     0.286 C 
HETATM    2  N   UNL     1     -37.813  41.128 -54.830  1.00  0.00    -0.056 N 
HETATM    3  H   UNL     1     -38.717  40.820 -54.449  1.00  0.00     0.278 HD
HETATM    4  H   UNL     1     -37.646  42.044 -54.359  1.00  0.00     0.278 HD
HETATM    5  C   UNL     1     -37.959  41.296 -56.313  1.00  0.00     0.209 C 
HETATM    6  C   UNL     1     -38.030  39.905 -56.986  1.00  0.00     0.115 C 
HETATM    7  N   UNL     1     -36.989  38.993 -56.517  1.00  0.00    -0.353 N 
HETATM    8  C   UNL     1     -36.617  38.896 -55.200  1.00  0.00     0.249 C 
HETATM    9  O   UNL     1     -36.084  37.872 -54.787  1.00  0.00    -0.271 OA
HETATM   10  C   UNL     1     -36.858  42.199 -56.869  1.00  0.00     0.035 C 
HETATM   11  C   UNL     1     -36.940  42.298 -58.389  1.00  0.00     0.002 C 
HETATM   12  C   UNL     1     -36.889  40.915 -59.030  1.00  0.00     0.002 C 
HETATM   13  C   UNL     1     -38.014  40.020 -58.514  1.00  0.00     0.027 C 
HETATM   14  H   UNL     1     -36.885  38.105 -57.008  1.00  0.00     0.163 HD
ENDROOT
BRANCH   1  15
HETATM   15  C   UNL     1     -35.357  40.756 -54.149  1.00  0.00     0.146 C 
BRANCH  15  16
HETATM   16  C   UNL     1     -35.318  41.941 -53.230  1.00  0.00     0.224 C 
HETATM   17  N   UNL     1     -34.586  41.945 -52.088  1.00  0.00    -0.325 N 
HETATM   18  H   UNL     1     -34.648  42.837 -51.594  1.00  0.00     0.169 HD
HETATM   19  O   UNL     1     -35.925  42.971 -53.556  1.00  0.00    -0.273 OA
BRANCH  17  20
HETATM   20  C   UNL     1     -33.732  41.019 -51.450  1.00  0.00     0.073 A 
HETATM   21  C   UNL     1     -32.386  40.794 -51.733  1.00  0.00     0.033 A 
HETATM   22  C   UNL     1     -31.657  39.847 -50.998  1.00  0.00     0.002 A 
HETATM   23  C   UNL     1     -32.262  39.114 -49.979  1.00  0.00     0.003 A 
HETATM   24  C   UNL     1     -33.605  39.321 -49.689  1.00  0.00     0.044 A 
HETATM   25  C   UNL     1     -34.321  40.261 -50.423  1.00  0.00     0.143 A 
HETATM   26  F   UNL     1     -35.617  40.459 -50.130  1.00  0.00    -0.204 F 
ENDBRANCH  17  20
ENDBRANCH  15  16
ENDBRANCH   1  15
TORSDOF 3
ENDMDL
MODEL 5
REMARK VINA RESULT:      -7.1     13.340     15.952
REMARK  3 active torsions:
REMARK  status: ('A' for Active; 'I' for Inactive)
REMARK    1  A    between atoms: C_3  and  N_4 
REMARK       I    between atoms: N_4  and  C_5 
REMARK    2  A    between atoms: C_5  and  C_6 
REMARK    3  A    between atoms: C_6  and  C_7 
ROOT
HETATM    1  C   UNL     1     -34.543  40.044 -54.182  1.00  0.00     0.286 C 
HETATM    2  N   UNL     1     -33.379  40.872 -53.640  1.00  0.00    -0.056 N 
HETATM    3  H   UNL     1     -32.657  40.887 -54.373  1.00  0.00     0.278 HD
HETATM    4  H   UNL     1     -33.695  41.864 -53.585  1.00  0.00     0.278 HD
HETATM    5  C   UNL     1     -32.740  40.430 -52.357  1.00  0.00     0.209 C 
HETATM    6  C   UNL     1     -32.445  38.913 -52.423  1.00  0.00     0.115 C 
HETATM    7  N   UNL     1     -33.582  38.133 -52.903  1.00  0.00    -0.353 N 
HETATM    8  C   UNL     1     -34.378  38.535 -53.946  1.00  0.00     0.249 C 
HETATM    9  O   UNL     1     -35.019  37.707 -54.584  1.00  0.00    -0.271 OA
HETATM   10  C   UNL     1     -33.588  40.847 -51.156  1.00  0.00     0.035 C 
HETATM   11  C   UNL     1     -32.997  40.319 -49.852  1.00  0.00     0.002 C 
HETATM   12  C   UNL     1     -32.828  38.804 -49.903  1.00  0.00     0.002 C 
HETATM   13  C   UNL     1     -31.943  38.381 -51.075  1.00  0.00     0.027 C 
HETATM   14  H   UNL     1     -33.515  37.117 -52.847  1.00  0.00     0.163 HD
ENDROOT
BRANCH   1  15
HETATM   15  C   UNL     1     -35.921  40.453 -53.634  1.00  0.00     0.146 C 
BRANCH  15  16
HETATM   16  C   UNL     1     -36.250  41.902 -53.839  1.00  0.00     0.224 C 
HETATM   17  N   UNL     1     -36.774  42.366 -55.000  1.00  0.00    -0.325 N 
HETATM   18  H   UNL     1     -36.964  43.369 -54.964  1.00  0.00     0.169 HD
HETATM   19  O   UNL     1     -36.095  42.689 -52.895  1.00  0.00    -0.273 OA
BRANCH  17  20
HETATM   20  C   UNL     1     -37.151  41.777 -56.227  1.00  0.00     0.073 A 
HETATM   21  C   UNL     1     -38.298  41.025 -56.473  1.00  0.00     0.033 A 
HETATM   22  C   UNL     1     -38.549  40.515 -57.756  1.00  0.00     0.002 A 
HETATM   23  C   UNL     1     -37.660  40.748 -58.804  1.00  0.00     0.003 A 
HETATM   24  C   UNL     1     -36.508  41.490 -58.574  1.00  0.00     0.044 A 
HETATM   25  C   UNL     1     -36.266  41.991 -57.298  1.00  0.00     0.143 A 
HETATM   26  F   UNL     1     -35.153  42.714 -57.089  1.00  0.00    -0.204 F 
ENDBRANCH  17  20
ENDBRANCH  15  16
ENDBRANCH   1  15
TORSDOF 3
ENDMDL
MODEL 6
REMARK VINA RESULT:      -7.1      3.468      5.136
REMARK  3 active torsions:
REMARK  status: ('A' for Active; 'I' for Inactive)
REMARK    1  A    between atoms: C_3  and  N_4 
REMARK       I    between atoms: N_4  and  C_5 
REMARK    2  A    between atoms: C_5  and  C_6 
REMARK    3  A    between atoms: C_6  and  C_7 
ROOT
HETATM    1  C   UNL     1     -43.437  58.916 -54.204  1.00  0.00     0.286 C 
HETATM    2  N   UNL     1     -44.007  58.732 -52.799  1.00  0.00    -0.056 N 
HETATM    3  H   UNL     1     -44.633  59.530 -52.624  1.00  0.00     0.278 HD
HETATM    4  H   UNL     1     -44.653  57.913 -52.824  1.00  0.00     0.278 HD
HETATM    5  C   UNL     1     -43.042  58.632 -51.655  1.00  0.00     0.209 C 
HETATM    6  C   UNL     1     -42.000  59.770 -51.758  1.00  0.00     0.115 C 
HETATM    7  N   UNL     1     -41.434  59.903 -53.098  1.00  0.00    -0.353 N 
HETATM    8  C   UNL     1     -42.187  59.808 -54.241  1.00  0.00     0.249 C 
HETATM    9  O   UNL     1     -41.796  60.331 -55.279  1.00  0.00    -0.271 OA
HETATM   10  C   UNL     1     -42.430  57.233 -51.584  1.00  0.00     0.035 C 
HETATM   11  C   UNL     1     -41.374  57.148 -50.485  1.00  0.00     0.002 C 
HETATM   12  C   UNL     1     -40.295  58.208 -50.680  1.00  0.00     0.002 C 
HETATM   13  C   UNL     1     -40.894  59.614 -50.707  1.00  0.00     0.027 C 
HETATM   14  H   UNL     1     -40.645  60.539 -53.216  1.00  0.00     0.163 HD
ENDROOT
BRANCH   1  15
HETATM   15  C   UNL     1     -43.092  57.602 -54.924  1.00  0.00     0.146 C 
BRANCH  15  16
HETATM   16  C   UNL     1     -44.109  56.516 -54.728  1.00  0.00     0.224 C 
HETATM   17  N   UNL     1     -43.755  55.223 -54.529  1.00  0.00    -0.325 N 
HETATM   18  H   UNL     1     -44.566  54.618 -54.386  1.00  0.00     0.169 HD
HETATM   19  O   UNL     1     -45.309  56.822 -54.687  1.00  0.00    -0.273 OA
BRANCH  17  20
HETATM   20  C   UNL     1     -42.527  54.531 -54.434  1.00  0.00     0.073 A 
HETATM   21  C   UNL     1     -41.543  54.440 -55.416  1.00  0.00     0.033 A 
HETATM   22  C   UNL     1     -40.360  53.727 -55.169  1.00  0.00     0.002 A 
HETATM   23  C   UNL     1     -40.148  53.097 -53.944  1.00  0.00     0.003 A 
HETATM   24  C   UNL     1     -41.122  53.172 -52.957  1.00  0.00     0.044 A 
HETATM   25  C   UNL     1     -42.293  53.879 -53.210  1.00  0.00     0.143 A 
HETATM   26  F   UNL     1     -43.225  53.952 -52.245  1.00  0.00    -0.204 F 
ENDBRANCH  17  20
ENDBRANCH  15  16
ENDBRANCH   1  15
TORSDOF 3
ENDMDL
MODEL 7
REMARK VINA RESULT:      -7.1      3.399      5.027
REMARK  3 active torsions:
REMARK  status: ('A' for Active; 'I' for Inactive)
REMARK    1  A    between atoms: C_3  and  N_4 
REMARK       I    between atoms: N_4  and  C_5 
REMARK    2  A    between atoms: C_5  and  C_6 
REMARK    3  A    between atoms: C_6  and  C_7 
ROOT
HETATM    1  C   UNL     1     -42.703  57.966 -54.635  1.00  0.00     0.286 C 
HETATM    2  N   UNL     1     -43.406  57.682 -53.309  1.00  0.00    -0.056 N 
HETATM    3  H   UNL     1     -44.338  58.112 -53.366  1.00  0.00     0.278 HD
HETATM    4  H   UNL     1     -43.608  56.660 -53.271  1.00  0.00     0.278 HD
HETATM    5  C   UNL     1     -42.745  58.154 -52.048  1.00  0.00     0.209 C 
HETATM    6  C   UNL     1     -42.309  59.629 -52.215  1.00  0.00     0.115 C 
HETATM    7  N   UNL     1     -41.602  59.874 -53.469  1.00  0.00    -0.353 N 
HETATM    8  C   UNL     1     -41.991  59.327 -54.666  1.00  0.00     0.249 C 
HETATM    9  O   UNL     1     -41.668  59.864 -55.720  1.00  0.00    -0.271 OA
HETATM   10  C   UNL     1     -41.611  57.213 -51.643  1.00  0.00     0.035 C 
HETATM   11  C   UNL     1     -40.870  57.736 -50.416  1.00  0.00     0.002 C 
HETATM   12  C   UNL     1     -40.348  59.150 -50.655  1.00  0.00     0.002 C 
HETATM   13  C   UNL     1     -41.482  60.108 -51.015  1.00  0.00     0.027 C 
HETATM   14  H   UNL     1     -41.164  60.787 -53.594  1.00  0.00     0.163 HD
ENDROOT
BRANCH   1  15
HETATM   15  C   UNL     1     -41.681  56.896 -55.053  1.00  0.00     0.146 C 
BRANCH  15  16
HETATM   16  C   UNL     1     -42.301  55.656 -55.626  1.00  0.00     0.224 C 
HETATM   17  N   UNL     1     -42.442  54.518 -54.901  1.00  0.00    -0.325 N 
HETATM   18  H   UNL     1     -42.906  53.778 -55.430  1.00  0.00     0.169 HD
HETATM   19  O   UNL     1     -42.754  55.690 -56.778  1.00  0.00    -0.273 OA
BRANCH  17  20
HETATM   20  C   UNL     1     -42.130  54.138 -53.576  1.00  0.00     0.073 A 
HETATM   21  C   UNL     1     -42.988  54.161 -52.479  1.00  0.00     0.033 A 
HETATM   22  C   UNL     1     -42.539  53.733 -51.220  1.00  0.00     0.002 A 
HETATM   23  C   UNL     1     -41.232  53.282 -51.044  1.00  0.00     0.003 A 
HETATM   24  C   UNL     1     -40.362  53.259 -52.127  1.00  0.00     0.044 A 
HETATM   25  C   UNL     1     -40.814  53.686 -53.371  1.00  0.00     0.143 A 
HETATM   26  F   UNL     1     -39.968  53.652 -54.413  1.00  0.00    -0.204 F 
ENDBRANCH  17  20
ENDBRANCH  15  16
ENDBRANCH   1  15
TORSDOF 3
ENDMDL
MODEL 8
REMARK VINA RESULT:      -6.9     13.887     15.576
REMARK  3 active torsions:
REMARK  status: ('A' for Active; 'I' for Inactive)
REMARK    1  A    between atoms: C_3  and  N_4 
REMARK       I    between atoms: N_4  and  C_5 
REMARK    2  A    between atoms: C_5  and  C_6 
REMARK    3  A    between atoms: C_6  and  C_7 
ROOT
HETATM    1  C   UNL     1     -33.201  40.470 -52.759  1.00  0.00     0.286 C 
HETATM    2  N   UNL     1     -34.221  41.596 -52.606  1.00  0.00    -0.056 N 
HETATM    3  H   UNL     1     -33.755  42.352 -52.087  1.00  0.00     0.278 HD
HETATM    4  H   UNL     1     -34.382  42.009 -53.550  1.00  0.00     0.278 HD
HETATM    5  C   UNL     1     -35.517  41.283 -51.919  1.00  0.00     0.209 C 
HETATM    6  C   UNL     1     -35.234  40.519 -50.605  1.00  0.00     0.115 C 
HETATM    7  N   UNL     1     -34.289  39.419 -50.779  1.00  0.00    -0.353 N 
HETATM    8  C   UNL     1     -33.162  39.517 -51.555  1.00  0.00     0.249 C 
HETATM    9  O   UNL     1     -32.208  38.775 -51.349  1.00  0.00    -0.271 OA
HETATM   10  C   UNL     1     -36.471  40.556 -52.867  1.00  0.00     0.035 C 
HETATM   11  C   UNL     1     -37.755  40.146 -52.151  1.00  0.00     0.002 C 
HETATM   12  C   UNL     1     -37.448  39.294 -50.923  1.00  0.00     0.002 C 
HETATM   13  C   UNL     1     -36.531  40.031 -49.948  1.00  0.00     0.027 C 
HETATM   14  H   UNL     1     -34.153  38.784 -49.991  1.00  0.00     0.163 HD
ENDROOT
BRANCH   1  15
HETATM   15  C   UNL     1     -33.388  39.614 -54.024  1.00  0.00     0.146 C 
BRANCH  15  16
HETATM   16  C   UNL     1     -32.923  40.284 -55.284  1.00  0.00     0.224 C 
HETATM   17  N   UNL     1     -33.792  40.748 -56.217  1.00  0.00    -0.325 N 
HETATM   18  H   UNL     1     -33.313  41.199 -56.998  1.00  0.00     0.169 HD
HETATM   19  O   UNL     1     -31.711  40.474 -55.448  1.00  0.00    -0.273 OA
BRANCH  17  20
HETATM   20  C   UNL     1     -35.199  40.784 -56.335  1.00  0.00     0.073 A 
HETATM   21  C   UNL     1     -36.038  39.713 -56.638  1.00  0.00     0.033 A 
HETATM   22  C   UNL     1     -37.427  39.900 -56.704  1.00  0.00     0.002 A 
HETATM   23  C   UNL     1     -37.992  41.153 -56.472  1.00  0.00     0.003 A 
HETATM   24  C   UNL     1     -37.168  42.233 -56.177  1.00  0.00     0.044 A 
HETATM   25  C   UNL     1     -35.792  42.040 -56.114  1.00  0.00     0.143 A 
HETATM   26  F   UNL     1     -35.006  43.088 -55.819  1.00  0.00    -0.204 F 
ENDBRANCH  17  20
ENDBRANCH  15  16
ENDBRANCH   1  15
TORSDOF 3
ENDMDL
MODEL 9
REMARK VINA RESULT:      -6.9      3.984      6.867
REMARK  3 active torsions:
REMARK  status: ('A' for Active; 'I' for Inactive)
REMARK    1  A    between atoms: C_3  and  N_4 
REMARK       I    between atoms: N_4  and  C_5 
REMARK    2  A    between atoms: C_5  and  C_6 
REMARK    3  A    between atoms: C_6  and  C_7 
ROOT
HETATM    1  C   UNL     1     -43.239  57.329 -53.475  1.00  0.00     0.286 C 
HETATM    2  N   UNL     1     -43.883  55.986 -53.137  1.00  0.00    -0.056 N 
HETATM    3  H   UNL     1     -44.308  56.085 -52.206  1.00  0.00     0.278 HD
HETATM    4  H   UNL     1     -44.702  55.859 -53.770  1.00  0.00     0.278 HD
HETATM    5  C   UNL     1     -43.007  54.769 -53.128  1.00  0.00     0.209 C 
HETATM    6  C   UNL     1     -41.723  55.062 -52.317  1.00  0.00     0.115 C 
HETATM    7  N   UNL     1     -41.097  56.331 -52.683  1.00  0.00    -0.353 N 
HETATM    8  C   UNL     1     -41.813  57.476 -52.921  1.00  0.00     0.249 C 
HETATM    9  O   UNL     1     -41.276  58.572 -52.802  1.00  0.00    -0.271 OA
HETATM   10  C   UNL     1     -42.744  54.278 -54.551  1.00  0.00     0.035 C 
HETATM   11  C   UNL     1     -41.776  53.099 -54.560  1.00  0.00     0.002 C 
HETATM   12  C   UNL     1     -40.471  53.458 -53.855  1.00  0.00     0.002 C 
HETATM   13  C   UNL     1     -40.721  53.906 -52.416  1.00  0.00     0.027 C 
HETATM   14  H   UNL     1     -40.177  56.533 -52.292  1.00  0.00     0.163 HD
ENDROOT
BRANCH   1  15
HETATM   15  C   UNL     1     -43.189  57.648 -54.978  1.00  0.00     0.146 C 
BRANCH  15  16
HETATM   16  C   UNL     1     -44.516  57.529 -55.668  1.00  0.00     0.224 C 
HETATM   17  N   UNL     1     -44.628  57.514 -57.020  1.00  0.00    -0.325 N 
HETATM   18  H   UNL     1     -45.596  57.400 -57.325  1.00  0.00     0.169 HD
HETATM   19  O   UNL     1     -45.536  57.377 -54.982  1.00  0.00    -0.273 OA
BRANCH  17  20
HETATM   20  C   UNL     1     -43.714  57.581 -58.095  1.00  0.00     0.073 A 
HETATM   21  C   UNL     1     -43.215  58.736 -58.695  1.00  0.00     0.033 A 
HETATM   22  C   UNL     1     -42.293  58.644 -59.749  1.00  0.00     0.002 A 
HETATM   23  C   UNL     1     -41.862  57.403 -60.215  1.00  0.00     0.003 A 
HETATM   24  C   UNL     1     -42.355  56.242 -59.632  1.00  0.00     0.044 A 
HETATM   25  C   UNL     1     -43.270  56.341 -58.589  1.00  0.00     0.143 A 
HETATM   26  F   UNL     1     -43.734  55.213 -58.027  1.00  0.00    -0.204 F 
ENDBRANCH  17  20
ENDBRANCH  15  16
ENDBRANCH   1  15
TORSDOF 3
ENDMDL
MODEL 10
REMARK VINA RESULT:      -6.8      3.890      6.675
REMARK  3 active torsions:
REMARK  status: ('A' for Active; 'I' for Inactive)
REMARK    1  A    between atoms: C_3  and  N_4 
REMARK       I    between atoms: N_4  and  C_5 
REMARK    2  A    between atoms: C_5  and  C_6 
REMARK    3  A    between atoms: C_6  and  C_7 
ROOT
HETATM    1  C   UNL     1     -43.291  56.188 -53.644  1.00  0.00     0.286 C 
HETATM    2  N   UNL     1     -43.788  55.014 -52.804  1.00  0.00    -0.056 N 
HETATM    3  H   UNL     1     -44.710  55.282 -52.433  1.00  0.00     0.278 HD
HETATM    4  H   UNL     1     -44.004  54.228 -53.455  1.00  0.00     0.278 HD
HETATM    5  C   UNL     1     -42.934  54.556 -51.660  1.00  0.00     0.209 C 
HETATM    6  C   UNL     1     -42.498  55.779 -50.819  1.00  0.00     0.115 C 
HETATM    7  N   UNL     1     -41.986  56.877 -51.636  1.00  0.00    -0.353 N 
HETATM    8  C   UNL     1     -42.563  57.261 -52.820  1.00  0.00     0.249 C 
HETATM    9  O   UNL     1     -42.394  58.399 -53.244  1.00  0.00    -0.271 OA
HETATM   10  C   UNL     1     -41.771  53.699 -52.159  1.00  0.00     0.035 C 
HETATM   11  C   UNL     1     -40.841  53.309 -51.014  1.00  0.00     0.002 C 
HETATM   12  C   UNL     1     -40.334  54.544 -50.277  1.00  0.00     0.002 C 
HETATM   13  C   UNL     1     -41.489  55.384 -49.735  1.00  0.00     0.027 C 
HETATM   14  H   UNL     1     -41.553  57.663 -51.152  1.00  0.00     0.163 HD
ENDROOT
BRANCH   1  15
HETATM   15  C   UNL     1     -42.366  55.789 -54.807  1.00  0.00     0.146 C 
BRANCH  15  16
HETATM   16  C   UNL     1     -43.027  54.923 -55.838  1.00  0.00     0.224 C 
HETATM   17  N   UNL     1     -43.171  55.317 -57.128  1.00  0.00    -0.325 N 
HETATM   18  H   UNL     1     -43.616  54.600 -57.703  1.00  0.00     0.169 HD
HETATM   19  O   UNL     1     -43.399  53.786 -55.515  1.00  0.00    -0.273 OA
BRANCH  17  20
HETATM   20  C   UNL     1     -42.811  56.470 -57.862  1.00  0.00     0.073 A 
HETATM   21  C   UNL     1     -42.456  57.712 -57.341  1.00  0.00     0.033 A 
HETATM   22  C   UNL     1     -42.104  58.765 -58.199  1.00  0.00     0.002 A 
HETATM   23  C   UNL     1     -42.105  58.590 -59.582  1.00  0.00     0.003 A 
HETATM   24  C   UNL     1     -42.464  57.359 -60.117  1.00  0.00     0.044 A 
HETATM   25  C   UNL     1     -42.813  56.321 -59.260  1.00  0.00     0.143 A 
HETATM   26  F   UNL     1     -43.151  55.133 -59.788  1.00  0.00    -0.204 F 
ENDBRANCH  17  20
ENDBRANCH  15  16
ENDBRANCH   1  15
TORSDOF 3
ENDMDL
