MODEL 1
REMARK VINA RESULT:      -8.4      0.000      0.000
REMARK  2 active torsions:
REMARK  status: ('A' for Active; 'I' for Inactive)
REMARK    1  A    between atoms: O_2  and  C_3 
REMARK    2  A    between atoms: C_9  and  N_10 
REMARK       I    between atoms: N_10  and  C_11 
REMARK       I    between atoms: C_11  and  N_12 
ROOT
HETATM    1  N   UNL     1     -42.847  57.505 -51.504  1.00  0.00    -0.306 N 
HETATM    2  C   UNL     1     -42.354  56.969 -52.667  1.00  0.00     0.323 C 
HETATM    3  N   UNL     1     -41.426  55.948 -52.494  1.00  0.00    -0.328 N 
HETATM    4  C   UNL     1     -40.979  55.257 -53.712  1.00  0.00     0.185 C 
HETATM    5  C   UNL     1     -40.598  53.863 -53.349  1.00  0.00     0.035 A 
HETATM    6  C   UNL     1     -40.438  53.349 -52.077  1.00  0.00    -0.020 A 
HETATM    7  C   UNL     1     -40.659  54.197 -50.873  1.00  0.00     0.061 C 
HETATM    8  C   UNL     1     -40.625  55.686 -51.274  1.00  0.00     0.132 C 
HETATM    9  N   UNL     1     -40.350  52.862 -54.245  1.00  0.00    -0.357 N 
HETATM   10  H   UNL     1     -40.399  52.945 -55.252  1.00  0.00     0.166 HD
HETATM   11  C   UNL     1     -40.042  51.697 -53.572  1.00  0.00     0.043 A 
HETATM   12  C   UNL     1     -40.094  51.978 -52.204  1.00  0.00    -0.001 A 
HETATM   13  C   UNL     1     -39.732  50.427 -54.071  1.00  0.00     0.030 A 
HETATM   14  C   UNL     1     -39.472  49.413 -53.145  1.00  0.00     0.002 A 
HETATM   15  C   UNL     1     -39.519  49.662 -51.775  1.00  0.00     0.001 A 
HETATM   16  C   UNL     1     -39.828  50.939 -51.291  1.00  0.00     0.014 A 
HETATM   17  O   UNL     1     -42.694  57.327 -53.793  1.00  0.00    -0.247 OA
HETATM   18  H   UNL     1     -42.677  56.992 -50.652  1.00  0.00     0.171 HD
ENDROOT
BRANCH   1  19
HETATM   19  C   UNL     1     -43.798  58.541 -51.346  1.00  0.00     0.071 A 
HETATM   20  C   UNL     1     -43.311  59.861 -51.302  1.00  0.00     0.116 A 
HETATM   21  C   UNL     1     -44.176  60.933 -51.050  1.00  0.00     0.069 A 
HETATM   22 CL   UNL     1     -43.597  62.553 -50.909  1.00  0.00    -0.081 Cl
HETATM   23  C   UNL     1     -45.543  60.703 -50.902  1.00  0.00     0.027 A 
HETATM   24  C   UNL     1     -46.040  59.403 -50.997  1.00  0.00     0.004 A 
HETATM   25  C   UNL     1     -45.173  58.328 -51.218  1.00  0.00     0.032 A 
BRANCH  20  26
HETATM   26  O   UNL     1     -41.956  60.069 -51.459  1.00  0.00    -0.352 OA
HETATM   27  C   UNL     1     -41.294  59.938 -50.197  1.00  0.00     0.210 C 
ENDBRANCH  20  26
ENDBRANCH   1  19
TORSDOF 2
ENDMDL
MODEL 2
REMARK VINA RESULT:      -8.1      3.582      8.525
REMARK  2 active torsions:
REMARK  status: ('A' for Active; 'I' for Inactive)
REMARK    1  A    between atoms: O_2  and  C_3 
REMARK    2  A    between atoms: C_9  and  N_10 
REMARK       I    between atoms: N_10  and  C_11 
REMARK       I    between atoms: C_11  and  N_12 
ROOT
HETATM    1  N   UNL     1     -40.848  53.850 -51.320  1.00  0.00    -0.306 N 
HETATM    2  C   UNL     1     -42.135  54.306 -51.188  1.00  0.00     0.323 C 
HETATM    3  N   UNL     1     -42.265  55.690 -51.145  1.00  0.00    -0.328 N 
HETATM    4  C   UNL     1     -43.637  56.218 -51.142  1.00  0.00     0.185 C 
HETATM    5  C   UNL     1     -43.622  57.568 -51.772  1.00  0.00     0.035 A 
HETATM    6  C   UNL     1     -42.512  58.328 -52.086  1.00  0.00    -0.020 A 
HETATM    7  C   UNL     1     -41.137  57.826 -51.815  1.00  0.00     0.061 C 
HETATM    8  C   UNL     1     -41.200  56.663 -50.804  1.00  0.00     0.132 C 
HETATM    9  N   UNL     1     -44.735  58.268 -52.147  1.00  0.00    -0.357 N 
HETATM   10  H   UNL     1     -45.691  57.955 -52.046  1.00  0.00     0.166 HD
HETATM   11  C   UNL     1     -44.362  59.470 -52.712  1.00  0.00     0.043 A 
HETATM   12  C   UNL     1     -42.966  59.530 -52.688  1.00  0.00    -0.001 A 
HETATM   13  C   UNL     1     -45.153  60.495 -53.246  1.00  0.00     0.030 A 
HETATM   14  C   UNL     1     -44.497  61.611 -53.773  1.00  0.00     0.002 A 
HETATM   15  C   UNL     1     -43.107  61.698 -53.765  1.00  0.00     0.001 A 
HETATM   16  C   UNL     1     -42.330  60.665 -53.226  1.00  0.00     0.014 A 
HETATM   17  O   UNL     1     -43.124  53.578 -51.124  1.00  0.00    -0.247 OA
HETATM   18  H   UNL     1     -40.146  54.524 -51.590  1.00  0.00     0.171 HD
ENDROOT
BRANCH   1  19
HETATM   19  C   UNL     1     -40.390  52.514 -51.399  1.00  0.00     0.071 A 
HETATM   20  C   UNL     1     -40.035  52.030 -52.673  1.00  0.00     0.116 A 
HETATM   21  C   UNL     1     -39.667  50.690 -52.850  1.00  0.00     0.069 A 
HETATM   22 CL   UNL     1     -39.306  50.047 -54.411  1.00  0.00    -0.081 Cl
HETATM   23  C   UNL     1     -39.590  49.839 -51.748  1.00  0.00     0.027 A 
HETATM   24  C   UNL     1     -39.889  50.325 -50.476  1.00  0.00     0.004 A 
HETATM   25  C   UNL     1     -40.287  51.655 -50.302  1.00  0.00     0.032 A 
BRANCH  20  26
HETATM   26  O   UNL     1     -40.111  52.889 -53.749  1.00  0.00    -0.352 OA
HETATM   27  C   UNL     1     -41.381  52.752 -54.394  1.00  0.00     0.210 C 
ENDBRANCH  20  26
ENDBRANCH   1  19
TORSDOF 2
ENDMDL
MODEL 3
REMARK VINA RESULT:      -7.8      6.803      9.476
REMARK  2 active torsions:
REMARK  status: ('A' for Active; 'I' for Inactive)
REMARK    1  A    between atoms: O_2  and  C_3 
REMARK    2  A    between atoms: C_9  and  N_10 
REMARK       I    between atoms: N_10  and  C_11 
REMARK       I    between atoms: C_11  and  N_12 
ROOT
HETATM    1  N   UNL     1     -42.642  55.018 -56.623  1.00  0.00    -0.306 N 
HETATM    2  C   UNL     1     -42.777  56.313 -57.056  1.00  0.00     0.323 C 
HETATM    3  N   UNL     1     -43.439  56.459 -58.271  1.00  0.00    -0.328 N 
HETATM    4  C   UNL     1     -43.723  57.836 -58.700  1.00  0.00     0.185 C 
HETATM    5  C   UNL     1     -44.947  57.820 -59.550  1.00  0.00     0.035 A 
HETATM    6  C   UNL     1     -45.583  56.711 -60.072  1.00  0.00    -0.020 A 
HETATM    7  C   UNL     1     -45.075  55.337 -59.803  1.00  0.00     0.061 C 
HETATM    8  C   UNL     1     -43.617  55.412 -59.306  1.00  0.00     0.132 C 
HETATM    9  N   UNL     1     -45.640  58.930 -59.943  1.00  0.00    -0.357 N 
HETATM   10  H   UNL     1     -45.411  59.885 -59.703  1.00  0.00     0.166 HD
HETATM   11  C   UNL     1     -46.728  58.557 -60.705  1.00  0.00     0.043 A 
HETATM   12  C   UNL     1     -46.716  57.162 -60.799  1.00  0.00    -0.001 A 
HETATM   13  C   UNL     1     -47.716  59.345 -61.306  1.00  0.00     0.030 A 
HETATM   14  C   UNL     1     -48.723  58.688 -62.019  1.00  0.00     0.002 A 
HETATM   15  C   UNL     1     -48.739  57.299 -62.127  1.00  0.00     0.001 A 
HETATM   16  C   UNL     1     -47.741  56.525 -61.523  1.00  0.00     0.014 A 
HETATM   17  O   UNL     1     -42.371  57.296 -56.439  1.00  0.00    -0.247 OA
HETATM   18  H   UNL     1     -43.203  54.318 -57.084  1.00  0.00     0.171 HD
ENDROOT
BRANCH   1  19
HETATM   19  C   UNL     1     -42.031  54.545 -55.438  1.00  0.00     0.071 A 
HETATM   20  C   UNL     1     -42.828  54.500 -54.278  1.00  0.00     0.116 A 
HETATM   21  C   UNL     1     -42.271  54.137 -53.044  1.00  0.00     0.069 A 
HETATM   22 CL   UNL     1     -43.202  54.151 -51.590  1.00  0.00    -0.081 Cl
HETATM   23  C   UNL     1     -40.932  53.757 -52.971  1.00  0.00     0.027 A 
HETATM   24  C   UNL     1     -40.150  53.749 -54.125  1.00  0.00     0.004 A 
HETATM   25  C   UNL     1     -40.696  54.141 -55.353  1.00  0.00     0.032 A 
BRANCH  20  26
HETATM   26  O   UNL     1     -44.152  54.872 -54.372  1.00  0.00    -0.352 OA
HETATM   27  C   UNL     1     -44.320  56.204 -53.878  1.00  0.00     0.210 C 
ENDBRANCH  20  26
ENDBRANCH   1  19
TORSDOF 2
ENDMDL
MODEL 4
REMARK VINA RESULT:      -7.8      4.747      5.919
REMARK  2 active torsions:
REMARK  status: ('A' for Active; 'I' for Inactive)
REMARK    1  A    between atoms: O_2  and  C_3 
REMARK    2  A    between atoms: C_9  and  N_10 
REMARK       I    between atoms: N_10  and  C_11 
REMARK       I    between atoms: C_11  and  N_12 
ROOT
HETATM    1  N   UNL     1     -42.383  57.769 -57.122  1.00  0.00    -0.306 N 
HETATM    2  C   UNL     1     -42.875  57.617 -55.850  1.00  0.00     0.323 C 
HETATM    3  N   UNL     1     -42.724  56.344 -55.311  1.00  0.00    -0.328 N 
HETATM    4  C   UNL     1     -43.113  56.178 -53.904  1.00  0.00     0.185 C 
HETATM    5  C   UNL     1     -42.297  55.079 -53.316  1.00  0.00     0.035 A 
HETATM    6  C   UNL     1     -41.493  54.185 -53.996  1.00  0.00    -0.020 A 
HETATM    7  C   UNL     1     -41.350  54.254 -55.477  1.00  0.00     0.061 C 
HETATM    8  C   UNL     1     -42.503  55.090 -56.070  1.00  0.00     0.132 C 
HETATM    9  N   UNL     1     -42.219  54.790 -51.983  1.00  0.00    -0.357 N 
HETATM   10  H   UNL     1     -42.697  55.286 -51.243  1.00  0.00     0.166 HD
HETATM   11  C   UNL     1     -41.363  53.726 -51.784  1.00  0.00     0.043 A 
HETATM   12  C   UNL     1     -40.890  53.329 -53.038  1.00  0.00    -0.001 A 
HETATM   13  C   UNL     1     -40.972  53.098 -50.596  1.00  0.00     0.030 A 
HETATM   14  C   UNL     1     -40.067  52.037 -50.692  1.00  0.00     0.002 A 
HETATM   15  C   UNL     1     -39.577  51.620 -51.928  1.00  0.00     0.001 A 
HETATM   16  C   UNL     1     -39.980  52.257 -53.108  1.00  0.00     0.014 A 
HETATM   17  O   UNL     1     -43.401  58.518 -55.199  1.00  0.00    -0.247 OA
HETATM   18  H   UNL     1     -41.776  57.043 -57.471  1.00  0.00     0.171 HD
ENDROOT
BRANCH   1  19
HETATM   19  C   UNL     1     -42.379  58.930 -57.931  1.00  0.00     0.071 A 
HETATM   20  C   UNL     1     -43.273  58.958 -59.019  1.00  0.00     0.116 A 
HETATM   21  C   UNL     1     -43.262  60.027 -59.924  1.00  0.00     0.069 A 
HETATM   22 CL   UNL     1     -44.287  60.052 -61.313  1.00  0.00    -0.081 Cl
HETATM   23  C   UNL     1     -42.402  61.105 -59.716  1.00  0.00     0.027 A 
HETATM   24  C   UNL     1     -41.551  61.108 -58.611  1.00  0.00     0.004 A 
HETATM   25  C   UNL     1     -41.539  60.027 -57.724  1.00  0.00     0.032 A 
BRANCH  20  26
HETATM   26  O   UNL     1     -44.121  57.886 -59.204  1.00  0.00    -0.352 OA
HETATM   27  C   UNL     1     -45.387  58.156 -58.594  1.00  0.00     0.210 C 
ENDBRANCH  20  26
ENDBRANCH   1  19
TORSDOF 2
ENDMDL
MODEL 5
REMARK VINA RESULT:      -7.8      6.415      9.287
REMARK  2 active torsions:
REMARK  status: ('A' for Active; 'I' for Inactive)
REMARK    1  A    between atoms: O_2  and  C_3 
REMARK    2  A    between atoms: C_9  and  N_10 
REMARK       I    between atoms: N_10  and  C_11 
REMARK       I    between atoms: C_11  and  N_12 
ROOT
HETATM    1  N   UNL     1     -41.875  56.341 -55.798  1.00  0.00    -0.306 N 
HETATM    2  C   UNL     1     -42.614  56.399 -56.952  1.00  0.00     0.323 C 
HETATM    3  N   UNL     1     -42.735  57.669 -57.507  1.00  0.00    -0.328 N 
HETATM    4  C   UNL     1     -43.401  57.751 -58.814  1.00  0.00     0.185 C 
HETATM    5  C   UNL     1     -42.862  58.933 -59.544  1.00  0.00     0.035 A 
HETATM    6  C   UNL     1     -42.067  59.938 -59.027  1.00  0.00    -0.020 A 
HETATM    7  C   UNL     1     -41.639  59.922 -57.601  1.00  0.00     0.061 C 
HETATM    8  C   UNL     1     -42.540  58.958 -56.801  1.00  0.00     0.132 C 
HETATM    9  N   UNL     1     -43.076  59.199 -60.867  1.00  0.00    -0.357 N 
HETATM   10  H   UNL     1     -43.616  58.629 -61.504  1.00  0.00     0.166 HD
HETATM   11  C   UNL     1     -42.419  60.359 -61.223  1.00  0.00     0.043 A 
HETATM   12  C   UNL     1     -41.773  60.842 -60.081  1.00  0.00    -0.001 A 
HETATM   13  C   UNL     1     -42.345  61.005 -62.462  1.00  0.00     0.030 A 
HETATM   14  C   UNL     1     -41.585  62.176 -62.538  1.00  0.00     0.002 A 
HETATM   15  C   UNL     1     -40.928  62.680 -61.417  1.00  0.00     0.001 A 
HETATM   16  C   UNL     1     -41.014  62.024 -60.183  1.00  0.00     0.014 A 
HETATM   17  O   UNL     1     -43.131  55.424 -57.493  1.00  0.00    -0.247 OA
HETATM   18  H   UNL     1     -41.313  57.147 -55.569  1.00  0.00     0.171 HD
ENDROOT
BRANCH   1  19
HETATM   19  C   UNL     1     -41.566  55.209 -55.006  1.00  0.00     0.071 A 
HETATM   20  C   UNL     1     -42.317  55.024 -53.830  1.00  0.00     0.116 A 
HETATM   21  C   UNL     1     -42.008  53.984 -52.943  1.00  0.00     0.069 A 
HETATM   22 CL   UNL     1     -42.857  53.780 -51.453  1.00  0.00    -0.081 Cl
HETATM   23  C   UNL     1     -40.989  53.085 -53.254  1.00  0.00     0.027 A 
HETATM   24  C   UNL     1     -40.276  53.231 -54.443  1.00  0.00     0.004 A 
HETATM   25  C   UNL     1     -40.563  54.287 -55.315  1.00  0.00     0.032 A 
BRANCH  20  26
HETATM   26  O   UNL     1     -43.327  55.919 -53.543  1.00  0.00    -0.352 OA
HETATM   27  C   UNL     1     -42.837  56.943 -52.672  1.00  0.00     0.210 C 
ENDBRANCH  20  26
ENDBRANCH   1  19
TORSDOF 2
ENDMDL
MODEL 6
REMARK VINA RESULT:      -7.8      4.715      6.096
REMARK  2 active torsions:
REMARK  status: ('A' for Active; 'I' for Inactive)
REMARK    1  A    between atoms: O_2  and  C_3 
REMARK    2  A    between atoms: C_9  and  N_10 
REMARK       I    between atoms: N_10  and  C_11 
REMARK       I    between atoms: C_11  and  N_12 
ROOT
HETATM    1  N   UNL     1     -43.950  56.641 -57.031  1.00  0.00    -0.306 N 
HETATM    2  C   UNL     1     -44.184  57.065 -55.747  1.00  0.00     0.323 C 
HETATM    3  N   UNL     1     -43.810  56.165 -54.755  1.00  0.00    -0.328 N 
HETATM    4  C   UNL     1     -43.918  56.637 -53.368  1.00  0.00     0.185 C 
HETATM    5  C   UNL     1     -42.902  55.922 -52.546  1.00  0.00     0.035 A 
HETATM    6  C   UNL     1     -42.148  54.828 -52.924  1.00  0.00    -0.020 A 
HETATM    7  C   UNL     1     -42.284  54.233 -54.282  1.00  0.00     0.061 C 
HETATM    8  C   UNL     1     -43.604  54.706 -54.925  1.00  0.00     0.132 C 
HETATM    9  N   UNL     1     -42.555  56.256 -51.268  1.00  0.00    -0.357 N 
HETATM   10  H   UNL     1     -42.938  57.024 -50.733  1.00  0.00     0.166 HD
HETATM   11  C   UNL     1     -41.573  55.400 -50.811  1.00  0.00     0.043 A 
HETATM   12  C   UNL     1     -41.298  54.493 -51.837  1.00  0.00    -0.001 A 
HETATM   13  C   UNL     1     -40.911  55.369 -49.579  1.00  0.00     0.030 A 
HETATM   14  C   UNL     1     -39.936  54.386 -49.391  1.00  0.00     0.002 A 
HETATM   15  C   UNL     1     -39.638  53.469 -50.397  1.00  0.00     0.001 A 
HETATM   16  C   UNL     1     -40.311  53.511 -51.624  1.00  0.00     0.014 A 
HETATM   17  O   UNL     1     -44.673  58.155 -55.456  1.00  0.00    -0.247 OA
HETATM   18  H   UNL     1     -43.345  55.842 -57.149  1.00  0.00     0.171 HD
ENDROOT
BRANCH   1  19
HETATM   19  C   UNL     1     -44.210  57.322 -58.244  1.00  0.00     0.071 A 
HETATM   20  C   UNL     1     -43.174  58.116 -58.771  1.00  0.00     0.116 A 
HETATM   21  C   UNL     1     -43.385  58.897 -59.915  1.00  0.00     0.069 A 
HETATM   22 CL   UNL     1     -42.162  59.944 -60.537  1.00  0.00    -0.081 Cl
HETATM   23  C   UNL     1     -44.611  58.844 -60.576  1.00  0.00     0.027 A 
HETATM   24  C   UNL     1     -45.624  58.018 -60.090  1.00  0.00     0.004 A 
HETATM   25  C   UNL     1     -45.426  57.261 -58.931  1.00  0.00     0.032 A 
BRANCH  20  26
HETATM   26  O   UNL     1     -41.966  58.150 -58.107  1.00  0.00    -0.352 OA
HETATM   27  C   UNL     1     -41.859  59.362 -57.353  1.00  0.00     0.210 C 
ENDBRANCH  20  26
ENDBRANCH   1  19
TORSDOF 2
ENDMDL
MODEL 7
REMARK VINA RESULT:      -7.8      3.895      4.774
REMARK  2 active torsions:
REMARK  status: ('A' for Active; 'I' for Inactive)
REMARK    1  A    between atoms: O_2  and  C_3 
REMARK    2  A    between atoms: C_9  and  N_10 
REMARK       I    between atoms: N_10  and  C_11 
REMARK       I    between atoms: C_11  and  N_12 
ROOT
HETATM    1  N   UNL     1     -42.607  58.186 -55.627  1.00  0.00    -0.306 N 
HETATM    2  C   UNL     1     -42.193  57.826 -54.369  1.00  0.00     0.323 C 
HETATM    3  N   UNL     1     -42.271  56.465 -54.094  1.00  0.00    -0.328 N 
HETATM    4  C   UNL     1     -41.710  56.024 -52.809  1.00  0.00     0.185 C 
HETATM    5  C   UNL     1     -41.246  54.616 -52.957  1.00  0.00     0.035 A 
HETATM    6  C   UNL     1     -41.505  53.762 -54.011  1.00  0.00    -0.020 A 
HETATM    7  C   UNL     1     -42.314  54.206 -55.179  1.00  0.00     0.061 C 
HETATM    8  C   UNL     1     -43.112  55.472 -54.804  1.00  0.00     0.132 C 
HETATM    9  N   UNL     1     -40.472  53.949 -52.049  1.00  0.00    -0.357 N 
HETATM   10  H   UNL     1     -40.122  54.328 -51.181  1.00  0.00     0.166 HD
HETATM   11  C   UNL     1     -40.212  52.673 -52.505  1.00  0.00     0.043 A 
HETATM   12  C   UNL     1     -40.849  52.531 -53.741  1.00  0.00    -0.001 A 
HETATM   13  C   UNL     1     -39.460  51.647 -51.922  1.00  0.00     0.030 A 
HETATM   14  C   UNL     1     -39.352  50.443 -52.625  1.00  0.00     0.002 A 
HETATM   15  C   UNL     1     -39.974  50.273 -53.860  1.00  0.00     0.001 A 
HETATM   16  C   UNL     1     -40.726  51.309 -54.429  1.00  0.00     0.014 A 
HETATM   17  O   UNL     1     -41.767  58.615 -53.528  1.00  0.00    -0.247 OA
HETATM   18  H   UNL     1     -42.719  57.447 -56.304  1.00  0.00     0.171 HD
ENDROOT
BRANCH   1  19
HETATM   19  C   UNL     1     -42.642  59.477 -56.206  1.00  0.00     0.071 A 
HETATM   20  C   UNL     1     -42.139  59.608 -57.515  1.00  0.00     0.116 A 
HETATM   21  C   UNL     1     -42.049  60.868 -58.121  1.00  0.00     0.069 A 
HETATM   22 CL   UNL     1     -41.361  61.072 -59.691  1.00  0.00    -0.081 Cl
HETATM   23  C   UNL     1     -42.518  61.997 -57.451  1.00  0.00     0.027 A 
HETATM   24  C   UNL     1     -43.067  61.867 -56.176  1.00  0.00     0.004 A 
HETATM   25  C   UNL     1     -43.129  60.614 -55.556  1.00  0.00     0.032 A 
BRANCH  20  26
HETATM   26  O   UNL     1     -41.687  58.479 -58.164  1.00  0.00    -0.352 OA
HETATM   27  C   UNL     1     -42.713  57.965 -59.019  1.00  0.00     0.210 C 
ENDBRANCH  20  26
ENDBRANCH   1  19
TORSDOF 2
ENDMDL
MODEL 8
REMARK VINA RESULT:      -7.7      2.950      3.254
REMARK  2 active torsions:
REMARK  status: ('A' for Active; 'I' for Inactive)
REMARK    1  A    between atoms: O_2  and  C_3 
REMARK    2  A    between atoms: C_9  and  N_10 
REMARK       I    between atoms: N_10  and  C_11 
REMARK       I    between atoms: C_11  and  N_12 
ROOT
HETATM    1  N   UNL     1     -42.792  57.147 -54.936  1.00  0.00    -0.306 N 
HETATM    2  C   UNL     1     -42.118  56.123 -55.553  1.00  0.00     0.323 C 
HETATM    3  N   UNL     1     -41.294  55.377 -54.718  1.00  0.00    -0.328 N 
HETATM    4  C   UNL     1     -40.663  54.190 -55.312  1.00  0.00     0.185 C 
HETATM    5  C   UNL     1     -40.431  53.190 -54.233  1.00  0.00     0.035 A 
HETATM    6  C   UNL     1     -40.539  53.396 -52.871  1.00  0.00    -0.020 A 
HETATM    7  C   UNL     1     -40.939  54.722 -52.325  1.00  0.00     0.061 C 
HETATM    8  C   UNL     1     -40.752  55.806 -53.407  1.00  0.00     0.132 C 
HETATM    9  N   UNL     1     -40.071  51.888 -54.437  1.00  0.00    -0.357 N 
HETATM   10  H   UNL     1     -39.926  51.450 -55.337  1.00  0.00     0.166 HD
HETATM   11  C   UNL     1     -39.957  51.238 -53.225  1.00  0.00     0.043 A 
HETATM   12  C   UNL     1     -40.250  52.167 -52.223  1.00  0.00    -0.001 A 
HETATM   13  C   UNL     1     -39.626  49.907 -52.948  1.00  0.00     0.030 A 
HETATM   14  C   UNL     1     -39.599  49.512 -51.607  1.00  0.00     0.002 A 
HETATM   15  C   UNL     1     -39.889  50.415 -50.586  1.00  0.00     0.001 A 
HETATM   16  C   UNL     1     -40.216  51.745 -50.880  1.00  0.00     0.014 A 
HETATM   17  O   UNL     1     -42.222  55.847 -56.747  1.00  0.00    -0.247 OA
HETATM   18  H   UNL     1     -42.813  57.142 -53.927  1.00  0.00     0.171 HD
ENDROOT
BRANCH   1  19
HETATM   19  C   UNL     1     -43.701  58.071 -55.503  1.00  0.00     0.071 A 
HETATM   20  C   UNL     1     -43.242  59.389 -55.693  1.00  0.00     0.116 A 
HETATM   21  C   UNL     1     -44.110  60.386 -56.157  1.00  0.00     0.069 A 
HETATM   22 CL   UNL     1     -43.601  62.028 -56.322  1.00  0.00    -0.081 Cl
HETATM   23  C   UNL     1     -45.423  60.062 -56.495  1.00  0.00     0.027 A 
HETATM   24  C   UNL     1     -45.869  58.748 -56.360  1.00  0.00     0.004 A 
HETATM   25  C   UNL     1     -45.013  57.758 -55.867  1.00  0.00     0.032 A 
BRANCH  20  26
HETATM   26  O   UNL     1     -41.938  59.688 -55.361  1.00  0.00    -0.352 OA
HETATM   27  C   UNL     1     -41.872  60.141 -54.005  1.00  0.00     0.210 C 
ENDBRANCH  20  26
ENDBRANCH   1  19
TORSDOF 2
ENDMDL
MODEL 9
REMARK VINA RESULT:      -7.7      2.108      3.143
REMARK  2 active torsions:
REMARK  status: ('A' for Active; 'I' for Inactive)
REMARK    1  A    between atoms: O_2  and  C_3 
REMARK    2  A    between atoms: C_9  and  N_10 
REMARK       I    between atoms: N_10  and  C_11 
REMARK       I    between atoms: C_11  and  N_12 
ROOT
HETATM    1  N   UNL     1     -43.517  58.855 -53.076  1.00  0.00    -0.306 N 
HETATM    2  C   UNL     1     -42.888  58.175 -52.063  1.00  0.00     0.323 C 
HETATM    3  N   UNL     1     -42.840  56.795 -52.225  1.00  0.00    -0.328 N 
HETATM    4  C   UNL     1     -42.057  56.046 -51.232  1.00  0.00     0.185 C 
HETATM    5  C   UNL     1     -41.539  54.808 -51.878  1.00  0.00     0.035 A 
HETATM    6  C   UNL     1     -41.910  54.291 -53.104  1.00  0.00    -0.020 A 
HETATM    7  C   UNL     1     -42.920  54.981 -53.953  1.00  0.00     0.061 C 
HETATM    8  C   UNL     1     -43.722  55.981 -53.095  1.00  0.00     0.132 C 
HETATM    9  N   UNL     1     -40.592  53.983 -51.339  1.00  0.00    -0.357 N 
HETATM   10  H   UNL     1     -40.131  54.115 -50.449  1.00  0.00     0.166 HD
HETATM   11  C   UNL     1     -40.333  52.940 -52.206  1.00  0.00     0.043 A 
HETATM   12  C   UNL     1     -41.149  53.114 -53.327  1.00  0.00    -0.001 A 
HETATM   13  C   UNL     1     -39.438  51.872 -52.082  1.00  0.00     0.030 A 
HETATM   14  C   UNL     1     -39.371  50.957 -53.137  1.00  0.00     0.002 A 
HETATM   15  C   UNL     1     -40.170  51.106 -54.268  1.00  0.00     0.001 A 
HETATM   16  C   UNL     1     -41.063  52.179 -54.376  1.00  0.00     0.014 A 
HETATM   17  O   UNL     1     -42.381  58.712 -51.080  1.00  0.00    -0.247 OA
HETATM   18  H   UNL     1     -43.691  58.349 -53.931  1.00  0.00     0.171 HD
ENDROOT
BRANCH   1  19
HETATM   19  C   UNL     1     -43.721  60.249 -53.207  1.00  0.00     0.071 A 
HETATM   20  C   UNL     1     -45.021  60.733 -52.965  1.00  0.00     0.116 A 
HETATM   21  C   UNL     1     -45.327  62.085 -53.168  1.00  0.00     0.069 A 
HETATM   22 CL   UNL     1     -46.929  62.694 -52.960  1.00  0.00    -0.081 Cl
HETATM   23  C   UNL     1     -44.325  62.974 -53.554  1.00  0.00     0.027 A 
HETATM   24  C   UNL     1     -43.024  62.511 -53.744  1.00  0.00     0.004 A 
HETATM   25  C   UNL     1     -42.723  61.156 -53.571  1.00  0.00     0.032 A 
BRANCH  20  26
HETATM   26  O   UNL     1     -45.996  59.840 -52.576  1.00  0.00    -0.352 OA
HETATM   27  C   UNL     1     -46.147  59.871 -51.153  1.00  0.00     0.210 C 
ENDBRANCH  20  26
ENDBRANCH   1  19
TORSDOF 2
ENDMDL
MODEL 10
REMARK VINA RESULT:      -7.6      3.328      8.670
REMARK  2 active torsions:
REMARK  status: ('A' for Active; 'I' for Inactive)
REMARK    1  A    between atoms: O_2  and  C_3 
REMARK    2  A    between atoms: C_9  and  N_10 
REMARK       I    between atoms: N_10  and  C_11 
REMARK       I    between atoms: C_11  and  N_12 
ROOT
HETATM    1  N   UNL     1     -41.272  54.581 -52.088  1.00  0.00    -0.306 N 
HETATM    2  C   UNL     1     -42.560  54.860 -51.709  1.00  0.00     0.323 C 
HETATM    3  N   UNL     1     -42.769  56.155 -51.248  1.00  0.00    -0.328 N 
HETATM    4  C   UNL     1     -44.160  56.532 -50.963  1.00  0.00     0.185 C 
HETATM    5  C   UNL     1     -44.300  58.002 -51.165  1.00  0.00     0.035 A 
HETATM    6  C   UNL     1     -43.282  58.918 -51.342  1.00  0.00    -0.020 A 
HETATM    7  C   UNL     1     -41.856  58.487 -51.360  1.00  0.00     0.061 C 
HETATM    8  C   UNL     1     -41.732  57.082 -50.735  1.00  0.00     0.132 C 
HETATM    9  N   UNL     1     -45.489  58.674 -51.212  1.00  0.00    -0.357 N 
HETATM   10  H   UNL     1     -46.406  58.260 -51.121  1.00  0.00     0.166 HD
HETATM   11  C   UNL     1     -45.258  60.017 -51.430  1.00  0.00     0.043 A 
HETATM   12  C   UNL     1     -43.874  60.196 -51.519  1.00  0.00    -0.001 A 
HETATM   13  C   UNL     1     -46.165  61.075 -51.562  1.00  0.00     0.030 A 
HETATM   14  C   UNL     1     -45.643  62.350 -51.796  1.00  0.00     0.002 A 
HETATM   15  C   UNL     1     -44.269  62.559 -51.891  1.00  0.00     0.001 A 
HETATM   16  C   UNL     1     -43.374  61.491 -51.754  1.00  0.00     0.014 A 
HETATM   17  O   UNL     1     -43.489  54.057 -51.771  1.00  0.00    -0.247 OA
HETATM   18  H   UNL     1     -40.648  55.364 -52.211  1.00  0.00     0.171 HD
ENDROOT
BRANCH   1  19
HETATM   19  C   UNL     1     -40.746  53.371 -52.599  1.00  0.00     0.071 A 
HETATM   20  C   UNL     1     -40.328  52.405 -51.664  1.00  0.00     0.116 A 
HETATM   21  C   UNL     1     -39.708  51.223 -52.088  1.00  0.00     0.069 A 
HETATM   22 CL   UNL     1     -39.110  50.058 -50.963  1.00  0.00    -0.081 Cl
HETATM   23  C   UNL     1     -39.556  50.967 -53.450  1.00  0.00     0.027 A 
HETATM   24  C   UNL     1     -40.016  51.895 -54.383  1.00  0.00     0.004 A 
HETATM   25  C   UNL     1     -40.608  53.091 -53.961  1.00  0.00     0.032 A 
BRANCH  20  26
HETATM   26  O   UNL     1     -40.493  52.673 -50.321  1.00  0.00    -0.352 OA
HETATM   27  C   UNL     1     -39.543  53.656 -49.900  1.00  0.00     0.210 C 
ENDBRANCH  20  26
ENDBRANCH   1  19
TORSDOF 2
ENDMDL
