MODEL 1
REMARK VINA RESULT:      -8.6      0.000      0.000
REMARK  9 active torsions:
REMARK  status: ('A' for Active; 'I' for Inactive)
REMARK    1  A    between atoms: N_4  and  C_5 
REMARK    2  A    between atoms: C_13  and  C_14 
REMARK    3  A    between atoms: C_15  and  C_16 
REMARK       I    between atoms: C_16  and  N_17 
REMARK    4  A    between atoms: N_17  and  C_18 
REMARK    5  A    between atoms: C_18  and  C_19 
REMARK    6  A    between atoms: C_19  and  N_20 
REMARK    7  A    between atoms: C_21  and  O_22 
REMARK    8  A    between atoms: C_21  and  C_23 
REMARK    9  A    between atoms: C_28  and  O_29 
ROOT
HETATM    1  C   UNL     1     -41.777  59.036 -54.345  1.00  0.00     0.241 C 
HETATM    2  N   UNL     1     -42.568  59.221 -55.448  1.00  0.00    -0.356 N 
HETATM    3  O   UNL     1     -40.958  59.854 -53.944  1.00  0.00    -0.269 OA
HETATM    4  H   UNL     1     -43.342  58.602 -55.651  1.00  0.00     0.162 HD
ENDROOT
BRANCH   1   5
HETATM    5  C   UNL     1     -41.996  57.732 -53.672  1.00  0.00     0.075 C 
HETATM    6  C   UNL     1     -40.943  56.920 -53.486  1.00  0.00     0.021 C 
BRANCH   6   7
HETATM    7  C   UNL     1     -40.955  55.611 -52.914  1.00  0.00     0.014 C 
HETATM    8  C   UNL     1     -41.283  55.171 -51.614  1.00  0.00     0.063 C 
HETATM    9  C   UNL     1     -41.701  55.957 -50.425  1.00  0.00     0.073 C 
HETATM   10  N   UNL     1     -41.191  53.844 -51.511  1.00  0.00    -0.171 NA
HETATM   11  N   UNL     1     -40.673  53.418 -52.697  1.00  0.00    -0.237 N 
HETATM   12  C   UNL     1     -40.634  54.461 -53.619  1.00  0.00     0.045 C 
HETATM   13  C   UNL     1     -40.375  54.305 -55.078  1.00  0.00     0.071 C 
BRANCH  11  14
HETATM   14  C   UNL     1     -40.266  52.052 -52.819  1.00  0.00     0.058 A 
HETATM   15  C   UNL     1     -39.796  51.378 -51.678  1.00  0.00     0.031 A 
HETATM   16  C   UNL     1     -39.389  50.043 -51.755  1.00  0.00     0.002 A 
HETATM   17  C   UNL     1     -39.430  49.371 -52.975  1.00  0.00     0.000 A 
HETATM   18  C   UNL     1     -39.866  50.036 -54.117  1.00  0.00     0.002 A 
HETATM   19  C   UNL     1     -40.277  51.372 -54.043  1.00  0.00     0.031 A 
ENDBRANCH  11  14
ENDBRANCH   6   7
ENDBRANCH   1   5
BRANCH   2  20
HETATM   20  C   UNL     1     -42.559  60.477 -56.175  1.00  0.00     0.144 C 
BRANCH  20  21
HETATM   21  C   UNL     1     -42.192  60.272 -57.646  1.00  0.00     0.171 C 
BRANCH  21  22
HETATM   22  N   UNL     1     -43.261  59.528 -58.308  1.00  0.00    -0.263 NA
HETATM   23  C   UNL     1     -43.158  58.261 -58.499  1.00  0.00     0.189 C 
BRANCH  23  24
HETATM   24  O   UNL     1     -42.110  57.532 -58.058  1.00  0.00    -0.343 OA
HETATM   25  H   UNL     1     -41.847  56.844 -58.679  1.00  0.00     0.219 HD
ENDBRANCH  23  24
BRANCH  23  26
HETATM   26  C   UNL     1     -44.150  57.403 -59.230  1.00  0.00     0.141 A 
HETATM   27  N   UNL     1     -45.463  57.640 -58.932  1.00  0.00    -0.254 NA
HETATM   28  C   UNL     1     -46.392  56.877 -59.541  1.00  0.00     0.117 A 
HETATM   29  C   UNL     1     -46.089  55.876 -60.446  1.00  0.00     0.022 A 
HETATM   30  C   UNL     1     -44.750  55.642 -60.748  1.00  0.00     0.040 A 
HETATM   31  C   UNL     1     -43.760  56.412 -60.137  1.00  0.00     0.098 A 
BRANCH  31  32
HETATM   32  O   UNL     1     -42.452  56.163 -60.446  1.00  0.00    -0.358 OA
HETATM   33  H   UNL     1     -41.964  56.998 -60.515  1.00  0.00     0.218 HD
ENDBRANCH  31  32
ENDBRANCH  23  26
ENDBRANCH  21  22
ENDBRANCH  20  21
ENDBRANCH   2  20
TORSDOF 9
ENDMDL
MODEL 2
REMARK VINA RESULT:      -8.3      5.279      8.254
REMARK  9 active torsions:
REMARK  status: ('A' for Active; 'I' for Inactive)
REMARK    1  A    between atoms: N_4  and  C_5 
REMARK    2  A    between atoms: C_13  and  C_14 
REMARK    3  A    between atoms: C_15  and  C_16 
REMARK       I    between atoms: C_16  and  N_17 
REMARK    4  A    between atoms: N_17  and  C_18 
REMARK    5  A    between atoms: C_18  and  C_19 
REMARK    6  A    between atoms: C_19  and  N_20 
REMARK    7  A    between atoms: C_21  and  O_22 
REMARK    8  A    between atoms: C_21  and  C_23 
REMARK    9  A    between atoms: C_28  and  O_29 
ROOT
HETATM    1  C   UNL     1     -45.379  59.018 -51.316  1.00  0.00     0.241 C 
HETATM    2  N   UNL     1     -45.630  60.110 -52.103  1.00  0.00    -0.356 N 
HETATM    3  O   UNL     1     -46.161  58.580 -50.480  1.00  0.00    -0.269 OA
HETATM    4  H   UNL     1     -45.036  60.342 -52.889  1.00  0.00     0.162 HD
ENDROOT
BRANCH   1   5
HETATM    5  C   UNL     1     -44.050  58.404 -51.561  1.00  0.00     0.075 C 
HETATM    6  C   UNL     1     -43.978  57.326 -52.357  1.00  0.00     0.021 C 
BRANCH   6   7
HETATM    7  C   UNL     1     -42.812  56.563 -52.671  1.00  0.00     0.014 C 
HETATM    8  C   UNL     1     -41.622  56.921 -53.341  1.00  0.00     0.063 C 
HETATM    9  C   UNL     1     -41.233  58.217 -53.951  1.00  0.00     0.073 C 
HETATM   10  N   UNL     1     -40.765  55.899 -53.390  1.00  0.00    -0.171 NA
HETATM   11  N   UNL     1     -41.435  54.831 -52.876  1.00  0.00    -0.237 N 
HETATM   12  C   UNL     1     -42.644  55.233 -52.315  1.00  0.00     0.045 C 
HETATM   13  C   UNL     1     -43.507  54.387 -51.443  1.00  0.00     0.071 C 
BRANCH  11  14
HETATM   14  C   UNL     1     -40.844  53.532 -52.982  1.00  0.00     0.058 A 
HETATM   15  C   UNL     1     -40.140  53.014 -51.881  1.00  0.00     0.031 A 
HETATM   16  C   UNL     1     -39.549  51.749 -51.945  1.00  0.00     0.002 A 
HETATM   17  C   UNL     1     -39.637  50.995 -53.112  1.00  0.00     0.000 A 
HETATM   18  C   UNL     1     -40.307  51.510 -54.219  1.00  0.00     0.002 A 
HETATM   19  C   UNL     1     -40.903  52.775 -54.159  1.00  0.00     0.031 A 
ENDBRANCH  11  14
ENDBRANCH   6   7
ENDBRANCH   1   5
BRANCH   2  20
HETATM   20  C   UNL     1     -46.917  60.779 -52.068  1.00  0.00     0.144 C 
BRANCH  20  21
HETATM   21  C   UNL     1     -46.816  62.162 -51.421  1.00  0.00     0.171 C 
BRANCH  21  22
HETATM   22  N   UNL     1     -46.749  62.009 -49.969  1.00  0.00    -0.263 NA
HETATM   23  C   UNL     1     -45.717  62.405 -49.314  1.00  0.00     0.189 C 
BRANCH  23  24
HETATM   24  O   UNL     1     -44.672  63.034 -49.895  1.00  0.00    -0.343 OA
HETATM   25  H   UNL     1     -44.947  63.723 -50.510  1.00  0.00     0.219 HD
ENDBRANCH  23  24
BRANCH  23  26
HETATM   26  C   UNL     1     -45.499  62.234 -47.838  1.00  0.00     0.141 A 
HETATM   27  N   UNL     1     -45.207  63.380 -47.152  1.00  0.00    -0.254 NA
HETATM   28  C   UNL     1     -44.975  63.277 -45.828  1.00  0.00     0.117 A 
HETATM   29  C   UNL     1     -45.017  62.082 -45.134  1.00  0.00     0.022 A 
HETATM   30  C   UNL     1     -45.319  60.919 -45.837  1.00  0.00     0.040 A 
HETATM   31  C   UNL     1     -45.565  60.987 -47.209  1.00  0.00     0.098 A 
BRANCH  31  32
HETATM   32  O   UNL     1     -45.856  59.832 -47.880  1.00  0.00    -0.358 OA
HETATM   33  H   UNL     1     -45.036  59.363 -48.100  1.00  0.00     0.218 HD
ENDBRANCH  31  32
ENDBRANCH  23  26
ENDBRANCH  21  22
ENDBRANCH  20  21
ENDBRANCH   2  20
TORSDOF 9
ENDMDL
MODEL 3
REMARK VINA RESULT:      -8.0      2.322      8.125
REMARK  9 active torsions:
REMARK  status: ('A' for Active; 'I' for Inactive)
REMARK    1  A    between atoms: N_4  and  C_5 
REMARK    2  A    between atoms: C_13  and  C_14 
REMARK    3  A    between atoms: C_15  and  C_16 
REMARK       I    between atoms: C_16  and  N_17 
REMARK    4  A    between atoms: N_17  and  C_18 
REMARK    5  A    between atoms: C_18  and  C_19 
REMARK    6  A    between atoms: C_19  and  N_20 
REMARK    7  A    between atoms: C_21  and  O_22 
REMARK    8  A    between atoms: C_21  and  C_23 
REMARK    9  A    between atoms: C_28  and  O_29 
ROOT
HETATM    1  C   UNL     1     -40.760  58.362 -52.562  1.00  0.00     0.241 C 
HETATM    2  N   UNL     1     -41.383  57.399 -51.814  1.00  0.00    -0.356 N 
HETATM    3  O   UNL     1     -40.110  59.285 -52.086  1.00  0.00    -0.269 OA
HETATM    4  H   UNL     1     -41.770  56.567 -52.242  1.00  0.00     0.162 HD
ENDROOT
BRANCH   1   5
HETATM    5  C   UNL     1     -40.951  58.192 -54.024  1.00  0.00     0.075 C 
HETATM    6  C   UNL     1     -42.123  58.560 -54.565  1.00  0.00     0.021 C 
BRANCH   6   7
HETATM    7  C   UNL     1     -42.521  58.426 -55.931  1.00  0.00     0.014 C 
HETATM    8  C   UNL     1     -42.449  59.334 -57.010  1.00  0.00     0.063 C 
HETATM    9  C   UNL     1     -41.949  60.732 -57.040  1.00  0.00     0.073 C 
HETATM   10  N   UNL     1     -42.907  58.786 -58.137  1.00  0.00    -0.171 NA
HETATM   11  N   UNL     1     -43.405  57.570 -57.781  1.00  0.00    -0.237 N 
HETATM   12  C   UNL     1     -43.072  57.271 -56.462  1.00  0.00     0.045 C 
HETATM   13  C   UNL     1     -43.223  55.933 -55.823  1.00  0.00     0.071 C 
BRANCH  11  14
HETATM   14  C   UNL     1     -44.153  56.823 -58.745  1.00  0.00     0.058 A 
HETATM   15  C   UNL     1     -45.483  57.195 -59.009  1.00  0.00     0.031 A 
HETATM   16  C   UNL     1     -46.248  56.491 -59.944  1.00  0.00     0.002 A 
HETATM   17  C   UNL     1     -45.700  55.399 -60.612  1.00  0.00     0.000 A 
HETATM   18  C   UNL     1     -44.393  55.004 -60.338  1.00  0.00     0.002 A 
HETATM   19  C   UNL     1     -43.623  55.708 -59.405  1.00  0.00     0.031 A 
ENDBRANCH  11  14
ENDBRANCH   6   7
ENDBRANCH   1   5
BRANCH   2  20
HETATM   20  C   UNL     1     -41.226  57.350 -50.372  1.00  0.00     0.144 C 
BRANCH  20  21
HETATM   21  C   UNL     1     -41.059  55.914 -49.872  1.00  0.00     0.171 C 
BRANCH  21  22
HETATM   22  N   UNL     1     -40.912  55.021 -51.019  1.00  0.00    -0.263 NA
HETATM   23  C   UNL     1     -40.520  53.807 -50.861  1.00  0.00     0.189 C 
BRANCH  23  24
HETATM   24  O   UNL     1     -40.283  53.262 -49.648  1.00  0.00    -0.343 OA
HETATM   25  H   UNL     1     -41.078  52.902 -49.239  1.00  0.00     0.219 HD
ENDBRANCH  23  24
BRANCH  23  26
HETATM   26  C   UNL     1     -40.260  52.821 -51.962  1.00  0.00     0.141 A 
HETATM   27  N   UNL     1     -39.774  51.608 -51.560  1.00  0.00    -0.254 NA
HETATM   28  C   UNL     1     -39.497  50.696 -52.513  1.00  0.00     0.117 A 
HETATM   29  C   UNL     1     -39.677  50.922 -53.866  1.00  0.00     0.022 A 
HETATM   30  C   UNL     1     -40.176  52.157 -54.269  1.00  0.00     0.040 A 
HETATM   31  C   UNL     1     -40.475  53.127 -53.310  1.00  0.00     0.098 A 
BRANCH  31  32
HETATM   32  O   UNL     1     -40.959  54.334 -53.729  1.00  0.00    -0.358 OA
HETATM   33  H   UNL     1     -41.126  54.906 -52.963  1.00  0.00     0.218 HD
ENDBRANCH  31  32
ENDBRANCH  23  26
ENDBRANCH  21  22
ENDBRANCH  20  21
ENDBRANCH   2  20
TORSDOF 9
ENDMDL
MODEL 4
REMARK VINA RESULT:      -7.9      1.336      1.513
REMARK  9 active torsions:
REMARK  status: ('A' for Active; 'I' for Inactive)
REMARK    1  A    between atoms: N_4  and  C_5 
REMARK    2  A    between atoms: C_13  and  C_14 
REMARK    3  A    between atoms: C_15  and  C_16 
REMARK       I    between atoms: C_16  and  N_17 
REMARK    4  A    between atoms: N_17  and  C_18 
REMARK    5  A    between atoms: C_18  and  C_19 
REMARK    6  A    between atoms: C_19  and  N_20 
REMARK    7  A    between atoms: C_21  and  O_22 
REMARK    8  A    between atoms: C_21  and  C_23 
REMARK    9  A    between atoms: C_28  and  O_29 
ROOT
HETATM    1  C   UNL     1     -42.180  59.767 -54.517  1.00  0.00     0.241 C 
HETATM    2  N   UNL     1     -42.016  59.821 -55.875  1.00  0.00    -0.356 N 
HETATM    3  O   UNL     1     -42.625  60.688 -53.843  1.00  0.00    -0.269 OA
HETATM    4  H   UNL     1     -41.803  58.991 -56.414  1.00  0.00     0.162 HD
ENDROOT
BRANCH   1   5
HETATM    5  C   UNL     1     -41.758  58.475 -53.920  1.00  0.00     0.075 C 
HETATM    6  C   UNL     1     -42.622  57.448 -53.934  1.00  0.00     0.021 C 
BRANCH   6   7
HETATM    7  C   UNL     1     -42.430  56.152 -53.366  1.00  0.00     0.014 C 
HETATM    8  C   UNL     1     -42.896  55.591 -52.157  1.00  0.00     0.063 C 
HETATM    9  C   UNL     1     -43.724  56.202 -51.087  1.00  0.00     0.073 C 
HETATM   10  N   UNL     1     -42.506  54.321 -52.027  1.00  0.00    -0.171 NA
HETATM   11  N   UNL     1     -41.672  54.083 -53.077  1.00  0.00    -0.237 N 
HETATM   12  C   UNL     1     -41.703  55.143 -53.980  1.00  0.00     0.045 C 
HETATM   13  C   UNL     1     -41.126  55.116 -55.353  1.00  0.00     0.071 C 
BRANCH  11  14
HETATM   14  C   UNL     1     -40.928  52.861 -53.102  1.00  0.00     0.058 A 
HETATM   15  C   UNL     1     -40.151  52.516 -51.983  1.00  0.00     0.031 A 
HETATM   16  C   UNL     1     -39.409  51.331 -51.967  1.00  0.00     0.002 A 
HETATM   17  C   UNL     1     -39.422  50.486 -53.074  1.00  0.00     0.000 A 
HETATM   18  C   UNL     1     -40.166  50.831 -54.199  1.00  0.00     0.002 A 
HETATM   19  C   UNL     1     -40.912  52.015 -54.217  1.00  0.00     0.031 A 
ENDBRANCH  11  14
ENDBRANCH   6   7
ENDBRANCH   1   5
BRANCH   2  20
HETATM   20  C   UNL     1     -42.464  60.970 -56.639  1.00  0.00     0.144 C 
BRANCH  20  21
HETATM   21  C   UNL     1     -43.865  60.751 -57.216  1.00  0.00     0.171 C 
BRANCH  21  22
HETATM   22  N   UNL     1     -43.836  59.605 -58.122  1.00  0.00    -0.263 NA
HETATM   23  C   UNL     1     -44.593  58.587 -57.918  1.00  0.00     0.189 C 
BRANCH  23  24
HETATM   24  O   UNL     1     -45.494  58.529 -56.913  1.00  0.00    -0.343 OA
HETATM   25  H   UNL     1     -45.895  59.384 -56.722  1.00  0.00     0.219 HD
ENDBRANCH  23  24
BRANCH  23  26
HETATM   26  C   UNL     1     -44.600  57.324 -58.730  1.00  0.00     0.141 A 
HETATM   27  N   UNL     1     -45.789  57.023 -59.336  1.00  0.00    -0.254 NA
HETATM   28  C   UNL     1     -45.855  55.885 -60.055  1.00  0.00     0.117 A 
HETATM   29  C   UNL     1     -44.793  55.013 -60.210  1.00  0.00     0.022 A 
HETATM   30  C   UNL     1     -43.585  55.327 -59.595  1.00  0.00     0.040 A 
HETATM   31  C   UNL     1     -43.478  56.498 -58.842  1.00  0.00     0.098 A 
BRANCH  31  32
HETATM   32  O   UNL     1     -42.283  56.784 -58.244  1.00  0.00    -0.358 OA
HETATM   33  H   UNL     1     -42.108  57.737 -58.295  1.00  0.00     0.218 HD
ENDBRANCH  31  32
ENDBRANCH  23  26
ENDBRANCH  21  22
ENDBRANCH  20  21
ENDBRANCH   2  20
TORSDOF 9
ENDMDL
MODEL 5
REMARK VINA RESULT:      -7.7      2.084      2.839
REMARK  9 active torsions:
REMARK  status: ('A' for Active; 'I' for Inactive)
REMARK    1  A    between atoms: N_4  and  C_5 
REMARK    2  A    between atoms: C_13  and  C_14 
REMARK    3  A    between atoms: C_15  and  C_16 
REMARK       I    between atoms: C_16  and  N_17 
REMARK    4  A    between atoms: N_17  and  C_18 
REMARK    5  A    between atoms: C_18  and  C_19 
REMARK    6  A    between atoms: C_19  and  N_20 
REMARK    7  A    between atoms: C_21  and  O_22 
REMARK    8  A    between atoms: C_21  and  C_23 
REMARK    9  A    between atoms: C_28  and  O_29 
ROOT
HETATM    1  C   UNL     1     -42.025  58.729 -51.128  1.00  0.00     0.241 C 
HETATM    2  N   UNL     1     -42.792  59.238 -52.142  1.00  0.00    -0.356 N 
HETATM    3  O   UNL     1     -41.341  59.413 -50.376  1.00  0.00    -0.269 OA
HETATM    4  H   UNL     1     -43.465  58.664 -52.633  1.00  0.00     0.162 HD
ENDROOT
BRANCH   1   5
HETATM    5  C   UNL     1     -42.089  57.250 -51.022  1.00  0.00     0.075 C 
HETATM    6  C   UNL     1     -40.940  56.556 -51.027  1.00  0.00     0.021 C 
BRANCH   6   7
HETATM    7  C   UNL     1     -40.791  55.136 -50.991  1.00  0.00     0.014 C 
HETATM    8  C   UNL     1     -40.691  54.241 -49.903  1.00  0.00     0.063 C 
HETATM    9  C   UNL     1     -40.688  54.521 -48.445  1.00  0.00     0.073 C 
HETATM   10  N   UNL     1     -40.596  52.977 -50.319  1.00  0.00    -0.171 NA
HETATM   11  N   UNL     1     -40.497  53.042 -51.676  1.00  0.00    -0.237 N 
HETATM   12  C   UNL     1     -40.737  54.339 -52.124  1.00  0.00     0.045 C 
HETATM   13  C   UNL     1     -40.965  54.725 -53.545  1.00  0.00     0.071 C 
BRANCH  11  14
HETATM   14  C   UNL     1     -40.176  51.851 -52.400  1.00  0.00     0.058 A 
HETATM   15  C   UNL     1     -39.722  50.726 -51.691  1.00  0.00     0.031 A 
HETATM   16  C   UNL     1     -39.399  49.543 -52.363  1.00  0.00     0.002 A 
HETATM   17  C   UNL     1     -39.509  49.475 -53.749  1.00  0.00     0.000 A 
HETATM   18  C   UNL     1     -39.931  50.592 -54.465  1.00  0.00     0.002 A 
HETATM   19  C   UNL     1     -40.258  51.778 -53.796  1.00  0.00     0.031 A 
ENDBRANCH  11  14
ENDBRANCH   6   7
ENDBRANCH   1   5
BRANCH   2  20
HETATM   20  C   UNL     1     -42.926  60.670 -52.334  1.00  0.00     0.144 C 
BRANCH  20  21
HETATM   21  C   UNL     1     -42.914  61.043 -53.818  1.00  0.00     0.171 C 
BRANCH  21  22
HETATM   22  N   UNL     1     -43.144  59.840 -54.616  1.00  0.00    -0.263 NA
HETATM   23  C   UNL     1     -42.466  59.623 -55.686  1.00  0.00     0.189 C 
BRANCH  23  24
HETATM   24  O   UNL     1     -41.473  60.437 -56.107  1.00  0.00    -0.343 OA
HETATM   25  H   UNL     1     -41.308  60.362 -57.054  1.00  0.00     0.219 HD
ENDBRANCH  23  24
BRANCH  23  26
HETATM   26  C   UNL     1     -42.662  58.469 -56.627  1.00  0.00     0.141 A 
HETATM   27  N   UNL     1     -42.685  57.233 -56.042  1.00  0.00    -0.254 NA
HETATM   28  C   UNL     1     -42.830  56.162 -56.846  1.00  0.00     0.117 A 
HETATM   29  C   UNL     1     -42.956  56.246 -58.221  1.00  0.00     0.022 A 
HETATM   30  C   UNL     1     -42.936  57.507 -58.810  1.00  0.00     0.040 A 
HETATM   31  C   UNL     1     -42.788  58.641 -58.009  1.00  0.00     0.098 A 
BRANCH  31  32
HETATM   32  O   UNL     1     -42.767  59.868 -58.609  1.00  0.00    -0.358 OA
HETATM   33  H   UNL     1     -43.247  59.832 -59.451  1.00  0.00     0.218 HD
ENDBRANCH  31  32
ENDBRANCH  23  26
ENDBRANCH  21  22
ENDBRANCH  20  21
ENDBRANCH   2  20
TORSDOF 9
ENDMDL
MODEL 6
REMARK VINA RESULT:      -7.5      2.863      8.714
REMARK  9 active torsions:
REMARK  status: ('A' for Active; 'I' for Inactive)
REMARK    1  A    between atoms: N_4  and  C_5 
REMARK    2  A    between atoms: C_13  and  C_14 
REMARK    3  A    between atoms: C_15  and  C_16 
REMARK       I    between atoms: C_16  and  N_17 
REMARK    4  A    between atoms: N_17  and  C_18 
REMARK    5  A    between atoms: C_18  and  C_19 
REMARK    6  A    between atoms: C_19  and  N_20 
REMARK    7  A    between atoms: C_21  and  O_22 
REMARK    8  A    between atoms: C_21  and  C_23 
REMARK    9  A    between atoms: C_28  and  O_29 
ROOT
HETATM    1  C   UNL     1     -43.152  57.084 -51.941  1.00  0.00     0.241 C 
HETATM    2  N   UNL     1     -41.857  56.804 -51.595  1.00  0.00    -0.356 N 
HETATM    3  O   UNL     1     -44.053  57.271 -51.132  1.00  0.00    -0.269 OA
HETATM    4  H   UNL     1     -41.112  56.819 -52.280  1.00  0.00     0.162 HD
ENDROOT
BRANCH   1   5
HETATM    5  C   UNL     1     -43.374  57.137 -53.407  1.00  0.00     0.075 C 
HETATM    6  C   UNL     1     -42.380  57.581 -54.193  1.00  0.00     0.021 C 
BRANCH   6   7
HETATM    7  C   UNL     1     -42.415  57.759 -55.609  1.00  0.00     0.014 C 
HETATM    8  C   UNL     1     -42.567  56.825 -56.657  1.00  0.00     0.063 C 
HETATM    9  C   UNL     1     -42.717  55.349 -56.596  1.00  0.00     0.073 C 
HETATM   10  N   UNL     1     -42.577  57.427 -57.848  1.00  0.00    -0.171 NA
HETATM   11  N   UNL     1     -42.297  58.737 -57.601  1.00  0.00    -0.237 N 
HETATM   12  C   UNL     1     -42.315  58.993 -56.232  1.00  0.00     0.045 C 
HETATM   13  C   UNL     1     -42.309  60.349 -55.615  1.00  0.00     0.071 C 
BRANCH  11  14
HETATM   14  C   UNL     1     -42.037  59.606 -58.708  1.00  0.00     0.058 A 
HETATM   15  C   UNL     1     -42.336  59.159 -60.007  1.00  0.00     0.031 A 
HETATM   16  C   UNL     1     -42.097  59.978 -61.115  1.00  0.00     0.002 A 
HETATM   17  C   UNL     1     -41.542  61.243 -60.940  1.00  0.00     0.000 A 
HETATM   18  C   UNL     1     -41.216  61.685 -59.661  1.00  0.00     0.002 A 
HETATM   19  C   UNL     1     -41.456  60.869 -58.548  1.00  0.00     0.031 A 
ENDBRANCH  11  14
ENDBRANCH   6   7
ENDBRANCH   1   5
BRANCH   2  20
HETATM   20  C   UNL     1     -41.434  56.807 -50.207  1.00  0.00     0.144 C 
BRANCH  20  21
HETATM   21  C   UNL     1     -41.452  55.399 -49.609  1.00  0.00     0.171 C 
BRANCH  21  22
HETATM   22  N   UNL     1     -41.439  54.418 -50.692  1.00  0.00    -0.263 NA
HETATM   23  C   UNL     1     -40.391  53.715 -50.928  1.00  0.00     0.189 C 
BRANCH  23  24
HETATM   24  O   UNL     1     -39.273  53.781 -50.173  1.00  0.00    -0.343 OA
HETATM   25  H   UNL     1     -39.137  54.653 -49.786  1.00  0.00     0.219 HD
ENDBRANCH  23  24
BRANCH  23  26
HETATM   26  C   UNL     1     -40.230  52.735 -52.054  1.00  0.00     0.141 A 
HETATM   27  N   UNL     1     -39.707  51.520 -51.705  1.00  0.00    -0.254 NA
HETATM   28  C   UNL     1     -39.516  50.614 -52.685  1.00  0.00     0.117 A 
HETATM   29  C   UNL     1     -39.820  50.847 -54.013  1.00  0.00     0.022 A 
HETATM   30  C   UNL     1     -40.356  52.083 -54.362  1.00  0.00     0.040 A 
HETATM   31  C   UNL     1     -40.568  53.047 -53.375  1.00  0.00     0.098 A 
BRANCH  31  32
HETATM   32  O   UNL     1     -41.091  54.255 -53.741  1.00  0.00    -0.358 OA
HETATM   33  H   UNL     1     -41.896  54.121 -54.266  1.00  0.00     0.218 HD
ENDBRANCH  31  32
ENDBRANCH  23  26
ENDBRANCH  21  22
ENDBRANCH  20  21
ENDBRANCH   2  20
TORSDOF 9
ENDMDL
MODEL 7
REMARK VINA RESULT:      -7.5      2.249      4.089
REMARK  9 active torsions:
REMARK  status: ('A' for Active; 'I' for Inactive)
REMARK    1  A    between atoms: N_4  and  C_5 
REMARK    2  A    between atoms: C_13  and  C_14 
REMARK    3  A    between atoms: C_15  and  C_16 
REMARK       I    between atoms: C_16  and  N_17 
REMARK    4  A    between atoms: N_17  and  C_18 
REMARK    5  A    between atoms: C_18  and  C_19 
REMARK    6  A    between atoms: C_19  and  N_20 
REMARK    7  A    between atoms: C_21  and  O_22 
REMARK    8  A    between atoms: C_21  and  C_23 
REMARK    9  A    between atoms: C_28  and  O_29 
ROOT
HETATM    1  C   UNL     1     -44.835  58.099 -56.500  1.00  0.00     0.241 C 
HETATM    2  N   UNL     1     -44.783  57.352 -57.647  1.00  0.00    -0.356 N 
HETATM    3  O   UNL     1     -45.364  59.201 -56.423  1.00  0.00    -0.269 OA
HETATM    4  H   UNL     1     -44.487  56.384 -57.633  1.00  0.00     0.162 HD
ENDROOT
BRANCH   1   5
HETATM    5  C   UNL     1     -44.177  57.448 -55.340  1.00  0.00     0.075 C 
HETATM    6  C   UNL     1     -42.952  56.924 -55.506  1.00  0.00     0.021 C 
BRANCH   6   7
HETATM    7  C   UNL     1     -42.181  56.213 -54.538  1.00  0.00     0.014 C 
HETATM    8  C   UNL     1     -41.361  56.675 -53.485  1.00  0.00     0.063 C 
HETATM    9  C   UNL     1     -41.035  58.065 -53.079  1.00  0.00     0.073 C 
HETATM   10  N   UNL     1     -40.843  55.660 -52.791  1.00  0.00    -0.171 NA
HETATM   11  N   UNL     1     -41.206  54.531 -53.460  1.00  0.00    -0.237 N 
HETATM   12  C   UNL     1     -42.127  54.830 -54.462  1.00  0.00     0.045 C 
HETATM   13  C   UNL     1     -42.929  53.825 -55.215  1.00  0.00     0.071 C 
BRANCH  11  14
HETATM   14  C   UNL     1     -40.627  53.283 -53.070  1.00  0.00     0.058 A 
HETATM   15  C   UNL     1     -40.417  53.028 -51.704  1.00  0.00     0.031 A 
HETATM   16  C   UNL     1     -39.854  51.821 -51.282  1.00  0.00     0.002 A 
HETATM   17  C   UNL     1     -39.478  50.861 -52.219  1.00  0.00     0.000 A 
HETATM   18  C   UNL     1     -39.655  51.113 -53.576  1.00  0.00     0.002 A 
HETATM   19  C   UNL     1     -40.221  52.320 -54.003  1.00  0.00     0.031 A 
ENDBRANCH  11  14
ENDBRANCH   6   7
ENDBRANCH   1   5
BRANCH   2  20
HETATM   20  C   UNL     1     -45.457  57.787 -58.856  1.00  0.00     0.144 C 
BRANCH  20  21
HETATM   21  C   UNL     1     -44.468  58.018 -60.001  1.00  0.00     0.171 C 
BRANCH  21  22
HETATM   22  N   UNL     1     -43.785  59.293 -59.794  1.00  0.00    -0.263 NA
HETATM   23  C   UNL     1     -42.549  59.436 -60.117  1.00  0.00     0.189 C 
BRANCH  23  24
HETATM   24  O   UNL     1     -41.826  58.463 -60.714  1.00  0.00    -0.343 OA
HETATM   25  H   UNL     1     -41.260  58.799 -61.417  1.00  0.00     0.219 HD
ENDBRANCH  23  24
BRANCH  23  26
HETATM   26  C   UNL     1     -41.721  60.666 -59.885  1.00  0.00     0.141 A 
HETATM   27  N   UNL     1     -41.453  61.412 -61.000  1.00  0.00    -0.254 NA
HETATM   28  C   UNL     1     -40.689  62.512 -60.849  1.00  0.00     0.117 A 
HETATM   29  C   UNL     1     -40.168  62.924 -59.637  1.00  0.00     0.022 A 
HETATM   30  C   UNL     1     -40.447  62.163 -58.505  1.00  0.00     0.040 A 
HETATM   31  C   UNL     1     -41.235  61.017 -58.621  1.00  0.00     0.098 A 
BRANCH  31  32
HETATM   32  O   UNL     1     -41.494  60.284 -57.497  1.00  0.00    -0.358 OA
HETATM   33  H   UNL     1     -42.406  59.954 -57.521  1.00  0.00     0.218 HD
ENDBRANCH  31  32
ENDBRANCH  23  26
ENDBRANCH  21  22
ENDBRANCH  20  21
ENDBRANCH   2  20
TORSDOF 9
ENDMDL
MODEL 8
REMARK VINA RESULT:      -7.4      4.526      7.319
REMARK  9 active torsions:
REMARK  status: ('A' for Active; 'I' for Inactive)
REMARK    1  A    between atoms: N_4  and  C_5 
REMARK    2  A    between atoms: C_13  and  C_14 
REMARK    3  A    between atoms: C_15  and  C_16 
REMARK       I    between atoms: C_16  and  N_17 
REMARK    4  A    between atoms: N_17  and  C_18 
REMARK    5  A    between atoms: C_18  and  C_19 
REMARK    6  A    between atoms: C_19  and  N_20 
REMARK    7  A    between atoms: C_21  and  O_22 
REMARK    8  A    between atoms: C_21  and  C_23 
REMARK    9  A    between atoms: C_28  and  O_29 
ROOT
HETATM    1  C   UNL     1     -42.749  60.012 -52.802  1.00  0.00     0.241 C 
HETATM    2  N   UNL     1     -44.077  60.055 -53.134  1.00  0.00    -0.356 N 
HETATM    3  O   UNL     1     -42.016  60.994 -52.779  1.00  0.00    -0.269 OA
HETATM    4  H   UNL     1     -44.684  59.260 -52.983  1.00  0.00     0.162 HD
ENDROOT
BRANCH   1   5
HETATM    5  C   UNL     1     -42.264  58.649 -52.473  1.00  0.00     0.075 C 
HETATM    6  C   UNL     1     -43.014  57.596 -52.838  1.00  0.00     0.021 C 
BRANCH   6   7
HETATM    7  C   UNL     1     -42.753  56.218 -52.567  1.00  0.00     0.014 C 
HETATM    8  C   UNL     1     -43.275  55.351 -51.582  1.00  0.00     0.063 C 
HETATM    9  C   UNL     1     -44.253  55.628 -50.500  1.00  0.00     0.073 C 
HETATM   10  N   UNL     1     -42.780  54.119 -51.707  1.00  0.00    -0.171 NA
HETATM   11  N   UNL     1     -41.833  54.199 -52.682  1.00  0.00    -0.237 N 
HETATM   12  C   UNL     1     -41.880  55.440 -53.312  1.00  0.00     0.045 C 
HETATM   13  C   UNL     1     -41.176  55.784 -54.579  1.00  0.00     0.071 C 
BRANCH  11  14
HETATM   14  C   UNL     1     -40.977  53.074 -52.904  1.00  0.00     0.058 A 
HETATM   15  C   UNL     1     -41.028  52.416 -54.145  1.00  0.00     0.031 A 
HETATM   16  C   UNL     1     -40.208  51.313 -54.402  1.00  0.00     0.002 A 
HETATM   17  C   UNL     1     -39.342  50.844 -53.418  1.00  0.00     0.000 A 
HETATM   18  C   UNL     1     -39.303  51.470 -52.175  1.00  0.00     0.002 A 
HETATM   19  C   UNL     1     -40.121  52.576 -51.915  1.00  0.00     0.031 A 
ENDBRANCH  11  14
ENDBRANCH   6   7
ENDBRANCH   1   5
BRANCH   2  20
HETATM   20  C   UNL     1     -44.745  61.317 -53.392  1.00  0.00     0.144 C 
BRANCH  20  21
HETATM   21  C   UNL     1     -46.140  61.354 -52.765  1.00  0.00     0.171 C 
BRANCH  21  22
HETATM   22  N   UNL     1     -46.035  61.041 -51.342  1.00  0.00    -0.263 NA
HETATM   23  C   UNL     1     -46.150  61.965 -50.456  1.00  0.00     0.189 C 
BRANCH  23  24
HETATM   24  O   UNL     1     -46.432  63.250 -50.764  1.00  0.00    -0.343 OA
HETATM   25  H   UNL     1     -45.763  63.653 -51.329  1.00  0.00     0.219 HD
ENDBRANCH  23  24
BRANCH  23  26
HETATM   26  C   UNL     1     -45.986  61.783 -48.975  1.00  0.00     0.141 A 
HETATM   27  N   UNL     1     -47.047  62.188 -48.213  1.00  0.00    -0.254 NA
HETATM   28  C   UNL     1     -46.939  62.071 -46.875  1.00  0.00     0.117 A 
HETATM   29  C   UNL     1     -45.821  61.567 -46.237  1.00  0.00     0.022 A 
HETATM   30  C   UNL     1     -44.745  61.153 -47.018  1.00  0.00     0.040 A 
HETATM   31  C   UNL     1     -44.820  61.258 -48.408  1.00  0.00     0.098 A 
BRANCH  31  32
HETATM   32  O   UNL     1     -43.752  60.849 -49.154  1.00  0.00    -0.358 OA
HETATM   33  H   UNL     1     -43.185  60.264 -48.627  1.00  0.00     0.218 HD
ENDBRANCH  31  32
ENDBRANCH  23  26
ENDBRANCH  21  22
ENDBRANCH  20  21
ENDBRANCH   2  20
TORSDOF 9
ENDMDL
MODEL 9
REMARK VINA RESULT:      -7.3      3.199      5.618
REMARK  9 active torsions:
REMARK  status: ('A' for Active; 'I' for Inactive)
REMARK    1  A    between atoms: N_4  and  C_5 
REMARK    2  A    between atoms: C_13  and  C_14 
REMARK    3  A    between atoms: C_15  and  C_16 
REMARK       I    between atoms: C_16  and  N_17 
REMARK    4  A    between atoms: N_17  and  C_18 
REMARK    5  A    between atoms: C_18  and  C_19 
REMARK    6  A    between atoms: C_19  and  N_20 
REMARK    7  A    between atoms: C_21  and  O_22 
REMARK    8  A    between atoms: C_21  and  C_23 
REMARK    9  A    between atoms: C_28  and  O_29 
ROOT
HETATM    1  C   UNL     1     -45.550  58.449 -55.618  1.00  0.00     0.241 C 
HETATM    2  N   UNL     1     -45.172  59.610 -54.997  1.00  0.00    -0.356 N 
HETATM    3  O   UNL     1     -46.187  58.406 -56.664  1.00  0.00    -0.269 OA
HETATM    4  H   UNL     1     -44.512  59.607 -54.231  1.00  0.00     0.162 HD
ENDROOT
BRANCH   1   5
HETATM    5  C   UNL     1     -45.119  57.225 -54.897  1.00  0.00     0.075 C 
HETATM    6  C   UNL     1     -43.966  57.257 -54.210  1.00  0.00     0.021 C 
BRANCH   6   7
HETATM    7  C   UNL     1     -43.354  56.178 -53.503  1.00  0.00     0.014 C 
HETATM    8  C   UNL     1     -43.326  55.869 -52.125  1.00  0.00     0.063 C 
HETATM    9  C   UNL     1     -43.919  56.604 -50.979  1.00  0.00     0.073 C 
HETATM   10  N   UNL     1     -42.661  54.736 -51.893  1.00  0.00    -0.171 NA
HETATM   11  N   UNL     1     -42.135  54.366 -53.093  1.00  0.00    -0.237 N 
HETATM   12  C   UNL     1     -42.643  55.159 -54.119  1.00  0.00     0.045 C 
HETATM   13  C   UNL     1     -42.492  54.878 -55.574  1.00  0.00     0.071 C 
BRANCH  11  14
HETATM   14  C   UNL     1     -41.193  53.289 -53.128  1.00  0.00     0.058 A 
HETATM   15  C   UNL     1     -41.219  52.399 -54.216  1.00  0.00     0.031 A 
HETATM   16  C   UNL     1     -40.316  51.334 -54.288  1.00  0.00     0.002 A 
HETATM   17  C   UNL     1     -39.390  51.135 -53.267  1.00  0.00     0.000 A 
HETATM   18  C   UNL     1     -39.374  51.993 -52.171  1.00  0.00     0.002 A 
HETATM   19  C   UNL     1     -40.274  53.062 -52.096  1.00  0.00     0.031 A 
ENDBRANCH  11  14
ENDBRANCH   6   7
ENDBRANCH   1   5
BRANCH   2  20
HETATM   20  C   UNL     1     -45.424  60.902 -55.608  1.00  0.00     0.144 C 
BRANCH  20  21
HETATM   21  C   UNL     1     -44.641  62.016 -54.910  1.00  0.00     0.171 C 
BRANCH  21  22
HETATM   22  N   UNL     1     -44.007  61.477 -53.709  1.00  0.00    -0.263 NA
HETATM   23  C   UNL     1     -42.861  60.899 -53.775  1.00  0.00     0.189 C 
BRANCH  23  24
HETATM   24  O   UNL     1     -42.147  60.805 -54.918  1.00  0.00    -0.343 OA
HETATM   25  H   UNL     1     -42.022  59.894 -55.205  1.00  0.00     0.219 HD
ENDBRANCH  23  24
BRANCH  23  26
HETATM   26  C   UNL     1     -42.146  60.241 -52.630  1.00  0.00     0.141 A 
HETATM   27  N   UNL     1     -41.322  59.204 -52.972  1.00  0.00    -0.254 NA
HETATM   28  C   UNL     1     -40.677  58.562 -51.978  1.00  0.00     0.117 A 
HETATM   29  C   UNL     1     -40.805  58.894 -50.641  1.00  0.00     0.022 A 
HETATM   30  C   UNL     1     -41.642  59.952 -50.300  1.00  0.00     0.040 A 
HETATM   31  C   UNL     1     -42.326  60.642 -51.303  1.00  0.00     0.098 A 
BRANCH  31  32
HETATM   32  O   UNL     1     -43.145  61.675 -50.945  1.00  0.00    -0.358 OA
HETATM   33  H   UNL     1     -42.754  62.518 -51.223  1.00  0.00     0.218 HD
ENDBRANCH  31  32
ENDBRANCH  23  26
ENDBRANCH  21  22
ENDBRANCH  20  21
ENDBRANCH   2  20
TORSDOF 9
ENDMDL
MODEL 10
REMARK VINA RESULT:      -7.2      2.511      3.910
REMARK  9 active torsions:
REMARK  status: ('A' for Active; 'I' for Inactive)
REMARK    1  A    between atoms: N_4  and  C_5 
REMARK    2  A    between atoms: C_13  and  C_14 
REMARK    3  A    between atoms: C_15  and  C_16 
REMARK       I    between atoms: C_16  and  N_17 
REMARK    4  A    between atoms: N_17  and  C_18 
REMARK    5  A    between atoms: C_18  and  C_19 
REMARK    6  A    between atoms: C_19  and  N_20 
REMARK    7  A    between atoms: C_21  and  O_22 
REMARK    8  A    between atoms: C_21  and  C_23 
REMARK    9  A    between atoms: C_28  and  O_29 
ROOT
HETATM    1  C   UNL     1     -44.621  57.662 -51.639  1.00  0.00     0.241 C 
HETATM    2  N   UNL     1     -44.457  58.770 -52.428  1.00  0.00    -0.356 N 
HETATM    3  O   UNL     1     -45.264  57.653 -50.596  1.00  0.00    -0.269 OA
HETATM    4  H   UNL     1     -44.063  58.702 -53.357  1.00  0.00     0.162 HD
ENDROOT
BRANCH   1   5
HETATM    5  C   UNL     1     -43.935  56.455 -52.163  1.00  0.00     0.075 C 
HETATM    6  C   UNL     1     -42.593  56.448 -52.205  1.00  0.00     0.021 C 
BRANCH   6   7
HETATM    7  C   UNL     1     -41.753  55.414 -52.721  1.00  0.00     0.014 C 
HETATM    8  C   UNL     1     -41.049  55.315 -53.941  1.00  0.00     0.063 C 
HETATM    9  C   UNL     1     -40.990  56.265 -55.080  1.00  0.00     0.073 C 
HETATM   10  N   UNL     1     -40.350  54.180 -54.009  1.00  0.00    -0.171 NA
HETATM   11  N   UNL     1     -40.695  53.468 -52.900  1.00  0.00    -0.237 N 
HETATM   12  C   UNL     1     -41.456  54.248 -52.032  1.00  0.00     0.045 C 
HETATM   13  C   UNL     1     -41.786  53.890 -50.625  1.00  0.00     0.071 C 
BRANCH  11  14
HETATM   14  C   UNL     1     -40.261  52.109 -52.792  1.00  0.00     0.058 A 
HETATM   15  C   UNL     1     -40.274  51.298 -53.940  1.00  0.00     0.031 A 
HETATM   16  C   UNL     1     -39.858  49.965 -53.876  1.00  0.00     0.002 A 
HETATM   17  C   UNL     1     -39.439  49.423 -52.663  1.00  0.00     0.000 A 
HETATM   18  C   UNL     1     -39.448  50.208 -51.514  1.00  0.00     0.002 A 
HETATM   19  C   UNL     1     -39.862  51.544 -51.575  1.00  0.00     0.031 A 
ENDBRANCH  11  14
ENDBRANCH   6   7
ENDBRANCH   1   5
BRANCH   2  20
HETATM   20  C   UNL     1     -45.136  60.015 -52.122  1.00  0.00     0.144 C 
BRANCH  20  21
HETATM   21  C   UNL     1     -44.906  61.064 -53.212  1.00  0.00     0.171 C 
BRANCH  21  22
HETATM   22  N   UNL     1     -44.545  60.391 -54.457  1.00  0.00    -0.263 NA
HETATM   23  C   UNL     1     -43.383  60.556 -54.980  1.00  0.00     0.189 C 
BRANCH  23  24
HETATM   24  O   UNL     1     -42.412  61.294 -54.399  1.00  0.00    -0.343 OA
HETATM   25  H   UNL     1     -42.703  62.186 -54.181  1.00  0.00     0.219 HD
ENDBRANCH  23  24
BRANCH  23  26
HETATM   26  C   UNL     1     -42.922  59.981 -56.288  1.00  0.00     0.141 A 
HETATM   27  N   UNL     1     -43.306  58.691 -56.530  1.00  0.00    -0.254 NA
HETATM   28  C   UNL     1     -42.894  58.120 -57.680  1.00  0.00     0.117 A 
HETATM   29  C   UNL     1     -42.111  58.765 -58.619  1.00  0.00     0.022 A 
HETATM   30  C   UNL     1     -41.727  60.080 -58.369  1.00  0.00     0.040 A 
HETATM   31  C   UNL     1     -42.134  60.705 -57.189  1.00  0.00     0.098 A 
BRANCH  31  32
HETATM   32  O   UNL     1     -41.743  61.994 -56.963  1.00  0.00    -0.358 OA
HETATM   33  H   UNL     1     -42.322  62.404 -56.301  1.00  0.00     0.218 HD
ENDBRANCH  31  32
ENDBRANCH  23  26
ENDBRANCH  21  22
ENDBRANCH  20  21
ENDBRANCH   2  20
TORSDOF 9
ENDMDL
