MODEL 1
REMARK VINA RESULT:      -8.9      0.000      0.000
REMARK  9 active torsions:
REMARK  status: ('A' for Active; 'I' for Inactive)
REMARK    1  A    between atoms: C_2  and  C_3 
REMARK    2  A    between atoms: C_3  and  C_4 
REMARK    3  A    between atoms: C_3  and  C_39 
REMARK    4  A    between atoms: C_6  and  C_7 
REMARK    5  A    between atoms: C_14  and  C_15 
REMARK    6  A    between atoms: C_18  and  C_19 
REMARK    7  A    between atoms: C_19  and  N_20 
REMARK       I    between atoms: N_20  and  C_21 
REMARK       I    between atoms: C_21  and  N_22 
REMARK    8  A    between atoms: N_22  and  C_23 
REMARK    9  A    between atoms: C_25  and  C_26 
ROOT
HETATM    1  C   UNL     1     -45.108  58.809 -54.619  1.00  0.00     0.068 C 
HETATM    2  C   UNL     1     -44.834  60.293 -54.992  1.00  0.00     0.001 C 
HETATM    3  C   UNL     1     -43.370  60.661 -54.651  1.00  0.00     0.040 C 
HETATM    4  C   UNL     1     -43.130  60.581 -53.131  1.00  0.00     0.206 C 
HETATM    5  N   UNL     1     -44.372  59.930 -52.532  1.00  0.00    -0.065 N 
HETATM    6  H   UNL     1     -44.168  59.734 -51.527  1.00  0.00     0.280 HD
HETATM    7  C   UNL     1     -44.701  58.579 -53.152  1.00  0.00     0.246 C 
HETATM    8  C   UNL     1     -45.761  61.171 -54.119  1.00  0.00     0.033 C 
HETATM    9  C   UNL     1     -45.551  60.860 -52.632  1.00  0.00     0.236 C 
ENDROOT
BRANCH   1  10
HETATM   10  C   UNL     1     -44.464  57.835 -55.582  1.00  0.00     0.045 A 
HETATM   11  N   UNL     1     -43.640  56.892 -55.078  1.00  0.00    -0.233 NA
HETATM   12  C   UNL     1     -43.049  56.058 -55.964  1.00  0.00     0.160 A 
HETATM   13  N   UNL     1     -43.204  56.140 -57.297  1.00  0.00    -0.233 NA
HETATM   14  C   UNL     1     -44.024  57.094 -57.778  1.00  0.00     0.043 A 
HETATM   15  C   UNL     1     -44.684  57.974 -56.942  1.00  0.00     0.055 A 
BRANCH  12  16
HETATM   16  C   UNL     1     -42.167  54.995 -55.448  1.00  0.00     0.014 A 
HETATM   17  C   UNL     1     -40.773  55.158 -55.412  1.00  0.00     0.034 A 
HETATM   18  C   UNL     1     -39.978  54.139 -54.913  1.00  0.00     0.117 A 
HETATM   19  N   UNL     1     -40.465  52.972 -54.448  1.00  0.00    -0.273 NA
HETATM   20  C   UNL     1     -41.801  52.812 -54.498  1.00  0.00     0.117 A 
HETATM   21  C   UNL     1     -42.674  53.774 -54.980  1.00  0.00     0.034 A 
ENDBRANCH  12  16
BRANCH  14  22
HETATM   22  C   UNL     1     -44.173  57.207 -59.286  1.00  0.00     0.037 C 
BRANCH  22  23
HETATM   23  C   UNL     1     -45.375  56.388 -59.804  1.00  0.00     0.006 C 
HETATM   24  C   UNL     1     -44.975  55.047 -60.407  1.00  0.00     0.006 C 
ENDBRANCH  22  23
BRANCH  22  25
HETATM   25  C   UNL     1     -42.882  56.749 -59.999  1.00  0.00     0.006 C 
HETATM   26  C   UNL     1     -41.903  57.887 -60.266  1.00  0.00     0.006 C 
ENDBRANCH  22  25
ENDBRANCH  14  22
ENDBRANCH   1  10
BRANCH   4  27
HETATM   27  C   UNL     1     -41.801  59.873 -52.752  1.00  0.00     0.157 C 
BRANCH  27  28
HETATM   28  N   UNL     1     -41.813  58.408 -52.800  1.00  0.00    -0.341 N 
HETATM   29  C   UNL     1     -41.210  57.645 -51.828  1.00  0.00     0.320 C 
HETATM   30  N   UNL     1     -41.535  56.317 -51.918  1.00  0.00    -0.309 N 
HETATM   31  O   UNL     1     -40.442  58.155 -51.020  1.00  0.00    -0.247 OA
HETATM   32  H   UNL     1     -41.958  56.003 -52.781  1.00  0.00     0.170 HD
HETATM   33  H   UNL     1     -42.660  57.999 -53.177  1.00  0.00     0.164 HD
BRANCH  30  34
HETATM   34  C   UNL     1     -41.186  55.309 -50.990  1.00  0.00     0.037 A 
HETATM   35  C   UNL     1     -40.694  54.054 -51.363  1.00  0.00     0.044 A 
HETATM   36  C   UNL     1     -40.357  53.090 -50.399  1.00  0.00     0.011 A 
HETATM   37  C   UNL     1     -40.510  53.391 -49.043  1.00  0.00     0.015 A 
HETATM   38  C   UNL     1     -40.987  54.646 -48.662  1.00  0.00     0.003 A 
HETATM   39  C   UNL     1     -41.320  55.600 -49.629  1.00  0.00     0.029 A 
BRANCH  36  40
HETATM   40  C   UNL     1     -39.850  51.770 -50.878  1.00  0.00     0.155 C 
HETATM   41  C   UNL     1     -40.272  50.517 -50.155  1.00  0.00     0.096 C 
HETATM   42  O   UNL     1     -39.107  51.721 -51.857  1.00  0.00    -0.293 OA
ENDBRANCH  36  40
ENDBRANCH  30  34
ENDBRANCH  27  28
ENDBRANCH   4  27
TORSDOF 9
ENDMDL
MODEL 2
REMARK VINA RESULT:      -8.7      3.338      7.417
REMARK  9 active torsions:
REMARK  status: ('A' for Active; 'I' for Inactive)
REMARK    1  A    between atoms: C_2  and  C_3 
REMARK    2  A    between atoms: C_3  and  C_4 
REMARK    3  A    between atoms: C_3  and  C_39 
REMARK    4  A    between atoms: C_6  and  C_7 
REMARK    5  A    between atoms: C_14  and  C_15 
REMARK    6  A    between atoms: C_18  and  C_19 
REMARK    7  A    between atoms: C_19  and  N_20 
REMARK       I    between atoms: N_20  and  C_21 
REMARK       I    between atoms: C_21  and  N_22 
REMARK    8  A    between atoms: N_22  and  C_23 
REMARK    9  A    between atoms: C_25  and  C_26 
ROOT
HETATM    1  C   UNL     1     -42.456  55.594 -55.250  1.00  0.00     0.068 C 
HETATM    2  C   UNL     1     -41.859  56.967 -55.669  1.00  0.00     0.001 C 
HETATM    3  C   UNL     1     -42.284  58.058 -54.656  1.00  0.00     0.040 C 
HETATM    4  C   UNL     1     -43.810  58.261 -54.685  1.00  0.00     0.206 C 
HETATM    5  N   UNL     1     -44.380  57.134 -55.539  1.00  0.00    -0.065 N 
HETATM    6  H   UNL     1     -45.419  57.168 -55.451  1.00  0.00     0.280 HD
HETATM    7  C   UNL     1     -43.976  55.749 -55.054  1.00  0.00     0.246 C 
HETATM    8  C   UNL     1     -42.462  57.336 -57.045  1.00  0.00     0.033 C 
HETATM    9  C   UNL     1     -43.993  57.323 -56.982  1.00  0.00     0.236 C 
ENDROOT
BRANCH   1  10
HETATM   10  C   UNL     1     -41.752  54.992 -54.053  1.00  0.00     0.045 A 
HETATM   11  N   UNL     1     -41.340  53.709 -54.136  1.00  0.00    -0.233 NA
HETATM   12  C   UNL     1     -40.746  53.184 -53.040  1.00  0.00     0.160 A 
HETATM   13  N   UNL     1     -40.581  53.845 -51.882  1.00  0.00    -0.233 NA
HETATM   14  C   UNL     1     -41.006  55.122 -51.820  1.00  0.00     0.043 A 
HETATM   15  C   UNL     1     -41.604  55.742 -52.899  1.00  0.00     0.055 A 
BRANCH  12  16
HETATM   16  C   UNL     1     -40.256  51.795 -53.104  1.00  0.00     0.014 A 
HETATM   17  C   UNL     1     -39.832  51.118 -51.949  1.00  0.00     0.034 A 
HETATM   18  C   UNL     1     -39.384  49.810 -52.049  1.00  0.00     0.117 A 
HETATM   19  N   UNL     1     -39.328  49.127 -53.209  1.00  0.00    -0.273 NA
HETATM   20  C   UNL     1     -39.720  49.783 -54.317  1.00  0.00     0.117 A 
HETATM   21  C   UNL     1     -40.182  51.090 -54.315  1.00  0.00     0.034 A 
ENDBRANCH  12  16
BRANCH  14  22
HETATM   22  C   UNL     1     -40.849  55.858 -50.500  1.00  0.00     0.037 C 
BRANCH  22  23
HETATM   23  C   UNL     1     -41.413  55.039 -49.318  1.00  0.00     0.006 C 
HETATM   24  C   UNL     1     -40.337  54.305 -48.526  1.00  0.00     0.006 C 
ENDBRANCH  22  23
BRANCH  22  25
HETATM   25  C   UNL     1     -41.539  57.238 -50.556  1.00  0.00     0.006 C 
HETATM   26  C   UNL     1     -40.557  58.402 -50.632  1.00  0.00     0.006 C 
ENDBRANCH  22  25
ENDBRANCH  14  22
ENDBRANCH   1  10
BRANCH   4  27
HETATM   27  C   UNL     1     -44.447  58.366 -53.272  1.00  0.00     0.157 C 
BRANCH  27  28
HETATM   28  N   UNL     1     -43.782  59.272 -52.330  1.00  0.00    -0.341 N 
HETATM   29  C   UNL     1     -44.488  60.177 -51.572  1.00  0.00     0.320 C 
HETATM   30  N   UNL     1     -43.727  60.754 -50.590  1.00  0.00    -0.309 N 
HETATM   31  O   UNL     1     -45.662  60.423 -51.826  1.00  0.00    -0.247 OA
HETATM   32  H   UNL     1     -42.725  60.656 -50.666  1.00  0.00     0.170 HD
HETATM   33  H   UNL     1     -42.975  58.881 -51.857  1.00  0.00     0.164 HD
BRANCH  30  34
HETATM   34  C   UNL     1     -44.196  61.615 -49.571  1.00  0.00     0.037 A 
HETATM   35  C   UNL     1     -45.042  61.199 -48.539  1.00  0.00     0.044 A 
HETATM   36  C   UNL     1     -45.474  62.095 -47.548  1.00  0.00     0.011 A 
HETATM   37  C   UNL     1     -45.046  63.425 -47.588  1.00  0.00     0.015 A 
HETATM   38  C   UNL     1     -44.189  63.844 -48.608  1.00  0.00     0.003 A 
HETATM   39  C   UNL     1     -43.764  62.945 -49.591  1.00  0.00     0.029 A 
BRANCH  36  40
HETATM   40  C   UNL     1     -46.388  61.577 -46.486  1.00  0.00     0.155 C 
HETATM   41  C   UNL     1     -46.321  60.121 -46.108  1.00  0.00     0.096 C 
HETATM   42  O   UNL     1     -47.171  62.345 -45.930  1.00  0.00    -0.293 OA
ENDBRANCH  36  40
ENDBRANCH  30  34
ENDBRANCH  27  28
ENDBRANCH   4  27
TORSDOF 9
ENDMDL
MODEL 3
REMARK VINA RESULT:      -8.6      2.158      6.397
REMARK  9 active torsions:
REMARK  status: ('A' for Active; 'I' for Inactive)
REMARK    1  A    between atoms: C_2  and  C_3 
REMARK    2  A    between atoms: C_3  and  C_4 
REMARK    3  A    between atoms: C_3  and  C_39 
REMARK    4  A    between atoms: C_6  and  C_7 
REMARK    5  A    between atoms: C_14  and  C_15 
REMARK    6  A    between atoms: C_18  and  C_19 
REMARK    7  A    between atoms: C_19  and  N_20 
REMARK       I    between atoms: N_20  and  C_21 
REMARK       I    between atoms: C_21  and  N_22 
REMARK    8  A    between atoms: N_22  and  C_23 
REMARK    9  A    between atoms: C_25  and  C_26 
ROOT
HETATM    1  C   UNL     1     -42.739  59.345 -57.476  1.00  0.00     0.068 C 
HETATM    2  C   UNL     1     -43.984  59.190 -58.393  1.00  0.00     0.001 C 
HETATM    3  C   UNL     1     -44.490  57.728 -58.353  1.00  0.00     0.040 C 
HETATM    4  C   UNL     1     -43.438  56.772 -58.945  1.00  0.00     0.206 C 
HETATM    5  N   UNL     1     -42.168  57.595 -59.139  1.00  0.00    -0.065 N 
HETATM    6  H   UNL     1     -41.404  56.935 -59.401  1.00  0.00     0.280 HD
HETATM    7  C   UNL     1     -41.696  58.281 -57.866  1.00  0.00     0.246 C 
HETATM    8  C   UNL     1     -43.537  59.498 -59.842  1.00  0.00     0.033 C 
HETATM    9  C   UNL     1     -42.361  58.601 -60.243  1.00  0.00     0.236 C 
ENDROOT
BRANCH   1  10
HETATM   10  C   UNL     1     -43.091  59.333 -56.005  1.00  0.00     0.045 A 
HETATM   11  N   UNL     1     -44.154  60.060 -55.599  1.00  0.00    -0.233 NA
HETATM   12  C   UNL     1     -44.425  60.061 -54.274  1.00  0.00     0.160 A 
HETATM   13  N   UNL     1     -43.687  59.420 -53.352  1.00  0.00    -0.233 NA
HETATM   14  C   UNL     1     -42.627  58.707 -53.779  1.00  0.00     0.043 A 
HETATM   15  C   UNL     1     -42.292  58.635 -55.116  1.00  0.00     0.055 A 
BRANCH  12  16
HETATM   16  C   UNL     1     -45.596  60.820 -53.797  1.00  0.00     0.014 A 
HETATM   17  C   UNL     1     -46.117  60.623 -52.508  1.00  0.00     0.034 A 
HETATM   18  C   UNL     1     -47.215  61.361 -52.094  1.00  0.00     0.117 A 
HETATM   19  N   UNL     1     -47.831  62.278 -52.865  1.00  0.00    -0.273 NA
HETATM   20  C   UNL     1     -47.340  62.454 -54.106  1.00  0.00     0.117 A 
HETATM   21  C   UNL     1     -46.248  61.763 -54.606  1.00  0.00     0.034 A 
ENDBRANCH  12  16
BRANCH  14  22
HETATM   22  C   UNL     1     -41.775  58.009 -52.732  1.00  0.00     0.037 C 
BRANCH  22  23
HETATM   23  C   UNL     1     -42.521  57.869 -51.387  1.00  0.00     0.006 C 
HETATM   24  C   UNL     1     -43.354  56.597 -51.291  1.00  0.00     0.006 C 
ENDBRANCH  22  23
BRANCH  22  25
HETATM   25  C   UNL     1     -40.446  58.765 -52.517  1.00  0.00     0.006 C 
HETATM   26  C   UNL     1     -40.146  59.055 -51.050  1.00  0.00     0.006 C 
ENDBRANCH  22  25
ENDBRANCH  14  22
ENDBRANCH   1  10
BRANCH   4  27
HETATM   27  C   UNL     1     -43.231  55.483 -58.105  1.00  0.00     0.157 C 
BRANCH  27  28
HETATM   28  N   UNL     1     -42.165  55.531 -57.099  1.00  0.00    -0.341 N 
HETATM   29  C   UNL     1     -42.199  54.751 -55.967  1.00  0.00     0.320 C 
HETATM   30  N   UNL     1     -41.013  54.759 -55.281  1.00  0.00    -0.309 N 
HETATM   31  O   UNL     1     -43.227  54.167 -55.641  1.00  0.00    -0.247 OA
HETATM   32  H   UNL     1     -40.349  55.483 -55.516  1.00  0.00     0.170 HD
HETATM   33  H   UNL     1     -41.233  55.677 -57.469  1.00  0.00     0.164 HD
BRANCH  30  34
HETATM   34  C   UNL     1     -40.692  53.956 -54.162  1.00  0.00     0.037 A 
HETATM   35  C   UNL     1     -40.388  52.595 -54.251  1.00  0.00     0.044 A 
HETATM   36  C   UNL     1     -40.071  51.845 -53.107  1.00  0.00     0.011 A 
HETATM   37  C   UNL     1     -40.052  52.471 -51.858  1.00  0.00     0.015 A 
HETATM   38  C   UNL     1     -40.341  53.833 -51.762  1.00  0.00     0.003 A 
HETATM   39  C   UNL     1     -40.655  54.572 -52.907  1.00  0.00     0.029 A 
BRANCH  36  40
HETATM   40  C   UNL     1     -39.770  50.393 -53.283  1.00  0.00     0.155 C 
HETATM   41  C   UNL     1     -39.598  49.844 -54.675  1.00  0.00     0.096 C 
HETATM   42  O   UNL     1     -39.656  49.671 -52.294  1.00  0.00    -0.293 OA
ENDBRANCH  36  40
ENDBRANCH  30  34
ENDBRANCH  27  28
ENDBRANCH   4  27
TORSDOF 9
ENDMDL
MODEL 4
REMARK VINA RESULT:      -8.6      2.831      7.048
REMARK  9 active torsions:
REMARK  status: ('A' for Active; 'I' for Inactive)
REMARK    1  A    between atoms: C_2  and  C_3 
REMARK    2  A    between atoms: C_3  and  C_4 
REMARK    3  A    between atoms: C_3  and  C_39 
REMARK    4  A    between atoms: C_6  and  C_7 
REMARK    5  A    between atoms: C_14  and  C_15 
REMARK    6  A    between atoms: C_18  and  C_19 
REMARK    7  A    between atoms: C_19  and  N_20 
REMARK       I    between atoms: N_20  and  C_21 
REMARK       I    between atoms: C_21  and  N_22 
REMARK    8  A    between atoms: N_22  and  C_23 
REMARK    9  A    between atoms: C_25  and  C_26 
ROOT
HETATM    1  C   UNL     1     -43.797  56.745 -57.568  1.00  0.00     0.068 C 
HETATM    2  C   UNL     1     -42.528  56.906 -58.452  1.00  0.00     0.001 C 
HETATM    3  C   UNL     1     -41.970  58.343 -58.316  1.00  0.00     0.040 C 
HETATM    4  C   UNL     1     -42.975  59.372 -58.869  1.00  0.00     0.206 C 
HETATM    5  N   UNL     1     -44.269  58.610 -59.134  1.00  0.00    -0.065 N 
HETATM    6  H   UNL     1     -45.003  59.313 -59.370  1.00  0.00     0.280 HD
HETATM    7  C   UNL     1     -44.792  57.869 -57.912  1.00  0.00     0.246 C 
HETATM    8  C   UNL     1     -42.958  56.700 -59.923  1.00  0.00     0.033 C 
HETATM    9  C   UNL     1     -44.093  57.663 -60.292  1.00  0.00     0.236 C 
ENDROOT
BRANCH   1  10
HETATM   10  C   UNL     1     -43.472  56.658 -56.092  1.00  0.00     0.045 A 
HETATM   11  N   UNL     1     -44.207  57.398 -55.234  1.00  0.00    -0.233 NA
HETATM   12  C   UNL     1     -43.873  57.330 -53.925  1.00  0.00     0.160 A 
HETATM   13  N   UNL     1     -42.845  56.609 -53.445  1.00  0.00    -0.233 NA
HETATM   14  C   UNL     1     -42.122  55.884 -54.320  1.00  0.00     0.043 A 
HETATM   15  C   UNL     1     -42.408  55.880 -55.671  1.00  0.00     0.055 A 
BRANCH  12  16
HETATM   16  C   UNL     1     -44.672  58.101 -52.955  1.00  0.00     0.014 A 
HETATM   17  C   UNL     1     -45.371  59.256 -53.341  1.00  0.00     0.034 A 
HETATM   18  C   UNL     1     -46.117  59.950 -52.401  1.00  0.00     0.117 A 
HETATM   19  N   UNL     1     -46.220  59.580 -51.110  1.00  0.00    -0.273 NA
HETATM   20  C   UNL     1     -45.537  58.482 -50.739  1.00  0.00     0.117 A 
HETATM   21  C   UNL     1     -44.765  57.725 -51.607  1.00  0.00     0.034 A 
ENDBRANCH  12  16
BRANCH  14  22
HETATM   22  C   UNL     1     -40.941  55.095 -53.781  1.00  0.00     0.037 C 
BRANCH  22  23
HETATM   23  C   UNL     1     -40.256  54.263 -54.887  1.00  0.00     0.006 C 
HETATM   24  C   UNL     1     -40.215  52.772 -54.580  1.00  0.00     0.006 C 
ENDBRANCH  22  23
BRANCH  22  25
HETATM   25  C   UNL     1     -41.383  54.168 -52.628  1.00  0.00     0.006 C 
HETATM   26  C   UNL     1     -41.045  54.718 -51.246  1.00  0.00     0.006 C 
ENDBRANCH  22  25
ENDBRANCH  14  22
ENDBRANCH   1  10
BRANCH   4  27
HETATM   27  C   UNL     1     -43.150  60.616 -57.958  1.00  0.00     0.157 C 
BRANCH  27  28
HETATM   28  N   UNL     1     -42.297  60.671 -56.767  1.00  0.00    -0.341 N 
HETATM   29  C   UNL     1     -42.806  60.952 -55.521  1.00  0.00     0.320 C 
HETATM   30  N   UNL     1     -41.906  60.719 -54.515  1.00  0.00    -0.309 N 
HETATM   31  O   UNL     1     -43.941  61.398 -55.397  1.00  0.00    -0.247 OA
HETATM   32  H   UNL     1     -40.937  60.610 -54.780  1.00  0.00     0.170 HD
HETATM   33  H   UNL     1     -41.532  60.006 -56.758  1.00  0.00     0.164 HD
BRANCH  30  34
HETATM   34  C   UNL     1     -42.172  60.783 -53.128  1.00  0.00     0.037 A 
HETATM   35  C   UNL     1     -42.948  61.784 -52.536  1.00  0.00     0.044 A 
HETATM   36  C   UNL     1     -43.186  61.797 -51.153  1.00  0.00     0.011 A 
HETATM   37  C   UNL     1     -42.644  60.788 -50.352  1.00  0.00     0.015 A 
HETATM   38  C   UNL     1     -41.880  59.776 -50.937  1.00  0.00     0.003 A 
HETATM   39  C   UNL     1     -41.648  59.772 -52.316  1.00  0.00     0.029 A 
BRANCH  36  40
HETATM   40  C   UNL     1     -44.014  62.907 -50.595  1.00  0.00     0.155 C 
HETATM   41  C   UNL     1     -43.382  63.882 -49.637  1.00  0.00     0.096 C 
HETATM   42  O   UNL     1     -45.192  63.017 -50.933  1.00  0.00    -0.293 OA
ENDBRANCH  36  40
ENDBRANCH  30  34
ENDBRANCH  27  28
ENDBRANCH   4  27
TORSDOF 9
ENDMDL
MODEL 5
REMARK VINA RESULT:      -8.5      2.221      6.674
REMARK  9 active torsions:
REMARK  status: ('A' for Active; 'I' for Inactive)
REMARK    1  A    between atoms: C_2  and  C_3 
REMARK    2  A    between atoms: C_3  and  C_4 
REMARK    3  A    between atoms: C_3  and  C_39 
REMARK    4  A    between atoms: C_6  and  C_7 
REMARK    5  A    between atoms: C_14  and  C_15 
REMARK    6  A    between atoms: C_18  and  C_19 
REMARK    7  A    between atoms: C_19  and  N_20 
REMARK       I    between atoms: N_20  and  C_21 
REMARK       I    between atoms: C_21  and  N_22 
REMARK    8  A    between atoms: N_22  and  C_23 
REMARK    9  A    between atoms: C_25  and  C_26 
ROOT
HETATM    1  C   UNL     1     -44.306  60.100 -55.299  1.00  0.00     0.068 C 
HETATM    2  C   UNL     1     -45.330  58.956 -55.546  1.00  0.00     0.001 C 
HETATM    3  C   UNL     1     -44.598  57.593 -55.584  1.00  0.00     0.040 C 
HETATM    4  C   UNL     1     -43.631  57.528 -56.782  1.00  0.00     0.206 C 
HETATM    5  N   UNL     1     -43.569  58.937 -57.363  1.00  0.00    -0.065 N 
HETATM    6  H   UNL     1     -42.811  58.947 -58.079  1.00  0.00     0.280 HD
HETATM    7  C   UNL     1     -43.176  59.993 -56.339  1.00  0.00     0.246 C 
HETATM    8  C   UNL     1     -45.965  59.193 -56.936  1.00  0.00     0.033 C 
HETATM    9  C   UNL     1     -44.880  59.293 -58.014  1.00  0.00     0.236 C 
ENDROOT
BRANCH   1  10
HETATM   10  C   UNL     1     -43.808  60.139 -53.870  1.00  0.00     0.045 A 
HETATM   11  N   UNL     1     -44.548  60.803 -52.956  1.00  0.00    -0.233 NA
HETATM   12  C   UNL     1     -44.062  60.853 -51.695  1.00  0.00     0.160 A 
HETATM   13  N   UNL     1     -42.887  60.322 -51.317  1.00  0.00    -0.233 NA
HETATM   14  C   UNL     1     -42.163  59.671 -52.247  1.00  0.00     0.043 A 
HETATM   15  C   UNL     1     -42.595  59.554 -53.553  1.00  0.00     0.055 A 
BRANCH  12  16
HETATM   16  C   UNL     1     -44.858  61.544 -50.663  1.00  0.00     0.014 A 
HETATM   17  C   UNL     1     -46.082  62.156 -50.975  1.00  0.00     0.034 A 
HETATM   18  C   UNL     1     -46.804  62.790 -49.975  1.00  0.00     0.117 A 
HETATM   19  N   UNL     1     -46.400  62.857 -48.692  1.00  0.00    -0.273 NA
HETATM   20  C   UNL     1     -45.219  62.282 -48.398  1.00  0.00     0.117 A 
HETATM   21  C   UNL     1     -44.428  61.628 -49.330  1.00  0.00     0.034 A 
ENDBRANCH  12  16
BRANCH  14  22
HETATM   22  C   UNL     1     -40.820  59.098 -51.826  1.00  0.00     0.037 C 
BRANCH  22  23
HETATM   23  C   UNL     1     -40.833  57.554 -51.818  1.00  0.00     0.006 C 
HETATM   24  C   UNL     1     -41.513  56.964 -50.589  1.00  0.00     0.006 C 
ENDBRANCH  22  23
BRANCH  22  25
HETATM   25  C   UNL     1     -40.413  59.624 -50.432  1.00  0.00     0.006 C 
HETATM   26  C   UNL     1     -38.907  59.799 -50.268  1.00  0.00     0.006 C 
ENDBRANCH  22  25
ENDBRANCH  14  22
ENDBRANCH   1  10
BRANCH   4  27
HETATM   27  C   UNL     1     -42.242  56.933 -56.423  1.00  0.00     0.157 C 
BRANCH  27  28
HETATM   28  N   UNL     1     -42.223  55.511 -56.062  1.00  0.00    -0.341 N 
HETATM   29  C   UNL     1     -41.293  54.997 -55.190  1.00  0.00     0.320 C 
HETATM   30  N   UNL     1     -41.586  53.718 -54.797  1.00  0.00    -0.309 N 
HETATM   31  O   UNL     1     -40.308  55.652 -54.869  1.00  0.00    -0.247 OA
HETATM   32  H   UNL     1     -42.274  53.214 -55.339  1.00  0.00     0.170 HD
HETATM   33  H   UNL     1     -43.135  55.074 -55.996  1.00  0.00     0.164 HD
BRANCH  30  34
HETATM   34  C   UNL     1     -40.901  52.972 -53.809  1.00  0.00     0.037 A 
HETATM   35  C   UNL     1     -40.849  53.342 -52.462  1.00  0.00     0.044 A 
HETATM   36  C   UNL     1     -40.159  52.561 -51.520  1.00  0.00     0.011 A 
HETATM   37  C   UNL     1     -39.517  51.392 -51.934  1.00  0.00     0.015 A 
HETATM   38  C   UNL     1     -39.576  51.008 -53.276  1.00  0.00     0.003 A 
HETATM   39  C   UNL     1     -40.266  51.791 -54.206  1.00  0.00     0.029 A 
BRANCH  36  40
HETATM   40  C   UNL     1     -40.140  53.030 -50.103  1.00  0.00     0.155 C 
HETATM   41  C   UNL     1     -39.378  54.281 -49.754  1.00  0.00     0.096 C 
HETATM   42  O   UNL     1     -40.752  52.396 -49.244  1.00  0.00    -0.293 OA
ENDBRANCH  36  40
ENDBRANCH  30  34
ENDBRANCH  27  28
ENDBRANCH   4  27
TORSDOF 9
ENDMDL
MODEL 6
REMARK VINA RESULT:      -8.3      2.068      5.459
REMARK  9 active torsions:
REMARK  status: ('A' for Active; 'I' for Inactive)
REMARK    1  A    between atoms: C_2  and  C_3 
REMARK    2  A    between atoms: C_3  and  C_4 
REMARK    3  A    between atoms: C_3  and  C_39 
REMARK    4  A    between atoms: C_6  and  C_7 
REMARK    5  A    between atoms: C_14  and  C_15 
REMARK    6  A    between atoms: C_18  and  C_19 
REMARK    7  A    between atoms: C_19  and  N_20 
REMARK       I    between atoms: N_20  and  C_21 
REMARK       I    between atoms: C_21  and  N_22 
REMARK    8  A    between atoms: N_22  and  C_23 
REMARK    9  A    between atoms: C_25  and  C_26 
ROOT
HETATM    1  C   UNL     1     -42.761  59.630 -57.400  1.00  0.00     0.068 C 
HETATM    2  C   UNL     1     -43.864  59.478 -58.485  1.00  0.00     0.001 C 
HETATM    3  C   UNL     1     -44.485  58.063 -58.412  1.00  0.00     0.040 C 
HETATM    4  C   UNL     1     -43.435  56.990 -58.758  1.00  0.00     0.206 C 
HETATM    5  N   UNL     1     -42.090  57.705 -58.815  1.00  0.00    -0.065 N 
HETATM    6  H   UNL     1     -41.350  56.975 -58.903  1.00  0.00     0.280 HD
HETATM    7  C   UNL     1     -41.760  58.468 -57.540  1.00  0.00     0.246 C 
HETATM    8  C   UNL     1     -43.183  59.627 -59.865  1.00  0.00     0.033 C 
HETATM    9  C   UNL     1     -42.034  58.622 -60.009  1.00  0.00     0.236 C 
ENDROOT
BRANCH   1  10
HETATM   10  C   UNL     1     -43.330  59.770 -56.004  1.00  0.00     0.045 A 
HETATM   11  N   UNL     1     -42.948  58.876 -55.068  1.00  0.00    -0.233 NA
HETATM   12  C   UNL     1     -43.499  59.002 -53.839  1.00  0.00     0.160 A 
HETATM   13  N   UNL     1     -44.417  59.929 -53.516  1.00  0.00    -0.233 NA
HETATM   14  C   UNL     1     -44.788  60.806 -54.468  1.00  0.00     0.043 A 
HETATM   15  C   UNL     1     -44.260  60.762 -55.743  1.00  0.00     0.055 A 
BRANCH  12  16
HETATM   16  C   UNL     1     -43.083  58.062 -52.783  1.00  0.00     0.014 A 
HETATM   17  C   UNL     1     -41.863  58.220 -52.106  1.00  0.00     0.034 A 
HETATM   18  C   UNL     1     -41.510  57.319 -51.113  1.00  0.00     0.117 A 
HETATM   19  N   UNL     1     -42.279  56.276 -50.745  1.00  0.00    -0.273 NA
HETATM   20  C   UNL     1     -43.441  56.117 -51.406  1.00  0.00     0.117 A 
HETATM   21  C   UNL     1     -43.876  56.966 -52.411  1.00  0.00     0.034 A 
ENDBRANCH  12  16
BRANCH  14  22
HETATM   22  C   UNL     1     -45.850  61.833 -54.110  1.00  0.00     0.037 C 
BRANCH  22  23
HETATM   23  C   UNL     1     -46.701  61.379 -52.903  1.00  0.00     0.006 C 
HETATM   24  C   UNL     1     -46.605  62.322 -51.711  1.00  0.00     0.006 C 
ENDBRANCH  22  23
BRANCH  22  25
HETATM   25  C   UNL     1     -46.768  62.115 -55.319  1.00  0.00     0.006 C 
HETATM   26  C   UNL     1     -46.740  63.571 -55.771  1.00  0.00     0.006 C 
ENDBRANCH  22  25
ENDBRANCH  14  22
ENDBRANCH   1  10
BRANCH   4  27
HETATM   27  C   UNL     1     -43.460  55.768 -57.800  1.00  0.00     0.157 C 
BRANCH  27  28
HETATM   28  N   UNL     1     -42.205  55.469 -57.102  1.00  0.00    -0.341 N 
HETATM   29  C   UNL     1     -42.187  54.845 -55.877  1.00  0.00     0.320 C 
HETATM   30  N   UNL     1     -40.931  54.439 -55.507  1.00  0.00    -0.309 N 
HETATM   31  O   UNL     1     -43.214  54.729 -55.219  1.00  0.00    -0.247 OA
HETATM   32  H   UNL     1     -40.152  54.831 -56.016  1.00  0.00     0.170 HD
HETATM   33  H   UNL     1     -41.430  55.216 -57.704  1.00  0.00     0.164 HD
BRANCH  30  34
HETATM   34  C   UNL     1     -40.609  53.655 -54.376  1.00  0.00     0.037 A 
HETATM   35  C   UNL     1     -40.321  52.289 -54.440  1.00  0.00     0.044 A 
HETATM   36  C   UNL     1     -40.001  51.558 -53.285  1.00  0.00     0.011 A 
HETATM   37  C   UNL     1     -39.962  52.207 -52.049  1.00  0.00     0.015 A 
HETATM   38  C   UNL     1     -40.235  53.575 -51.977  1.00  0.00     0.003 A 
HETATM   39  C   UNL     1     -40.552  54.295 -53.133  1.00  0.00     0.029 A 
BRANCH  36  40
HETATM   40  C   UNL     1     -39.718  50.099 -53.436  1.00  0.00     0.155 C 
HETATM   41  C   UNL     1     -39.577  49.249 -52.201  1.00  0.00     0.096 C 
HETATM   42  O   UNL     1     -39.616  49.612 -54.561  1.00  0.00    -0.293 OA
ENDBRANCH  36  40
ENDBRANCH  30  34
ENDBRANCH  27  28
ENDBRANCH   4  27
TORSDOF 9
ENDMDL
MODEL 7
REMARK VINA RESULT:      -8.3      2.276      6.842
REMARK  9 active torsions:
REMARK  status: ('A' for Active; 'I' for Inactive)
REMARK    1  A    between atoms: C_2  and  C_3 
REMARK    2  A    between atoms: C_3  and  C_4 
REMARK    3  A    between atoms: C_3  and  C_39 
REMARK    4  A    between atoms: C_6  and  C_7 
REMARK    5  A    between atoms: C_14  and  C_15 
REMARK    6  A    between atoms: C_18  and  C_19 
REMARK    7  A    between atoms: C_19  and  N_20 
REMARK       I    between atoms: N_20  and  C_21 
REMARK       I    between atoms: C_21  and  N_22 
REMARK    8  A    between atoms: N_22  and  C_23 
REMARK    9  A    between atoms: C_25  and  C_26 
ROOT
HETATM    1  C   UNL     1     -41.424  54.790 -55.433  1.00  0.00     0.068 C 
HETATM    2  C   UNL     1     -42.397  53.745 -54.819  1.00  0.00     0.001 C 
HETATM    3  C   UNL     1     -43.039  54.315 -53.531  1.00  0.00     0.040 C 
HETATM    4  C   UNL     1     -41.968  54.548 -52.447  1.00  0.00     0.206 C 
HETATM    5  N   UNL     1     -40.617  54.354 -53.127  1.00  0.00    -0.065 N 
HETATM    6  H   UNL     1     -39.881  54.649 -52.450  1.00  0.00     0.280 HD
HETATM    7  C   UNL     1     -40.426  55.241 -54.350  1.00  0.00     0.246 C 
HETATM    8  C   UNL     1     -41.561  52.505 -54.425  1.00  0.00     0.033 C 
HETATM    9  C   UNL     1     -40.415  52.906 -53.488  1.00  0.00     0.236 C 
ENDROOT
BRANCH   1  10
HETATM   10  C   UNL     1     -42.146  55.940 -56.102  1.00  0.00     0.045 A 
HETATM   11  N   UNL     1     -42.196  57.123 -55.455  1.00  0.00    -0.233 NA
HETATM   12  C   UNL     1     -42.879  58.123 -56.059  1.00  0.00     0.160 A 
HETATM   13  N   UNL     1     -43.531  57.993 -57.227  1.00  0.00    -0.233 NA
HETATM   14  C   UNL     1     -43.473  56.801 -57.851  1.00  0.00     0.043 A 
HETATM   15  C   UNL     1     -42.781  55.734 -57.315  1.00  0.00     0.055 A 
BRANCH  12  16
HETATM   16  C   UNL     1     -42.929  59.439 -55.396  1.00  0.00     0.014 A 
HETATM   17  C   UNL     1     -43.586  60.529 -55.989  1.00  0.00     0.034 A 
HETATM   18  C   UNL     1     -43.617  61.749 -55.332  1.00  0.00     0.117 A 
HETATM   19  N   UNL     1     -43.046  61.964 -54.131  1.00  0.00    -0.273 NA
HETATM   20  C   UNL     1     -42.403  60.922 -53.572  1.00  0.00     0.117 A 
HETATM   21  C   UNL     1     -42.319  59.667 -54.154  1.00  0.00     0.034 A 
ENDBRANCH  12  16
BRANCH  14  22
HETATM   22  C   UNL     1     -44.237  56.647 -59.155  1.00  0.00     0.037 C 
BRANCH  22  23
HETATM   23  C   UNL     1     -43.881  55.326 -59.874  1.00  0.00     0.006 C 
HETATM   24  C   UNL     1     -45.101  54.578 -60.397  1.00  0.00     0.006 C 
ENDBRANCH  22  23
BRANCH  22  25
HETATM   25  C   UNL     1     -43.965  57.842 -60.094  1.00  0.00     0.006 C 
HETATM   26  C   UNL     1     -42.506  57.959 -60.517  1.00  0.00     0.006 C 
ENDBRANCH  22  25
ENDBRANCH  14  22
ENDBRANCH   1  10
BRANCH   4  27
HETATM   27  C   UNL     1     -42.116  55.908 -51.714  1.00  0.00     0.157 C 
BRANCH  27  28
HETATM   28  N   UNL     1     -43.474  56.458 -51.639  1.00  0.00    -0.341 N 
HETATM   29  C   UNL     1     -43.705  57.792 -51.400  1.00  0.00     0.320 C 
HETATM   30  N   UNL     1     -45.011  58.149 -51.606  1.00  0.00    -0.309 N 
HETATM   31  O   UNL     1     -42.801  58.522 -51.008  1.00  0.00    -0.247 OA
HETATM   32  H   UNL     1     -45.689  57.403 -51.668  1.00  0.00     0.170 HD
HETATM   33  H   UNL     1     -44.144  56.031 -52.268  1.00  0.00     0.164 HD
BRANCH  30  34
HETATM   34  C   UNL     1     -45.530  59.464 -51.576  1.00  0.00     0.037 A 
HETATM   35  C   UNL     1     -45.705  60.197 -50.399  1.00  0.00     0.044 A 
HETATM   36  C   UNL     1     -46.220  61.503 -50.425  1.00  0.00     0.011 A 
HETATM   37  C   UNL     1     -46.558  62.085 -51.650  1.00  0.00     0.015 A 
HETATM   38  C   UNL     1     -46.373  61.365 -52.832  1.00  0.00     0.003 A 
HETATM   39  C   UNL     1     -45.859  60.064 -52.796  1.00  0.00     0.029 A 
BRANCH  36  40
HETATM   40  C   UNL     1     -46.389  62.216 -49.124  1.00  0.00     0.155 C 
HETATM   41  C   UNL     1     -46.558  63.712 -49.124  1.00  0.00     0.096 C 
HETATM   42  O   UNL     1     -46.399  61.573 -48.075  1.00  0.00    -0.293 OA
ENDBRANCH  36  40
ENDBRANCH  30  34
ENDBRANCH  27  28
ENDBRANCH   4  27
TORSDOF 9
ENDMDL
MODEL 8
REMARK VINA RESULT:      -8.3      2.992      4.959
REMARK  9 active torsions:
REMARK  status: ('A' for Active; 'I' for Inactive)
REMARK    1  A    between atoms: C_2  and  C_3 
REMARK    2  A    between atoms: C_3  and  C_4 
REMARK    3  A    between atoms: C_3  and  C_39 
REMARK    4  A    between atoms: C_6  and  C_7 
REMARK    5  A    between atoms: C_14  and  C_15 
REMARK    6  A    between atoms: C_18  and  C_19 
REMARK    7  A    between atoms: C_19  and  N_20 
REMARK       I    between atoms: N_20  and  C_21 
REMARK       I    between atoms: C_21  and  N_22 
REMARK    8  A    between atoms: N_22  and  C_23 
REMARK    9  A    between atoms: C_25  and  C_26 
ROOT
HETATM    1  C   UNL     1     -43.805  61.320 -55.264  1.00  0.00     0.068 C 
HETATM    2  C   UNL     1     -42.892  61.660 -54.052  1.00  0.00     0.001 C 
HETATM    3  C   UNL     1     -42.486  60.360 -53.317  1.00  0.00     0.040 C 
HETATM    4  C   UNL     1     -43.722  59.673 -52.705  1.00  0.00     0.206 C 
HETATM    5  N   UNL     1     -44.940  60.406 -53.256  1.00  0.00    -0.065 N 
HETATM    6  H   UNL     1     -45.786  59.866 -52.971  1.00  0.00     0.280 HD
HETATM    7  C   UNL     1     -44.978  60.450 -54.778  1.00  0.00     0.246 C 
HETATM    8  C   UNL     1     -43.722  62.521 -53.072  1.00  0.00     0.033 C 
HETATM    9  C   UNL     1     -45.017  61.797 -52.684  1.00  0.00     0.236 C 
ENDROOT
BRANCH   1  10
HETATM   10  C   UNL     1     -43.040  60.709 -56.418  1.00  0.00     0.045 A 
HETATM   11  N   UNL     1     -42.388  61.539 -57.260  1.00  0.00    -0.233 NA
HETATM   12  C   UNL     1     -41.743  60.970 -58.304  1.00  0.00     0.160 A 
HETATM   13  N   UNL     1     -41.746  59.652 -58.565  1.00  0.00    -0.233 NA
HETATM   14  C   UNL     1     -42.409  58.844 -57.715  1.00  0.00     0.043 A 
HETATM   15  C   UNL     1     -43.077  59.339 -56.613  1.00  0.00     0.055 A 
BRANCH  12  16
HETATM   16  C   UNL     1     -40.995  61.843 -59.228  1.00  0.00     0.014 A 
HETATM   17  C   UNL     1     -39.917  62.623 -58.781  1.00  0.00     0.034 A 
HETATM   18  C   UNL     1     -39.234  63.426 -59.681  1.00  0.00     0.117 A 
HETATM   19  N   UNL     1     -39.542  63.508 -60.990  1.00  0.00    -0.273 NA
HETATM   20  C   UNL     1     -40.586  62.771 -61.413  1.00  0.00     0.117 A 
HETATM   21  C   UNL     1     -41.327  61.941 -60.587  1.00  0.00     0.034 A 
ENDBRANCH  12  16
BRANCH  14  22
HETATM   22  C   UNL     1     -42.439  57.357 -58.030  1.00  0.00     0.037 C 
BRANCH  22  23
HETATM   23  C   UNL     1     -42.819  57.092 -59.503  1.00  0.00     0.006 C 
HETATM   24  C   UNL     1     -43.276  55.662 -59.759  1.00  0.00     0.006 C 
ENDBRANCH  22  23
BRANCH  22  25
HETATM   25  C   UNL     1     -43.423  56.620 -57.096  1.00  0.00     0.006 C 
HETATM   26  C   UNL     1     -42.774  55.489 -56.305  1.00  0.00     0.006 C 
ENDBRANCH  22  25
ENDBRANCH  14  22
ENDBRANCH   1  10
BRANCH   4  27
HETATM   27  C   UNL     1     -43.753  58.137 -52.935  1.00  0.00     0.157 C 
BRANCH  27  28
HETATM   28  N   UNL     1     -42.503  57.418 -52.664  1.00  0.00    -0.341 N 
HETATM   29  C   UNL     1     -42.424  56.048 -52.740  1.00  0.00     0.320 C 
HETATM   30  N   UNL     1     -41.134  55.588 -52.693  1.00  0.00    -0.309 N 
HETATM   31  O   UNL     1     -43.440  55.365 -52.803  1.00  0.00    -0.247 OA
HETATM   32  H   UNL     1     -40.425  56.235 -52.377  1.00  0.00     0.170 HD
HETATM   33  H   UNL     1     -41.661  57.896 -52.963  1.00  0.00     0.164 HD
BRANCH  30  34
HETATM   34  C   UNL     1     -40.719  54.250 -52.884  1.00  0.00     0.037 A 
HETATM   35  C   UNL     1     -40.567  53.333 -51.840  1.00  0.00     0.044 A 
HETATM   36  C   UNL     1     -40.157  52.013 -52.085  1.00  0.00     0.011 A 
HETATM   37  C   UNL     1     -39.902  51.605 -53.397  1.00  0.00     0.015 A 
HETATM   38  C   UNL     1     -40.065  52.510 -54.448  1.00  0.00     0.003 A 
HETATM   39  C   UNL     1     -40.474  53.823 -54.193  1.00  0.00     0.029 A 
BRANCH  36  40
HETATM   40  C   UNL     1     -40.005  51.098 -50.916  1.00  0.00     0.155 C 
HETATM   41  C   UNL     1     -39.486  49.702 -51.139  1.00  0.00     0.096 C 
HETATM   42  O   UNL     1     -40.296  51.497 -49.789  1.00  0.00    -0.293 OA
ENDBRANCH  36  40
ENDBRANCH  30  34
ENDBRANCH  27  28
ENDBRANCH   4  27
TORSDOF 9
ENDMDL
MODEL 9
REMARK VINA RESULT:      -8.3      2.068      6.495
REMARK  9 active torsions:
REMARK  status: ('A' for Active; 'I' for Inactive)
REMARK    1  A    between atoms: C_2  and  C_3 
REMARK    2  A    between atoms: C_3  and  C_4 
REMARK    3  A    between atoms: C_3  and  C_39 
REMARK    4  A    between atoms: C_6  and  C_7 
REMARK    5  A    between atoms: C_14  and  C_15 
REMARK    6  A    between atoms: C_18  and  C_19 
REMARK    7  A    between atoms: C_19  and  N_20 
REMARK       I    between atoms: N_20  and  C_21 
REMARK       I    between atoms: C_21  and  N_22 
REMARK    8  A    between atoms: N_22  and  C_23 
REMARK    9  A    between atoms: C_25  and  C_26 
ROOT
HETATM    1  C   UNL     1     -42.774  59.381 -57.149  1.00  0.00     0.068 C 
HETATM    2  C   UNL     1     -43.999  59.239 -58.095  1.00  0.00     0.001 C 
HETATM    3  C   UNL     1     -44.499  57.774 -58.094  1.00  0.00     0.040 C 
HETATM    4  C   UNL     1     -43.430  56.834 -58.683  1.00  0.00     0.206 C 
HETATM    5  N   UNL     1     -42.160  57.666 -58.834  1.00  0.00    -0.065 N 
HETATM    6  H   UNL     1     -41.388  57.015 -59.092  1.00  0.00     0.280 HD
HETATM    7  C   UNL     1     -41.718  58.329 -57.537  1.00  0.00     0.246 C 
HETATM    8  C   UNL     1     -43.523  59.578 -59.527  1.00  0.00     0.033 C 
HETATM    9  C   UNL     1     -42.334  58.694 -59.921  1.00  0.00     0.236 C 
ENDROOT
BRANCH   1  10
HETATM   10  C   UNL     1     -43.158  59.338 -55.685  1.00  0.00     0.045 A 
HETATM   11  N   UNL     1     -44.031  60.261 -55.229  1.00  0.00    -0.233 NA
HETATM   12  C   UNL     1     -44.329  60.223 -53.910  1.00  0.00     0.160 A 
HETATM   13  N   UNL     1     -43.785  59.356 -53.038  1.00  0.00    -0.233 NA
HETATM   14  C   UNL     1     -42.912  58.448 -53.515  1.00  0.00     0.043 A 
HETATM   15  C   UNL     1     -42.568  58.404 -54.851  1.00  0.00     0.055 A 
BRANCH  12  16
HETATM   16  C   UNL     1     -45.301  61.197 -53.381  1.00  0.00     0.014 A 
HETATM   17  C   UNL     1     -46.299  60.811 -52.473  1.00  0.00     0.034 A 
HETATM   18  C   UNL     1     -47.191  61.757 -51.993  1.00  0.00     0.117 A 
HETATM   19  N   UNL     1     -47.162  63.057 -52.347  1.00  0.00    -0.273 NA
HETATM   20  C   UNL     1     -46.214  63.422 -53.231  1.00  0.00     0.117 A 
HETATM   21  C   UNL     1     -45.282  62.547 -53.765  1.00  0.00     0.034 A 
ENDBRANCH  12  16
BRANCH  14  22
HETATM   22  C   UNL     1     -42.274  57.490 -52.523  1.00  0.00     0.037 C 
BRANCH  22  23
HETATM   23  C   UNL     1     -43.161  57.285 -51.275  1.00  0.00     0.006 C 
HETATM   24  C   UNL     1     -43.603  55.839 -51.083  1.00  0.00     0.006 C 
ENDBRANCH  22  23
BRANCH  22  25
HETATM   25  C   UNL     1     -40.879  57.994 -52.095  1.00  0.00     0.006 C 
HETATM   26  C   UNL     1     -40.911  58.887 -50.860  1.00  0.00     0.006 C 
ENDBRANCH  22  25
ENDBRANCH  14  22
ENDBRANCH   1  10
BRANCH   4  27
HETATM   27  C   UNL     1     -43.235  55.530 -57.864  1.00  0.00     0.157 C 
BRANCH  27  28
HETATM   28  N   UNL     1     -42.157  55.545 -56.870  1.00  0.00    -0.341 N 
HETATM   29  C   UNL     1     -42.131  54.666 -55.813  1.00  0.00     0.320 C 
HETATM   30  N   UNL     1     -40.936  54.677 -55.143  1.00  0.00    -0.309 N 
HETATM   31  O   UNL     1     -43.121  54.000 -55.531  1.00  0.00    -0.247 OA
HETATM   32  H   UNL     1     -40.316  55.454 -55.319  1.00  0.00     0.170 HD
HETATM   33  H   UNL     1     -41.241  55.775 -57.236  1.00  0.00     0.164 HD
BRANCH  30  34
HETATM   34  C   UNL     1     -40.555  53.795 -54.105  1.00  0.00     0.037 A 
HETATM   35  C   UNL     1     -40.635  54.121 -52.748  1.00  0.00     0.044 A 
HETATM   36  C   UNL     1     -40.249  53.205 -51.757  1.00  0.00     0.011 A 
HETATM   37  C   UNL     1     -39.781  51.943 -52.131  1.00  0.00     0.015 A 
HETATM   38  C   UNL     1     -39.711  51.604 -53.484  1.00  0.00     0.003 A 
HETATM   39  C   UNL     1     -40.099  52.523 -54.465  1.00  0.00     0.029 A 
BRANCH  36  40
HETATM   40  C   UNL     1     -40.352  53.633 -50.330  1.00  0.00     0.155 C 
HETATM   41  C   UNL     1     -40.216  55.094 -49.991  1.00  0.00     0.096 C 
HETATM   42  O   UNL     1     -40.557  52.792 -49.456  1.00  0.00    -0.293 OA
ENDBRANCH  36  40
ENDBRANCH  30  34
ENDBRANCH  27  28
ENDBRANCH   4  27
TORSDOF 9
ENDMDL
MODEL 10
REMARK VINA RESULT:      -8.2      2.194      5.602
REMARK  9 active torsions:
REMARK  status: ('A' for Active; 'I' for Inactive)
REMARK    1  A    between atoms: C_2  and  C_3 
REMARK    2  A    between atoms: C_3  and  C_4 
REMARK    3  A    between atoms: C_3  and  C_39 
REMARK    4  A    between atoms: C_6  and  C_7 
REMARK    5  A    between atoms: C_14  and  C_15 
REMARK    6  A    between atoms: C_18  and  C_19 
REMARK    7  A    between atoms: C_19  and  N_20 
REMARK       I    between atoms: N_20  and  C_21 
REMARK       I    between atoms: C_21  and  N_22 
REMARK    8  A    between atoms: N_22  and  C_23 
REMARK    9  A    between atoms: C_25  and  C_26 
ROOT
HETATM    1  C   UNL     1     -43.121  59.451 -58.139  1.00  0.00     0.068 C 
HETATM    2  C   UNL     1     -43.986  58.964 -59.335  1.00  0.00     0.001 C 
HETATM    3  C   UNL     1     -44.461  57.512 -59.086  1.00  0.00     0.040 C 
HETATM    4  C   UNL     1     -43.260  56.547 -59.042  1.00  0.00     0.206 C 
HETATM    5  N   UNL     1     -42.008  57.418 -59.023  1.00  0.00    -0.065 N 
HETATM    6  H   UNL     1     -41.194  56.790 -58.847  1.00  0.00     0.280 HD
HETATM    7  C   UNL     1     -41.997  58.430 -57.886  1.00  0.00     0.246 C 
HETATM    8  C   UNL     1     -43.083  58.959 -60.591  1.00  0.00     0.033 C 
HETATM    9  C   UNL     1     -41.830  58.109 -60.349  1.00  0.00     0.236 C 
ENDROOT
BRANCH   1  10
HETATM   10  C   UNL     1     -43.946  59.756 -56.907  1.00  0.00     0.045 A 
HETATM   11  N   UNL     1     -43.793  58.963 -55.826  1.00  0.00    -0.233 NA
HETATM   12  C   UNL     1     -44.569  59.235 -54.752  1.00  0.00     0.160 A 
HETATM   13  N   UNL     1     -45.493  60.210 -54.716  1.00  0.00    -0.233 NA
HETATM   14  C   UNL     1     -45.633  60.985 -55.809  1.00  0.00     0.043 A 
HETATM   15  C   UNL     1     -44.867  60.789 -56.941  1.00  0.00     0.055 A 
BRANCH  12  16
HETATM   16  C   UNL     1     -44.408  58.408 -53.542  1.00  0.00     0.014 A 
HETATM   17  C   UNL     1     -43.735  57.177 -53.584  1.00  0.00     0.034 A 
HETATM   18  C   UNL     1     -43.598  56.432 -52.424  1.00  0.00     0.117 A 
HETATM   19  N   UNL     1     -44.079  56.820 -51.227  1.00  0.00    -0.273 NA
HETATM   20  C   UNL     1     -44.739  57.993 -51.191  1.00  0.00     0.117 A 
HETATM   21  C   UNL     1     -44.925  58.805 -52.299  1.00  0.00     0.034 A 
ENDBRANCH  12  16
BRANCH  14  22
HETATM   22  C   UNL     1     -46.700  62.066 -55.779  1.00  0.00     0.037 C 
BRANCH  22  23
HETATM   23  C   UNL     1     -47.378  62.239 -57.156  1.00  0.00     0.006 C 
HETATM   24  C   UNL     1     -48.787  61.662 -57.210  1.00  0.00     0.006 C 
ENDBRANCH  22  23
BRANCH  22  25
HETATM   25  C   UNL     1     -46.103  63.413 -55.318  1.00  0.00     0.006 C 
HETATM   26  C   UNL     1     -46.559  63.831 -53.925  1.00  0.00     0.006 C 
ENDBRANCH  22  25
ENDBRANCH  14  22
ENDBRANCH   1  10
BRANCH   4  27
HETATM   27  C   UNL     1     -43.334  55.521 -57.879  1.00  0.00     0.157 C 
BRANCH  27  28
HETATM   28  N   UNL     1     -42.190  55.502 -56.962  1.00  0.00    -0.341 N 
HETATM   29  C   UNL     1     -42.168  54.701 -55.845  1.00  0.00     0.320 C 
HETATM   30  N   UNL     1     -40.932  54.642 -55.257  1.00  0.00    -0.309 N 
HETATM   31  O   UNL     1     -43.192  54.155 -55.448  1.00  0.00    -0.247 OA
HETATM   32  H   UNL     1     -40.258  55.342 -55.532  1.00  0.00     0.170 HD
HETATM   33  H   UNL     1     -41.285  55.615 -57.403  1.00  0.00     0.164 HD
BRANCH  30  34
HETATM   34  C   UNL     1     -40.560  53.803 -54.182  1.00  0.00     0.037 A 
HETATM   35  C   UNL     1     -40.679  54.171 -52.839  1.00  0.00     0.044 A 
HETATM   36  C   UNL     1     -40.299  53.297 -51.808  1.00  0.00     0.011 A 
HETATM   37  C   UNL     1     -39.798  52.032 -52.129  1.00  0.00     0.015 A 
HETATM   38  C   UNL     1     -39.690  51.650 -53.468  1.00  0.00     0.003 A 
HETATM   39  C   UNL     1     -40.071  52.529 -54.488  1.00  0.00     0.029 A 
BRANCH  36  40
HETATM   40  C   UNL     1     -40.444  53.769 -50.400  1.00  0.00     0.155 C 
HETATM   41  C   UNL     1     -40.798  55.210 -50.143  1.00  0.00     0.096 C 
HETATM   42  O   UNL     1     -40.285  52.976 -49.472  1.00  0.00    -0.293 OA
ENDBRANCH  36  40
ENDBRANCH  30  34
ENDBRANCH  27  28
ENDBRANCH   4  27
TORSDOF 9
ENDMDL
