MODEL 1
REMARK VINA RESULT:      -9.1      0.000      0.000
REMARK  5 active torsions:
REMARK  status: ('A' for Active; 'I' for Inactive)
REMARK    1  A    between atoms: C_4  and  C_5 
REMARK    2  A    between atoms: C_6  and  N_7 
REMARK    3  A    between atoms: C_9  and  C_10 
REMARK       I    between atoms: C_10  and  N_11 
REMARK    4  A    between atoms: N_11  and  C_12 
REMARK    5  A    between atoms: C_12  and  C_13 
ROOT
HETATM    1  C   UNL     1     -41.328  54.130 -52.340  1.00  0.00     0.019 A 
HETATM    2  C   UNL     1     -41.483  54.893 -51.225  1.00  0.00     0.111 A 
HETATM    3  C   UNL     1     -41.019  54.337 -49.882  1.00  0.00     0.273 A 
HETATM    4  O   UNL     1     -41.156  54.954 -48.824  1.00  0.00    -0.266 OA
HETATM    5  N   UNL     1     -40.438  53.102 -49.866  1.00  0.00    -0.321 N 
HETATM    6  C   UNL     1     -40.243  52.322 -51.001  1.00  0.00     0.046 A 
HETATM    7  C   UNL     1     -40.670  52.798 -52.244  1.00  0.00     0.006 A 
HETATM    8  C   UNL     1     -39.614  51.081 -50.871  1.00  0.00     0.032 A 
HETATM    9  C   UNL     1     -39.394  50.297 -52.003  1.00  0.00     0.026 A 
HETATM   10  C   UNL     1     -39.808  50.760 -53.250  1.00  0.00     0.035 A 
HETATM   11 CL   UNL     1     -39.528  49.797 -54.649  1.00  0.00    -0.084 Cl
HETATM   12  C   UNL     1     -40.440  51.997 -53.374  1.00  0.00     0.038 A 
HETATM   13  H   UNL     1     -40.144  52.777 -48.957  1.00  0.00     0.169 HD
ENDROOT
BRANCH   2  14
HETATM   14  N   UNL     1     -42.054  56.189 -51.225  1.00  0.00    -0.375 N 
HETATM   15  C   UNL     1     -41.255  57.334 -50.746  1.00  0.00     0.137 C 
HETATM   16  C   UNL     1     -41.727  58.641 -51.397  1.00  0.00     0.096 C 
HETATM   17  C   UNL     1     -43.236  58.829 -51.161  1.00  0.00     0.017 C 
HETATM   18  C   UNL     1     -44.042  57.584 -51.541  1.00  0.00     0.021 C 
HETATM   19  C   UNL     1     -43.480  56.325 -50.885  1.00  0.00     0.123 C 
BRANCH  16  20
HETATM   20  C   UNL     1     -41.354  58.736 -52.879  1.00  0.00     0.223 C 
HETATM   21  N   UNL     1     -42.372  59.164 -53.703  1.00  0.00    -0.358 N 
HETATM   22  H   UNL     1     -43.325  59.173 -53.364  1.00  0.00     0.162 HD
HETATM   23  O   UNL     1     -40.265  58.381 -53.324  1.00  0.00    -0.273 OA
BRANCH  21  24
HETATM   24  C   UNL     1     -42.199  59.320 -55.136  1.00  0.00     0.154 C 
BRANCH  24  25
HETATM   25  C   UNL     1     -43.532  59.487 -55.859  1.00  0.00     0.139 C 
HETATM   26  O   UNL     1     -43.427  58.992 -57.213  1.00  0.00    -0.384 OA
HETATM   27  C   UNL     1     -44.632  58.278 -57.529  1.00  0.00     0.168 C 
HETATM   28  C   UNL     1     -45.588  58.477 -56.371  1.00  0.00     0.029 C 
HETATM   29  C   UNL     1     -44.648  58.684 -55.212  1.00  0.00     0.035 C 
ENDBRANCH  24  25
ENDBRANCH  21  24
ENDBRANCH  16  20
ENDBRANCH   2  14
BRANCH   1  30
HETATM   30  C   UNL     1     -41.790  54.691 -53.636  1.00  0.00    -0.023 A 
HETATM   31  C   UNL     1     -40.895  55.369 -54.472  1.00  0.00     0.012 A 
HETATM   32  C   UNL     1     -41.323  55.875 -55.700  1.00  0.00     0.001 A 
HETATM   33  C   UNL     1     -42.646  55.704 -56.102  1.00  0.00     0.000 A 
HETATM   34  C   UNL     1     -43.543  55.023 -55.280  1.00  0.00     0.001 A 
HETATM   35  C   UNL     1     -43.117  54.515 -54.051  1.00  0.00     0.012 A 
ENDBRANCH   1  30
TORSDOF 5
ENDMDL
MODEL 2
REMARK VINA RESULT:      -8.5      1.002      1.588
REMARK  5 active torsions:
REMARK  status: ('A' for Active; 'I' for Inactive)
REMARK    1  A    between atoms: C_4  and  C_5 
REMARK    2  A    between atoms: C_6  and  N_7 
REMARK    3  A    between atoms: C_9  and  C_10 
REMARK       I    between atoms: C_10  and  N_11 
REMARK    4  A    between atoms: N_11  and  C_12 
REMARK    5  A    between atoms: C_12  and  C_13 
ROOT
HETATM    1  C   UNL     1     -41.444  54.038 -52.298  1.00  0.00     0.019 A 
HETATM    2  C   UNL     1     -41.646  54.800 -51.190  1.00  0.00     0.111 A 
HETATM    3  C   UNL     1     -41.186  54.266 -49.836  1.00  0.00     0.273 A 
HETATM    4  O   UNL     1     -41.363  54.882 -48.784  1.00  0.00    -0.266 OA
HETATM    5  N   UNL     1     -40.560  53.054 -49.804  1.00  0.00    -0.321 N 
HETATM    6  C   UNL     1     -40.317  52.277 -50.932  1.00  0.00     0.046 A 
HETATM    7  C   UNL     1     -40.740  52.732 -52.184  1.00  0.00     0.006 A 
HETATM    8  C   UNL     1     -39.645  51.061 -50.786  1.00  0.00     0.032 A 
HETATM    9  C   UNL     1     -39.378  50.280 -51.910  1.00  0.00     0.026 A 
HETATM   10  C   UNL     1     -39.786  50.723 -53.166  1.00  0.00     0.035 A 
HETATM   11 CL   UNL     1     -39.448  49.765 -54.556  1.00  0.00    -0.084 Cl
HETATM   12  C   UNL     1     -40.462  51.935 -53.307  1.00  0.00     0.038 A 
HETATM   13  H   UNL     1     -40.270  52.743 -48.889  1.00  0.00     0.169 HD
ENDROOT
BRANCH   2  14
HETATM   14  N   UNL     1     -42.264  56.074 -51.205  1.00  0.00    -0.375 N 
HETATM   15  C   UNL     1     -41.489  57.262 -50.797  1.00  0.00     0.137 C 
HETATM   16  C   UNL     1     -42.035  58.529 -51.467  1.00  0.00     0.096 C 
HETATM   17  C   UNL     1     -43.539  58.671 -51.174  1.00  0.00     0.017 C 
HETATM   18  C   UNL     1     -44.314  57.387 -51.479  1.00  0.00     0.021 C 
HETATM   19  C   UNL     1     -43.679  56.170 -50.809  1.00  0.00     0.123 C 
BRANCH  16  20
HETATM   20  C   UNL     1     -41.728  58.589 -52.966  1.00  0.00     0.223 C 
HETATM   21  N   UNL     1     -42.803  58.921 -53.762  1.00  0.00    -0.358 N 
HETATM   22  H   UNL     1     -43.740  58.884 -53.384  1.00  0.00     0.162 HD
HETATM   23  O   UNL     1     -40.637  58.285 -53.443  1.00  0.00    -0.273 OA
BRANCH  21  24
HETATM   24  C   UNL     1     -42.696  59.031 -55.206  1.00  0.00     0.154 C 
BRANCH  24  25
HETATM   25  C   UNL     1     -42.289  60.435 -55.644  1.00  0.00     0.139 C 
HETATM   26  O   UNL     1     -41.381  60.359 -56.767  1.00  0.00    -0.384 OA
HETATM   27  C   UNL     1     -41.731  61.391 -57.702  1.00  0.00     0.168 C 
HETATM   28  C   UNL     1     -42.803  62.240 -57.053  1.00  0.00     0.029 C 
HETATM   29  C   UNL     1     -43.472  61.259 -56.127  1.00  0.00     0.035 C 
ENDBRANCH  24  25
ENDBRANCH  21  24
ENDBRANCH  16  20
ENDBRANCH   2  14
BRANCH   1  30
HETATM   30  C   UNL     1     -41.904  54.577 -53.604  1.00  0.00    -0.023 A 
HETATM   31  C   UNL     1     -43.258  54.515 -53.957  1.00  0.00     0.012 A 
HETATM   32  C   UNL     1     -43.695  55.043 -55.172  1.00  0.00     0.001 A 
HETATM   33  C   UNL     1     -42.783  55.639 -56.042  1.00  0.00     0.000 A 
HETATM   34  C   UNL     1     -41.434  55.712 -55.696  1.00  0.00     0.001 A 
HETATM   35  C   UNL     1     -40.995  55.186 -54.480  1.00  0.00     0.012 A 
ENDBRANCH   1  30
TORSDOF 5
ENDMDL
MODEL 3
REMARK VINA RESULT:      -8.2      2.448      6.885
REMARK  5 active torsions:
REMARK  status: ('A' for Active; 'I' for Inactive)
REMARK    1  A    between atoms: C_4  and  C_5 
REMARK    2  A    between atoms: C_6  and  N_7 
REMARK    3  A    between atoms: C_9  and  C_10 
REMARK       I    between atoms: C_10  and  N_11 
REMARK    4  A    between atoms: N_11  and  C_12 
REMARK    5  A    between atoms: C_12  and  C_13 
ROOT
HETATM    1  C   UNL     1     -42.736  57.480 -55.924  1.00  0.00     0.019 A 
HETATM    2  C   UNL     1     -42.589  58.669 -55.280  1.00  0.00     0.111 A 
HETATM    3  C   UNL     1     -42.811  59.962 -56.062  1.00  0.00     0.273 A 
HETATM    4  O   UNL     1     -42.665  61.076 -55.558  1.00  0.00    -0.266 OA
HETATM    5  N   UNL     1     -43.178  59.863 -57.372  1.00  0.00    -0.321 N 
HETATM    6  C   UNL     1     -43.363  58.655 -58.037  1.00  0.00     0.046 A 
HETATM    7  C   UNL     1     -43.154  57.454 -57.353  1.00  0.00     0.006 A 
HETATM    8  C   UNL     1     -43.764  58.672 -59.375  1.00  0.00     0.032 A 
HETATM    9  C   UNL     1     -43.972  57.469 -60.049  1.00  0.00     0.026 A 
HETATM   10  C   UNL     1     -43.775  56.264 -59.379  1.00  0.00     0.035 A 
HETATM   11 CL   UNL     1     -44.041  54.778 -60.206  1.00  0.00    -0.084 Cl
HETATM   12  C   UNL     1     -43.369  56.251 -58.044  1.00  0.00     0.038 A 
HETATM   13  H   UNL     1     -43.317  60.742 -57.848  1.00  0.00     0.169 HD
ENDROOT
BRANCH   2  14
HETATM   14  N   UNL     1     -42.240  58.793 -53.914  1.00  0.00    -0.375 N 
HETATM   15  C   UNL     1     -43.161  59.481 -52.988  1.00  0.00     0.137 C 
HETATM   16  C   UNL     1     -42.978  58.971 -51.553  1.00  0.00     0.096 C 
HETATM   17  C   UNL     1     -41.504  59.106 -51.133  1.00  0.00     0.017 C 
HETATM   18  C   UNL     1     -40.549  58.502 -52.166  1.00  0.00     0.021 C 
HETATM   19  C   UNL     1     -40.828  59.031 -53.571  1.00  0.00     0.123 C 
BRANCH  16  20
HETATM   20  C   UNL     1     -43.511  57.550 -51.354  1.00  0.00     0.223 C 
HETATM   21  N   UNL     1     -42.661  56.705 -50.674  1.00  0.00    -0.358 N 
HETATM   22  H   UNL     1     -41.691  56.962 -50.547  1.00  0.00     0.162 HD
HETATM   23  O   UNL     1     -44.573  57.155 -51.830  1.00  0.00    -0.273 OA
BRANCH  21  24
HETATM   24  C   UNL     1     -43.002  55.323 -50.389  1.00  0.00     0.154 C 
BRANCH  24  25
HETATM   25  C   UNL     1     -41.841  54.567 -49.748  1.00  0.00     0.139 C 
HETATM   26  O   UNL     1     -41.585  53.344 -50.475  1.00  0.00    -0.384 OA
HETATM   27  C   UNL     1     -40.164  53.169 -50.578  1.00  0.00     0.168 C 
HETATM   28  C   UNL     1     -39.516  54.251 -49.741  1.00  0.00     0.029 C 
HETATM   29  C   UNL     1     -40.541  55.353 -49.793  1.00  0.00     0.035 C 
ENDBRANCH  24  25
ENDBRANCH  21  24
ENDBRANCH  16  20
ENDBRANCH   2  14
BRANCH   1  30
HETATM   30  C   UNL     1     -42.511  56.236 -55.144  1.00  0.00    -0.023 A 
HETATM   31  C   UNL     1     -43.590  55.570 -54.549  1.00  0.00     0.012 A 
HETATM   32  C   UNL     1     -43.383  54.388 -53.837  1.00  0.00     0.001 A 
HETATM   33  C   UNL     1     -42.098  53.862 -53.717  1.00  0.00     0.000 A 
HETATM   34  C   UNL     1     -41.019  54.513 -54.312  1.00  0.00     0.001 A 
HETATM   35  C   UNL     1     -41.223  55.695 -55.026  1.00  0.00     0.012 A 
ENDBRANCH   1  30
TORSDOF 5
ENDMDL
MODEL 4
REMARK VINA RESULT:      -7.7      2.853      4.318
REMARK  5 active torsions:
REMARK  status: ('A' for Active; 'I' for Inactive)
REMARK    1  A    between atoms: C_4  and  C_5 
REMARK    2  A    between atoms: C_6  and  N_7 
REMARK    3  A    between atoms: C_9  and  C_10 
REMARK       I    between atoms: C_10  and  N_11 
REMARK    4  A    between atoms: N_11  and  C_12 
REMARK    5  A    between atoms: C_12  and  C_13 
ROOT
HETATM    1  C   UNL     1     -41.639  54.760 -53.218  1.00  0.00     0.019 A 
HETATM    2  C   UNL     1     -41.855  55.727 -52.286  1.00  0.00     0.111 A 
HETATM    3  C   UNL     1     -41.370  55.494 -50.858  1.00  0.00     0.273 A 
HETATM    4  O   UNL     1     -41.558  56.307 -49.952  1.00  0.00    -0.266 OA
HETATM    5  N   UNL     1     -40.709  54.332 -50.587  1.00  0.00    -0.321 N 
HETATM    6  C   UNL     1     -40.451  53.347 -51.535  1.00  0.00     0.046 A 
HETATM    7  C   UNL     1     -40.896  53.524 -52.848  1.00  0.00     0.006 A 
HETATM    8  C   UNL     1     -39.744  52.205 -51.152  1.00  0.00     0.032 A 
HETATM    9  C   UNL     1     -39.462  51.219 -52.096  1.00  0.00     0.026 A 
HETATM   10  C   UNL     1     -39.891  51.383 -53.411  1.00  0.00     0.035 A 
HETATM   11 CL   UNL     1     -39.535  50.171 -54.580  1.00  0.00    -0.084 Cl
HETATM   12  C   UNL     1     -40.603  52.523 -53.788  1.00  0.00     0.038 A 
HETATM   13  H   UNL     1     -40.404  54.223 -49.631  1.00  0.00     0.169 HD
ENDROOT
BRANCH   2  14
HETATM   14  N   UNL     1     -42.510  56.953 -52.553  1.00  0.00    -0.375 N 
HETATM   15  C   UNL     1     -43.869  56.940 -53.132  1.00  0.00     0.137 C 
HETATM   16  C   UNL     1     -44.638  58.211 -52.752  1.00  0.00     0.096 C 
HETATM   17  C   UNL     1     -43.830  59.455 -53.161  1.00  0.00     0.017 C 
HETATM   18  C   UNL     1     -42.383  59.397 -52.665  1.00  0.00     0.021 C 
HETATM   19  C   UNL     1     -41.706  58.083 -53.049  1.00  0.00     0.123 C 
BRANCH  16  20
HETATM   20  C   UNL     1     -45.044  58.243 -51.276  1.00  0.00     0.223 C 
HETATM   21  N   UNL     1     -45.181  59.506 -50.742  1.00  0.00    -0.358 N 
HETATM   22  H   UNL     1     -44.808  60.306 -51.237  1.00  0.00     0.162 HD
HETATM   23  O   UNL     1     -45.159  57.232 -50.587  1.00  0.00    -0.273 OA
BRANCH  21  24
HETATM   24  C   UNL     1     -45.566  59.729 -49.360  1.00  0.00     0.154 C 
BRANCH  24  25
HETATM   25  C   UNL     1     -45.389  61.187 -48.945  1.00  0.00     0.139 C 
HETATM   26  O   UNL     1     -46.673  61.849 -48.903  1.00  0.00    -0.384 OA
HETATM   27  C   UNL     1     -46.705  62.701 -47.747  1.00  0.00     0.168 C 
HETATM   28  C   UNL     1     -45.320  62.682 -47.137  1.00  0.00     0.029 C 
HETATM   29  C   UNL     1     -44.808  61.326 -47.547  1.00  0.00     0.035 C 
ENDBRANCH  24  25
ENDBRANCH  21  24
ENDBRANCH  16  20
ENDBRANCH   2  14
BRANCH   1  30
HETATM   30  C   UNL     1     -42.123  55.008 -54.600  1.00  0.00    -0.023 A 
HETATM   31  C   UNL     1     -41.543  56.012 -55.384  1.00  0.00     0.012 A 
HETATM   32  C   UNL     1     -41.981  56.229 -56.691  1.00  0.00     0.001 A 
HETATM   33  C   UNL     1     -42.999  55.441 -57.225  1.00  0.00     0.000 A 
HETATM   34  C   UNL     1     -43.578  54.433 -56.455  1.00  0.00     0.001 A 
HETATM   35  C   UNL     1     -43.140  54.213 -55.148  1.00  0.00     0.012 A 
ENDBRANCH   1  30
TORSDOF 5
ENDMDL
MODEL 5
REMARK VINA RESULT:      -7.4      2.803      5.566
REMARK  5 active torsions:
REMARK  status: ('A' for Active; 'I' for Inactive)
REMARK    1  A    between atoms: C_4  and  C_5 
REMARK    2  A    between atoms: C_6  and  N_7 
REMARK    3  A    between atoms: C_9  and  C_10 
REMARK       I    between atoms: C_10  and  N_11 
REMARK    4  A    between atoms: N_11  and  C_12 
REMARK    5  A    between atoms: C_12  and  C_13 
ROOT
HETATM    1  C   UNL     1     -41.760  56.456 -53.886  1.00  0.00     0.019 A 
HETATM    2  C   UNL     1     -42.498  56.952 -54.915  1.00  0.00     0.111 A 
HETATM    3  C   UNL     1     -42.910  56.014 -56.045  1.00  0.00     0.273 A 
HETATM    4  O   UNL     1     -43.550  56.396 -57.026  1.00  0.00    -0.266 OA
HETATM    5  N   UNL     1     -42.542  54.703 -55.956  1.00  0.00    -0.321 N 
HETATM    6  C   UNL     1     -41.815  54.172 -54.896  1.00  0.00     0.046 A 
HETATM    7  C   UNL     1     -41.410  55.009 -53.852  1.00  0.00     0.006 A 
HETATM    8  C   UNL     1     -41.513  52.808 -54.895  1.00  0.00     0.032 A 
HETATM    9  C   UNL     1     -40.802  52.258 -53.830  1.00  0.00     0.026 A 
HETATM   10  C   UNL     1     -40.398  53.078 -52.778  1.00  0.00     0.035 A 
HETATM   11 CL   UNL     1     -39.528  52.399 -51.457  1.00  0.00    -0.084 Cl
HETATM   12  C   UNL     1     -40.696  54.441 -52.785  1.00  0.00     0.038 A 
HETATM   13  H   UNL     1     -42.839  54.119 -56.724  1.00  0.00     0.169 HD
ENDROOT
BRANCH   2  14
HETATM   14  N   UNL     1     -42.918  58.302 -55.011  1.00  0.00    -0.375 N 
HETATM   15  C   UNL     1     -44.347  58.631 -54.844  1.00  0.00     0.137 C 
HETATM   16  C   UNL     1     -44.522  60.067 -54.334  1.00  0.00     0.096 C 
HETATM   17  C   UNL     1     -43.791  61.048 -55.268  1.00  0.00     0.017 C 
HETATM   18  C   UNL     1     -42.345  60.624 -55.537  1.00  0.00     0.021 C 
HETATM   19  C   UNL     1     -42.258  59.171 -55.999  1.00  0.00     0.123 C 
BRANCH  16  20
HETATM   20  C   UNL     1     -44.101  60.236 -52.872  1.00  0.00     0.223 C 
HETATM   21  N   UNL     1     -45.036  59.817 -51.951  1.00  0.00    -0.358 N 
HETATM   22  H   UNL     1     -45.990  59.645 -52.243  1.00  0.00     0.162 HD
HETATM   23  O   UNL     1     -43.053  60.778 -52.531  1.00  0.00    -0.273 OA
BRANCH  21  24
HETATM   24  C   UNL     1     -44.807  59.895 -50.519  1.00  0.00     0.154 C 
BRANCH  24  25
HETATM   25  C   UNL     1     -45.373  61.179 -49.918  1.00  0.00     0.139 C 
HETATM   26  O   UNL     1     -46.122  60.875 -48.720  1.00  0.00    -0.384 OA
HETATM   27  C   UNL     1     -45.831  61.881 -47.737  1.00  0.00     0.168 C 
HETATM   28  C   UNL     1     -44.985  62.938 -48.415  1.00  0.00     0.029 C 
HETATM   29  C   UNL     1     -44.284  62.148 -49.489  1.00  0.00     0.035 C 
ENDBRANCH  24  25
ENDBRANCH  21  24
ENDBRANCH  16  20
ENDBRANCH   2  14
BRANCH   1  30
HETATM   30  C   UNL     1     -41.368  57.389 -52.798  1.00  0.00    -0.023 A 
HETATM   31  C   UNL     1     -42.033  57.359 -51.566  1.00  0.00     0.012 A 
HETATM   32  C   UNL     1     -41.650  58.219 -50.537  1.00  0.00     0.001 A 
HETATM   33  C   UNL     1     -40.597  59.112 -50.729  1.00  0.00     0.000 A 
HETATM   34  C   UNL     1     -39.923  59.144 -51.950  1.00  0.00     0.001 A 
HETATM   35  C   UNL     1     -40.304  58.284 -52.981  1.00  0.00     0.012 A 
ENDBRANCH   1  30
TORSDOF 5
ENDMDL
MODEL 6
REMARK VINA RESULT:      -7.3      2.677      4.859
REMARK  5 active torsions:
REMARK  status: ('A' for Active; 'I' for Inactive)
REMARK    1  A    between atoms: C_4  and  C_5 
REMARK    2  A    between atoms: C_6  and  N_7 
REMARK    3  A    between atoms: C_9  and  C_10 
REMARK       I    between atoms: C_10  and  N_11 
REMARK    4  A    between atoms: N_11  and  C_12 
REMARK    5  A    between atoms: C_12  and  C_13 
ROOT
HETATM    1  C   UNL     1     -42.097  56.305 -53.308  1.00  0.00     0.019 A 
HETATM    2  C   UNL     1     -42.546  56.265 -54.592  1.00  0.00     0.111 A 
HETATM    3  C   UNL     1     -42.289  55.011 -55.423  1.00  0.00     0.273 A 
HETATM    4  O   UNL     1     -42.636  54.912 -56.601  1.00  0.00    -0.266 OA
HETATM    5  N   UNL     1     -41.643  53.968 -54.826  1.00  0.00    -0.321 N 
HETATM    6  C   UNL     1     -41.205  53.980 -53.506  1.00  0.00     0.046 A 
HETATM    7  C   UNL     1     -41.412  55.120 -52.723  1.00  0.00     0.006 A 
HETATM    8  C   UNL     1     -40.574  52.845 -52.989  1.00  0.00     0.032 A 
HETATM    9  C   UNL     1     -40.148  52.836 -51.662  1.00  0.00     0.026 A 
HETATM   10  C   UNL     1     -40.354  53.961 -50.867  1.00  0.00     0.035 A 
HETATM   11 CL   UNL     1     -39.837  53.948 -49.225  1.00  0.00    -0.084 Cl
HETATM   12  C   UNL     1     -40.979  55.095 -51.388  1.00  0.00     0.038 A 
HETATM   13  H   UNL     1     -41.498  53.159 -55.412  1.00  0.00     0.169 HD
ENDROOT
BRANCH   2  14
HETATM   14  N   UNL     1     -43.247  57.323 -55.220  1.00  0.00    -0.375 N 
HETATM   15  C   UNL     1     -42.594  58.640 -55.366  1.00  0.00     0.137 C 
HETATM   16  C   UNL     1     -43.164  59.403 -56.568  1.00  0.00     0.096 C 
HETATM   17  C   UNL     1     -44.694  59.508 -56.445  1.00  0.00     0.017 C 
HETATM   18  C   UNL     1     -45.349  58.153 -56.164  1.00  0.00     0.021 C 
HETATM   19  C   UNL     1     -44.694  57.444 -54.981  1.00  0.00     0.123 C 
BRANCH  16  20
HETATM   20  C   UNL     1     -42.730  58.809 -57.911  1.00  0.00     0.223 C 
HETATM   21  N   UNL     1     -43.538  59.139 -58.976  1.00  0.00    -0.358 N 
HETATM   22  H   UNL     1     -44.454  59.536 -58.810  1.00  0.00     0.162 HD
HETATM   23  O   UNL     1     -41.787  58.029 -58.029  1.00  0.00    -0.273 OA
BRANCH  21  24
HETATM   24  C   UNL     1     -43.276  58.671 -60.326  1.00  0.00     0.154 C 
BRANCH  24  25
HETATM   25  C   UNL     1     -44.083  57.420 -60.664  1.00  0.00     0.139 C 
HETATM   26  O   UNL     1     -43.293  56.237 -60.408  1.00  0.00    -0.384 OA
HETATM   27  C   UNL     1     -44.142  55.248 -59.804  1.00  0.00     0.168 C 
HETATM   28  C   UNL     1     -45.554  55.791 -59.834  1.00  0.00     0.029 C 
HETATM   29  C   UNL     1     -45.326  57.280 -59.802  1.00  0.00     0.035 C 
ENDBRANCH  24  25
ENDBRANCH  21  24
ENDBRANCH  16  20
ENDBRANCH   2  14
BRANCH   1  30
HETATM   30  C   UNL     1     -42.356  57.537 -52.520  1.00  0.00    -0.023 A 
HETATM   31  C   UNL     1     -43.590  57.725 -51.886  1.00  0.00     0.012 A 
HETATM   32  C   UNL     1     -43.825  58.871 -51.126  1.00  0.00     0.001 A 
HETATM   33  C   UNL     1     -42.828  59.835 -50.990  1.00  0.00     0.000 A 
HETATM   34  C   UNL     1     -41.593  59.654 -51.612  1.00  0.00     0.001 A 
HETATM   35  C   UNL     1     -41.354  58.507 -52.372  1.00  0.00     0.012 A 
ENDBRANCH   1  30
TORSDOF 5
ENDMDL
MODEL 7
REMARK VINA RESULT:      -7.2      2.020      3.254
REMARK  5 active torsions:
REMARK  status: ('A' for Active; 'I' for Inactive)
REMARK    1  A    between atoms: C_4  and  C_5 
REMARK    2  A    between atoms: C_6  and  N_7 
REMARK    3  A    between atoms: C_9  and  C_10 
REMARK       I    between atoms: C_10  and  N_11 
REMARK    4  A    between atoms: N_11  and  C_12 
REMARK    5  A    between atoms: C_12  and  C_13 
ROOT
HETATM    1  C   UNL     1     -42.143  56.193 -52.683  1.00  0.00     0.019 A 
HETATM    2  C   UNL     1     -42.585  57.424 -52.311  1.00  0.00     0.111 A 
HETATM    3  C   UNL     1     -42.270  57.926 -50.904  1.00  0.00     0.273 A 
HETATM    4  O   UNL     1     -42.664  59.015 -50.484  1.00  0.00    -0.266 OA
HETATM    5  N   UNL     1     -41.528  57.122 -50.089  1.00  0.00    -0.321 N 
HETATM    6  C   UNL     1     -41.041  55.875 -50.464  1.00  0.00     0.046 A 
HETATM    7  C   UNL     1     -41.326  55.381 -51.741  1.00  0.00     0.006 A 
HETATM    8  C   UNL     1     -40.270  55.146 -49.555  1.00  0.00     0.032 A 
HETATM    9  C   UNL     1     -39.760  53.902 -49.924  1.00  0.00     0.026 A 
HETATM   10  C   UNL     1     -40.027  53.399 -51.195  1.00  0.00     0.035 A 
HETATM   11 CL   UNL     1     -39.389  51.868 -51.656  1.00  0.00    -0.084 Cl
HETATM   12  C   UNL     1     -40.803  54.127 -52.098  1.00  0.00     0.038 A 
HETATM   13  H   UNL     1     -41.341  57.496 -49.170  1.00  0.00     0.169 HD
ENDROOT
BRANCH   2  14
HETATM   14  N   UNL     1     -43.329  58.287 -53.152  1.00  0.00    -0.375 N 
HETATM   15  C   UNL     1     -43.121  59.746 -53.063  1.00  0.00     0.137 C 
HETATM   16  C   UNL     1     -43.461  60.430 -54.393  1.00  0.00     0.096 C 
HETATM   17  C   UNL     1     -44.891  60.059 -54.823  1.00  0.00     0.017 C 
HETATM   18  C   UNL     1     -45.135  58.548 -54.787  1.00  0.00     0.021 C 
HETATM   19  C   UNL     1     -44.730  57.942 -53.445  1.00  0.00     0.123 C 
BRANCH  16  20
HETATM   20  C   UNL     1     -42.432  60.143 -55.490  1.00  0.00     0.223 C 
HETATM   21  N   UNL     1     -42.894  60.324 -56.776  1.00  0.00    -0.358 N 
HETATM   22  H   UNL     1     -43.888  60.404 -56.948  1.00  0.00     0.162 HD
HETATM   23  O   UNL     1     -41.308  59.704 -55.261  1.00  0.00    -0.273 OA
BRANCH  21  24
HETATM   24  C   UNL     1     -42.056  60.105 -57.941  1.00  0.00     0.154 C 
BRANCH  24  25
HETATM   25  C   UNL     1     -42.249  58.710 -58.530  1.00  0.00     0.139 C 
HETATM   26  O   UNL     1     -43.583  58.233 -58.247  1.00  0.00    -0.384 OA
HETATM   27  C   UNL     1     -44.083  57.565 -59.416  1.00  0.00     0.168 C 
HETATM   28  C   UNL     1     -42.944  57.491 -60.411  1.00  0.00     0.029 C 
HETATM   29  C   UNL     1     -42.119  58.696 -60.044  1.00  0.00     0.035 C 
ENDBRANCH  24  25
ENDBRANCH  21  24
ENDBRANCH  16  20
ENDBRANCH   2  14
BRANCH   1  30
HETATM   30  C   UNL     1     -42.465  55.725 -54.056  1.00  0.00    -0.023 A 
HETATM   31  C   UNL     1     -41.822  56.289 -55.164  1.00  0.00     0.012 A 
HETATM   32  C   UNL     1     -42.107  55.833 -56.452  1.00  0.00     0.001 A 
HETATM   33  C   UNL     1     -43.032  54.807 -56.640  1.00  0.00     0.000 A 
HETATM   34  C   UNL     1     -43.671  54.234 -55.542  1.00  0.00     0.001 A 
HETATM   35  C   UNL     1     -43.388  54.687 -54.253  1.00  0.00     0.012 A 
ENDBRANCH   1  30
TORSDOF 5
ENDMDL
MODEL 8
REMARK VINA RESULT:      -7.1      2.841      6.876
REMARK  5 active torsions:
REMARK  status: ('A' for Active; 'I' for Inactive)
REMARK    1  A    between atoms: C_4  and  C_5 
REMARK    2  A    between atoms: C_6  and  N_7 
REMARK    3  A    between atoms: C_9  and  C_10 
REMARK       I    between atoms: C_10  and  N_11 
REMARK    4  A    between atoms: N_11  and  C_12 
REMARK    5  A    between atoms: C_12  and  C_13 
ROOT
HETATM    1  C   UNL     1     -43.332  57.976 -55.587  1.00  0.00     0.019 A 
HETATM    2  C   UNL     1     -42.343  57.359 -54.885  1.00  0.00     0.111 A 
HETATM    3  C   UNL     1     -41.686  56.116 -55.477  1.00  0.00     0.273 A 
HETATM    4  O   UNL     1     -40.807  55.485 -54.888  1.00  0.00    -0.266 OA
HETATM    5  N   UNL     1     -42.102  55.695 -56.707  1.00  0.00    -0.321 N 
HETATM    6  C   UNL     1     -43.090  56.331 -57.451  1.00  0.00     0.046 A 
HETATM    7  C   UNL     1     -43.721  57.464 -56.929  1.00  0.00     0.006 A 
HETATM    8  C   UNL     1     -43.422  55.827 -58.711  1.00  0.00     0.032 A 
HETATM    9  C   UNL     1     -44.396  56.466 -59.476  1.00  0.00     0.026 A 
HETATM   10  C   UNL     1     -45.029  57.600 -58.974  1.00  0.00     0.035 A 
HETATM   11 CL   UNL     1     -46.225  58.396 -59.922  1.00  0.00    -0.084 Cl
HETATM   12  C   UNL     1     -44.699  58.098 -57.713  1.00  0.00     0.038 A 
HETATM   13  H   UNL     1     -41.638  54.871 -57.060  1.00  0.00     0.169 HD
ENDROOT
BRANCH   2  14
HETATM   14  N   UNL     1     -41.874  57.799 -53.624  1.00  0.00    -0.375 N 
HETATM   15  C   UNL     1     -42.808  57.855 -52.481  1.00  0.00     0.137 C 
HETATM   16  C   UNL     1     -42.057  57.702 -51.152  1.00  0.00     0.096 C 
HETATM   17  C   UNL     1     -40.939  58.755 -51.058  1.00  0.00     0.017 C 
HETATM   18  C   UNL     1     -40.054  58.776 -52.307  1.00  0.00     0.021 C 
HETATM   19  C   UNL     1     -40.883  58.887 -53.585  1.00  0.00     0.123 C 
BRANCH  16  20
HETATM   20  C   UNL     1     -41.536  56.281 -50.922  1.00  0.00     0.223 C 
HETATM   21  N   UNL     1     -42.293  55.288 -51.506  1.00  0.00    -0.358 N 
HETATM   22  H   UNL     1     -43.224  55.495 -51.840  1.00  0.00     0.162 HD
HETATM   23  O   UNL     1     -40.571  56.025 -50.205  1.00  0.00    -0.273 OA
BRANCH  21  24
HETATM   24  C   UNL     1     -41.947  53.882 -51.397  1.00  0.00     0.154 C 
BRANCH  24  25
HETATM   25  C   UNL     1     -40.775  53.509 -52.302  1.00  0.00     0.139 C 
HETATM   26  O   UNL     1     -39.871  52.625 -51.602  1.00  0.00    -0.384 OA
HETATM   27  C   UNL     1     -39.436  51.607 -52.516  1.00  0.00     0.168 C 
HETATM   28  C   UNL     1     -39.973  51.973 -53.883  1.00  0.00     0.029 C 
HETATM   29  C   UNL     1     -41.217  52.750 -53.542  1.00  0.00     0.035 C 
ENDBRANCH  24  25
ENDBRANCH  21  24
ENDBRANCH  16  20
ENDBRANCH   2  14
BRANCH   1  30
HETATM   30  C   UNL     1     -43.960  59.182 -54.988  1.00  0.00    -0.023 A 
HETATM   31  C   UNL     1     -43.429  60.453 -55.239  1.00  0.00     0.012 A 
HETATM   32  C   UNL     1     -44.032  61.589 -54.697  1.00  0.00     0.001 A 
HETATM   33  C   UNL     1     -45.172  61.463 -53.905  1.00  0.00     0.000 A 
HETATM   34  C   UNL     1     -45.713  60.202 -53.656  1.00  0.00     0.001 A 
HETATM   35  C   UNL     1     -45.112  59.064 -54.198  1.00  0.00     0.012 A 
ENDBRANCH   1  30
TORSDOF 5
ENDMDL
MODEL 9
REMARK VINA RESULT:      -7.0      3.123      6.110
REMARK  5 active torsions:
REMARK  status: ('A' for Active; 'I' for Inactive)
REMARK    1  A    between atoms: C_4  and  C_5 
REMARK    2  A    between atoms: C_6  and  N_7 
REMARK    3  A    between atoms: C_9  and  C_10 
REMARK       I    between atoms: C_10  and  N_11 
REMARK    4  A    between atoms: N_11  and  C_12 
REMARK    5  A    between atoms: C_12  and  C_13 
ROOT
HETATM    1  C   UNL     1     -42.227  57.247 -53.639  1.00  0.00     0.019 A 
HETATM    2  C   UNL     1     -43.137  57.929 -54.386  1.00  0.00     0.111 A 
HETATM    3  C   UNL     1     -43.915  57.179 -55.464  1.00  0.00     0.273 A 
HETATM    4  O   UNL     1     -44.730  57.734 -56.202  1.00  0.00    -0.266 OA
HETATM    5  N   UNL     1     -43.683  55.842 -55.608  1.00  0.00    -0.321 N 
HETATM    6  C   UNL     1     -42.780  55.124 -54.832  1.00  0.00     0.046 A 
HETATM    7  C   UNL     1     -42.041  55.785 -53.847  1.00  0.00     0.006 A 
HETATM    8  C   UNL     1     -42.639  53.751 -55.051  1.00  0.00     0.032 A 
HETATM    9  C   UNL     1     -41.752  53.014 -54.268  1.00  0.00     0.026 A 
HETATM   10  C   UNL     1     -41.013  53.657 -53.277  1.00  0.00     0.035 A 
HETATM   11 CL   UNL     1     -39.925  52.747 -52.302  1.00  0.00    -0.084 Cl
HETATM   12  C   UNL     1     -41.153  55.029 -53.065  1.00  0.00     0.038 A 
HETATM   13  H   UNL     1     -44.222  55.387 -56.330  1.00  0.00     0.169 HD
ENDROOT
BRANCH   2  14
HETATM   14  N   UNL     1     -43.416  59.308 -54.230  1.00  0.00    -0.375 N 
HETATM   15  C   UNL     1     -44.761  59.732 -53.794  1.00  0.00     0.137 C 
HETATM   16  C   UNL     1     -44.702  61.085 -53.074  1.00  0.00     0.096 C 
HETATM   17  C   UNL     1     -44.013  62.127 -53.971  1.00  0.00     0.017 C 
HETATM   18  C   UNL     1     -42.676  61.625 -54.523  1.00  0.00     0.021 C 
HETATM   19  C   UNL     1     -42.817  60.256 -55.185  1.00  0.00     0.123 C 
BRANCH  16  20
HETATM   20  C   UNL     1     -44.056  60.994 -51.688  1.00  0.00     0.223 C 
HETATM   21  N   UNL     1     -44.919  60.646 -50.672  1.00  0.00    -0.358 N 
HETATM   22  H   UNL     1     -45.918  60.689 -50.822  1.00  0.00     0.162 HD
HETATM   23  O   UNL     1     -42.883  61.289 -51.471  1.00  0.00    -0.273 OA
BRANCH  21  24
HETATM   24  C   UNL     1     -44.481  60.506 -49.294  1.00  0.00     0.154 C 
BRANCH  24  25
HETATM   25  C   UNL     1     -45.533  61.003 -48.306  1.00  0.00     0.139 C 
HETATM   26  O   UNL     1     -46.159  59.881 -47.644  1.00  0.00    -0.384 OA
HETATM   27  C   UNL     1     -46.332  60.213 -46.258  1.00  0.00     0.168 C 
HETATM   28  C   UNL     1     -45.937  61.665 -46.092  1.00  0.00     0.029 C 
HETATM   29  C   UNL     1     -44.933  61.853 -47.198  1.00  0.00     0.035 C 
ENDBRANCH  24  25
ENDBRANCH  21  24
ENDBRANCH  16  20
ENDBRANCH   2  14
BRANCH   1  30
HETATM   30  C   UNL     1     -41.479  57.999 -52.599  1.00  0.00    -0.023 A 
HETATM   31  C   UNL     1     -40.287  58.658 -52.923  1.00  0.00     0.012 A 
HETATM   32  C   UNL     1     -39.597  59.385 -51.952  1.00  0.00     0.001 A 
HETATM   33  C   UNL     1     -40.095  59.463 -50.653  1.00  0.00     0.000 A 
HETATM   34  C   UNL     1     -41.286  58.816 -50.323  1.00  0.00     0.001 A 
HETATM   35  C   UNL     1     -41.979  58.090 -51.292  1.00  0.00     0.012 A 
ENDBRANCH   1  30
TORSDOF 5
ENDMDL
MODEL 10
REMARK VINA RESULT:      -6.8      2.948      5.020
REMARK  5 active torsions:
REMARK  status: ('A' for Active; 'I' for Inactive)
REMARK    1  A    between atoms: C_4  and  C_5 
REMARK    2  A    between atoms: C_6  and  N_7 
REMARK    3  A    between atoms: C_9  and  C_10 
REMARK       I    between atoms: C_10  and  N_11 
REMARK    4  A    between atoms: N_11  and  C_12 
REMARK    5  A    between atoms: C_12  and  C_13 
ROOT
HETATM    1  C   UNL     1     -41.642  56.241 -52.504  1.00  0.00     0.019 A 
HETATM    2  C   UNL     1     -41.992  56.122 -53.813  1.00  0.00     0.111 A 
HETATM    3  C   UNL     1     -41.828  54.768 -54.499  1.00  0.00     0.273 A 
HETATM    4  O   UNL     1     -42.092  54.590 -55.688  1.00  0.00    -0.266 OA
HETATM    5  N   UNL     1     -41.364  53.724 -53.752  1.00  0.00    -0.321 N 
HETATM    6  C   UNL     1     -41.031  53.821 -52.406  1.00  0.00     0.046 A 
HETATM    7  C   UNL     1     -41.156  55.051 -51.753  1.00  0.00     0.006 A 
HETATM    8  C   UNL     1     -40.588  52.680 -51.733  1.00  0.00     0.032 A 
HETATM    9  C   UNL     1     -40.269  52.757 -50.378  1.00  0.00     0.026 A 
HETATM   10  C   UNL     1     -40.395  53.974 -49.711  1.00  0.00     0.035 A 
HETATM   11 CL   UNL     1     -40.012  54.069 -48.036  1.00  0.00    -0.084 Cl
HETATM   12  C   UNL     1     -40.833  55.113 -50.388  1.00  0.00     0.038 A 
HETATM   13  H   UNL     1     -41.275  52.848 -54.246  1.00  0.00     0.169 HD
ENDROOT
BRANCH   2  14
HETATM   14  N   UNL     1     -42.505  57.184 -54.596  1.00  0.00    -0.375 N 
HETATM   15  C   UNL     1     -43.724  56.969 -55.401  1.00  0.00     0.137 C 
HETATM   16  C   UNL     1     -44.472  58.289 -55.625  1.00  0.00     0.096 C 
HETATM   17  C   UNL     1     -43.525  59.330 -56.247  1.00  0.00     0.017 C 
HETATM   18  C   UNL     1     -42.208  59.451 -55.476  1.00  0.00     0.021 C 
HETATM   19  C   UNL     1     -41.552  58.088 -55.260  1.00  0.00     0.123 C 
BRANCH  16  20
HETATM   20  C   UNL     1     -45.154  58.810 -54.357  1.00  0.00     0.223 C 
HETATM   21  N   UNL     1     -45.416  60.163 -54.356  1.00  0.00    -0.358 N 
HETATM   22  H   UNL     1     -44.971  60.762 -55.039  1.00  0.00     0.162 HD
HETATM   23  O   UNL     1     -45.378  58.106 -53.375  1.00  0.00    -0.273 OA
BRANCH  21  24
HETATM   24  C   UNL     1     -46.063  60.829 -53.240  1.00  0.00     0.154 C 
BRANCH  24  25
HETATM   25  C   UNL     1     -45.391  62.156 -52.898  1.00  0.00     0.139 C 
HETATM   26  O   UNL     1     -45.549  62.442 -51.490  1.00  0.00    -0.384 OA
HETATM   27  C   UNL     1     -44.313  62.983 -50.998  1.00  0.00     0.168 C 
HETATM   28  C   UNL     1     -43.404  63.185 -52.191  1.00  0.00     0.029 C 
HETATM   29  C   UNL     1     -43.892  62.129 -53.148  1.00  0.00     0.035 C 
ENDBRANCH  24  25
ENDBRANCH  21  24
ENDBRANCH  16  20
ENDBRANCH   2  14
BRANCH   1  30
HETATM   30  C   UNL     1     -41.806  57.569 -51.859  1.00  0.00    -0.023 A 
HETATM   31  C   UNL     1     -43.069  57.995 -51.429  1.00  0.00     0.012 A 
HETATM   32  C   UNL     1     -43.220  59.232 -50.802  1.00  0.00     0.001 A 
HETATM   33  C   UNL     1     -42.111  60.050 -50.596  1.00  0.00     0.000 A 
HETATM   34  C   UNL     1     -40.848  59.632 -51.014  1.00  0.00     0.001 A 
HETATM   35  C   UNL     1     -40.694  58.394 -51.641  1.00  0.00     0.012 A 
ENDBRANCH   1  30
TORSDOF 5
ENDMDL
