MODEL 1
REMARK VINA RESULT:      -8.9      0.000      0.000
REMARK  10 active torsions:
REMARK  status: ('A' for Active; 'I' for Inactive)
REMARK    1  A    between atoms: N_1  and  C_2 
REMARK    2  A    between atoms: C_2  and  C_3 
REMARK    3  A    between atoms: C_6  and  C_33 
REMARK    4  A    between atoms: C_8  and  C_9 
REMARK    5  A    between atoms: C_13  and  C_15 
REMARK       I    between atoms: C_15  and  N_17 
REMARK    6  A    between atoms: N_17  and  C_18 
REMARK    7  A    between atoms: C_22  and  C_23 
REMARK    8  A    between atoms: C_23  and  O_25 
REMARK    9  A    between atoms: O_25  and  C_26 
REMARK       I    between atoms: C_33  and  N_35 
REMARK   10  A    between atoms: N_35  and  C_36 
ROOT
HETATM    1  C   UNL     1     -43.750  58.585 -51.814  1.00  0.00    -0.024 A 
HETATM    2  C   UNL     1     -44.691  59.120 -50.919  1.00  0.00     0.012 A 
HETATM    3  C   UNL     1     -45.756  59.917 -51.360  1.00  0.00     0.002 A 
HETATM    4  C   UNL     1     -45.936  60.160 -52.719  1.00  0.00     0.017 A 
HETATM    5  C   UNL     1     -45.038  59.610 -53.635  1.00  0.00     0.033 A 
HETATM    6  C   UNL     1     -43.948  58.851 -53.182  1.00  0.00     0.029 A 
ENDROOT
BRANCH   1   7
HETATM    7  C   UNL     1     -42.636  57.708 -51.369  1.00  0.00    -0.017 A 
HETATM    8  C   UNL     1     -41.497  58.161 -50.657  1.00  0.00    -0.020 A 
HETATM    9  C   UNL     1     -40.494  57.236 -50.289  1.00  0.00     0.011 A 
HETATM   10  C   UNL     1     -40.576  55.893 -50.651  1.00  0.00     0.017 A 
HETATM   11  C   UNL     1     -41.675  55.433 -51.370  1.00  0.00     0.033 A 
HETATM   12  C   UNL     1     -42.694  56.333 -51.711  1.00  0.00     0.030 A 
BRANCH   8  13
HETATM   13  C   UNL     1     -41.256  59.607 -50.280  1.00  0.00     0.306 C 
BRANCH  13  14
HETATM   14  N   UNL     1     -39.836  59.942 -50.315  1.00  0.00     0.082 N 
HETATM   15  H   UNL     1     -39.303  59.100 -50.525  1.00  0.00     0.313 HD
HETATM   16  H   UNL     1     -39.539  60.242 -49.388  1.00  0.00     0.313 HD
ENDBRANCH  13  14
ENDBRANCH   8  13
BRANCH  11  17
HETATM   17  C   UNL     1     -41.676  54.015 -51.839  1.00  0.00     0.256 C 
HETATM   18  O   UNL     1     -42.752  53.433 -51.930  1.00  0.00    -0.267 OA
HETATM   19  N   UNL     1     -40.440  53.477 -52.145  1.00  0.00    -0.320 N 
HETATM   20  H   UNL     1     -39.647  54.106 -52.219  1.00  0.00     0.169 HD
BRANCH  19  21
HETATM   21  C   UNL     1     -40.152  52.122 -52.433  1.00  0.00     0.076 A 
HETATM   22  C   UNL     1     -39.796  51.176 -51.475  1.00  0.00     0.052 A 
HETATM   23  C   UNL     1     -39.506  49.884 -51.895  1.00  0.00     0.118 A 
HETATM   24  N   UNL     1     -39.547  49.477 -53.184  1.00  0.00    -0.270 NA
HETATM   25  C   UNL     1     -39.893  50.414 -54.097  1.00  0.00     0.160 A 
HETATM   26  C   UNL     1     -40.195  51.724 -53.769  1.00  0.00     0.160 A 
HETATM   27  F   UNL     1     -40.522  52.602 -54.730  1.00  0.00    -0.202 F 
ENDBRANCH  19  21
ENDBRANCH  11  17
ENDBRANCH   1   7
BRANCH   5  28
HETATM   28  C   UNL     1     -45.281  59.678 -55.098  1.00  0.00     0.256 C 
HETATM   29  O   UNL     1     -45.205  60.778 -55.638  1.00  0.00    -0.267 OA
HETATM   30  N   UNL     1     -45.598  58.485 -55.717  1.00  0.00    -0.320 N 
HETATM   31  H   UNL     1     -45.888  57.708 -55.132  1.00  0.00     0.169 HD
BRANCH  30  32
HETATM   32  C   UNL     1     -45.726  58.284 -57.114  1.00  0.00     0.075 A 
HETATM   33  C   UNL     1     -46.935  58.442 -57.799  1.00  0.00     0.033 A 
HETATM   34  C   UNL     1     -47.002  58.234 -59.178  1.00  0.00     0.003 A 
HETATM   35  C   UNL     1     -45.860  57.860 -59.883  1.00  0.00     0.021 A 
HETATM   36  C   UNL     1     -44.637  57.709 -59.215  1.00  0.00     0.080 A 
HETATM   37  C   UNL     1     -44.576  57.932 -57.837  1.00  0.00     0.159 A 
HETATM   38  F   UNL     1     -43.428  57.771 -57.157  1.00  0.00    -0.203 F 
BRANCH  36  39
HETATM   39  C   UNL     1     -43.476  57.267 -60.016  1.00  0.00     0.296 C 
HETATM   40  O   UNL     1     -43.530  56.312 -60.776  1.00  0.00    -0.259 OA
BRANCH  39  41
HETATM   41  O   UNL     1     -42.407  58.077 -59.835  1.00  0.00    -0.312 OA
BRANCH  41  42
HETATM   42  C   UNL     1     -42.640  59.457 -60.124  1.00  0.00     0.132 C 
HETATM   43  C   UNL     1     -41.995  60.383 -59.098  1.00  0.00     0.032 C 
HETATM   44  C   UNL     1     -41.903  61.701 -59.847  1.00  0.00     0.002 C 
HETATM   45  C   UNL     1     -41.523  61.301 -61.269  1.00  0.00     0.002 C 
HETATM   46  C   UNL     1     -41.942  59.840 -61.429  1.00  0.00     0.032 C 
ENDBRANCH  41  42
ENDBRANCH  39  41
ENDBRANCH  36  39
ENDBRANCH  30  32
ENDBRANCH   5  28
TORSDOF 10
ENDMDL
MODEL 2
REMARK VINA RESULT:      -8.5      5.289     10.970
REMARK  10 active torsions:
REMARK  status: ('A' for Active; 'I' for Inactive)
REMARK    1  A    between atoms: N_1  and  C_2 
REMARK    2  A    between atoms: C_2  and  C_3 
REMARK    3  A    between atoms: C_6  and  C_33 
REMARK    4  A    between atoms: C_8  and  C_9 
REMARK    5  A    between atoms: C_13  and  C_15 
REMARK       I    between atoms: C_15  and  N_17 
REMARK    6  A    between atoms: N_17  and  C_18 
REMARK    7  A    between atoms: C_22  and  C_23 
REMARK    8  A    between atoms: C_23  and  O_25 
REMARK    9  A    between atoms: O_25  and  C_26 
REMARK       I    between atoms: C_33  and  N_35 
REMARK   10  A    between atoms: N_35  and  C_36 
ROOT
HETATM    1  C   UNL     1     -45.978  62.010 -51.460  1.00  0.00    -0.024 A 
HETATM    2  C   UNL     1     -44.845  62.836 -51.553  1.00  0.00     0.012 A 
HETATM    3  C   UNL     1     -43.547  62.320 -51.442  1.00  0.00     0.002 A 
HETATM    4  C   UNL     1     -43.346  60.950 -51.285  1.00  0.00     0.017 A 
HETATM    5  C   UNL     1     -44.452  60.101 -51.227  1.00  0.00     0.033 A 
HETATM    6  C   UNL     1     -45.750  60.631 -51.292  1.00  0.00     0.029 A 
ENDROOT
BRANCH   1   7
HETATM    7  C   UNL     1     -47.360  62.533 -51.611  1.00  0.00    -0.017 A 
HETATM    8  C   UNL     1     -48.032  63.311 -50.635  1.00  0.00    -0.020 A 
HETATM    9  C   UNL     1     -49.352  63.751 -50.885  1.00  0.00     0.011 A 
HETATM   10  C   UNL     1     -50.027  63.399 -52.051  1.00  0.00     0.017 A 
HETATM   11  C   UNL     1     -49.393  62.616 -53.012  1.00  0.00     0.033 A 
HETATM   12  C   UNL     1     -48.071  62.202 -52.792  1.00  0.00     0.030 A 
BRANCH   8  13
HETATM   13  C   UNL     1     -47.434  63.689 -49.296  1.00  0.00     0.306 C 
BRANCH  13  14
HETATM   14  N   UNL     1     -48.228  63.170 -48.188  1.00  0.00     0.082 N 
HETATM   15  H   UNL     1     -48.521  62.220 -48.407  1.00  0.00     0.313 HD
HETATM   16  H   UNL     1     -49.083  63.717 -48.103  1.00  0.00     0.313 HD
ENDBRANCH  13  14
ENDBRANCH   8  13
BRANCH  11  17
HETATM   17  C   UNL     1     -50.184  62.162 -54.195  1.00  0.00     0.256 C 
HETATM   18  O   UNL     1     -49.750  62.412 -55.314  1.00  0.00    -0.267 OA
HETATM   19  N   UNL     1     -51.351  61.478 -53.917  1.00  0.00    -0.320 N 
HETATM   20  H   UNL     1     -51.509  61.161 -52.966  1.00  0.00     0.169 HD
BRANCH  19  21
HETATM   21  C   UNL     1     -52.356  61.104 -54.840  1.00  0.00     0.076 A 
HETATM   22  C   UNL     1     -52.247  60.036 -55.727  1.00  0.00     0.052 A 
HETATM   23  C   UNL     1     -53.295  59.794 -56.607  1.00  0.00     0.118 A 
HETATM   24  N   UNL     1     -54.426  60.533 -56.660  1.00  0.00    -0.270 NA
HETATM   25  C   UNL     1     -54.509  61.566 -55.792  1.00  0.00     0.160 A 
HETATM   26  C   UNL     1     -53.513  61.882 -54.884  1.00  0.00     0.160 A 
HETATM   27  F   UNL     1     -53.660  62.928 -54.057  1.00  0.00    -0.202 F 
ENDBRANCH  19  21
ENDBRANCH  11  17
ENDBRANCH   1   7
BRANCH   5  28
HETATM   28  C   UNL     1     -44.299  58.624 -51.246  1.00  0.00     0.256 C 
HETATM   29  O   UNL     1     -45.169  57.953 -50.699  1.00  0.00    -0.267 OA
HETATM   30  N   UNL     1     -43.163  58.140 -51.865  1.00  0.00    -0.320 N 
HETATM   31  H   UNL     1     -42.402  58.789 -52.039  1.00  0.00     0.169 HD
BRANCH  30  32
HETATM   32  C   UNL     1     -42.881  56.777 -52.130  1.00  0.00     0.075 A 
HETATM   33  C   UNL     1     -43.477  56.066 -53.177  1.00  0.00     0.033 A 
HETATM   34  C   UNL     1     -43.159  54.724 -53.395  1.00  0.00     0.003 A 
HETATM   35  C   UNL     1     -42.245  54.080 -52.563  1.00  0.00     0.021 A 
HETATM   36  C   UNL     1     -41.629  54.780 -51.516  1.00  0.00     0.080 A 
HETATM   37  C   UNL     1     -41.944  56.127 -51.314  1.00  0.00     0.159 A 
HETATM   38  F   UNL     1     -41.395  56.825 -50.305  1.00  0.00    -0.203 F 
BRANCH  36  39
HETATM   39  C   UNL     1     -40.705  54.025 -50.645  1.00  0.00     0.296 C 
HETATM   40  O   UNL     1     -39.777  54.557 -50.056  1.00  0.00    -0.259 OA
BRANCH  39  41
HETATM   41  O   UNL     1     -41.059  52.721 -50.554  1.00  0.00    -0.312 OA
BRANCH  41  42
HETATM   42  C   UNL     1     -39.999  51.791 -50.782  1.00  0.00     0.132 C 
HETATM   43  C   UNL     1     -40.304  50.410 -50.212  1.00  0.00     0.032 C 
HETATM   44  C   UNL     1     -39.362  49.510 -50.993  1.00  0.00     0.002 C 
HETATM   45  C   UNL     1     -39.384  50.077 -52.408  1.00  0.00     0.002 C 
HETATM   46  C   UNL     1     -39.851  51.527 -52.280  1.00  0.00     0.032 C 
ENDBRANCH  41  42
ENDBRANCH  39  41
ENDBRANCH  36  39
ENDBRANCH  30  32
ENDBRANCH   5  28
TORSDOF 10
ENDMDL
MODEL 3
REMARK VINA RESULT:      -8.5      4.950     10.555
REMARK  10 active torsions:
REMARK  status: ('A' for Active; 'I' for Inactive)
REMARK    1  A    between atoms: N_1  and  C_2 
REMARK    2  A    between atoms: C_2  and  C_3 
REMARK    3  A    between atoms: C_6  and  C_33 
REMARK    4  A    between atoms: C_8  and  C_9 
REMARK    5  A    between atoms: C_13  and  C_15 
REMARK       I    between atoms: C_15  and  N_17 
REMARK    6  A    between atoms: N_17  and  C_18 
REMARK    7  A    between atoms: C_22  and  C_23 
REMARK    8  A    between atoms: C_23  and  O_25 
REMARK    9  A    between atoms: O_25  and  C_26 
REMARK       I    between atoms: C_33  and  N_35 
REMARK   10  A    between atoms: N_35  and  C_36 
ROOT
HETATM    1  C   UNL     1     -45.242  62.935 -50.087  1.00  0.00    -0.024 A 
HETATM    2  C   UNL     1     -44.219  63.807 -49.678  1.00  0.00     0.012 A 
HETATM    3  C   UNL     1     -42.868  63.512 -49.900  1.00  0.00     0.002 A 
HETATM    4  C   UNL     1     -42.504  62.356 -50.586  1.00  0.00     0.017 A 
HETATM    5  C   UNL     1     -43.501  61.489 -51.038  1.00  0.00     0.033 A 
HETATM    6  C   UNL     1     -44.850  61.769 -50.770  1.00  0.00     0.029 A 
ENDROOT
BRANCH   1   7
HETATM    7  C   UNL     1     -46.681  63.247 -49.892  1.00  0.00    -0.017 A 
HETATM    8  C   UNL     1     -47.316  63.340 -48.628  1.00  0.00    -0.020 A 
HETATM    9  C   UNL     1     -48.696  63.638 -48.563  1.00  0.00     0.011 A 
HETATM   10  C   UNL     1     -49.460  63.799 -49.717  1.00  0.00     0.017 A 
HETATM   11  C   UNL     1     -48.860  63.691 -50.968  1.00  0.00     0.033 A 
HETATM   12  C   UNL     1     -47.484  63.429 -51.046  1.00  0.00     0.030 A 
BRANCH   8  13
HETATM   13  C   UNL     1     -46.611  63.104 -47.309  1.00  0.00     0.306 C 
BRANCH  13  14
HETATM   14  N   UNL     1     -47.527  62.596 -46.294  1.00  0.00     0.082 N 
HETATM   15  H   UNL     1     -47.602  63.280 -45.544  1.00  0.00     0.313 HD
HETATM   16  H   UNL     1     -47.129  61.757 -45.873  1.00  0.00     0.313 HD
ENDBRANCH  13  14
ENDBRANCH   8  13
BRANCH  11  17
HETATM   17  C   UNL     1     -49.729  63.755 -52.182  1.00  0.00     0.256 C 
HETATM   18  O   UNL     1     -49.716  64.782 -52.852  1.00  0.00    -0.267 OA
HETATM   19  N   UNL     1     -50.477  62.625 -52.452  1.00  0.00    -0.320 N 
HETATM   20  H   UNL     1     -50.261  61.773 -51.945  1.00  0.00     0.169 HD
BRANCH  19  21
HETATM   21  C   UNL     1     -51.498  62.496 -53.422  1.00  0.00     0.076 A 
HETATM   22  C   UNL     1     -51.314  61.933 -54.683  1.00  0.00     0.052 A 
HETATM   23  C   UNL     1     -52.394  61.896 -55.557  1.00  0.00     0.118 A 
HETATM   24  N   UNL     1     -53.625  62.373 -55.263  1.00  0.00    -0.270 NA
HETATM   25  C   UNL     1     -53.779  62.918 -54.035  1.00  0.00     0.160 A 
HETATM   26  C   UNL     1     -52.759  63.000 -53.103  1.00  0.00     0.160 A 
HETATM   27  F   UNL     1     -52.982  63.561 -51.905  1.00  0.00    -0.202 F 
ENDBRANCH  19  21
ENDBRANCH  11  17
ENDBRANCH   1   7
BRANCH   5  28
HETATM   28  C   UNL     1     -43.188  60.344 -51.930  1.00  0.00     0.256 C 
HETATM   29  O   UNL     1     -42.271  60.480 -52.733  1.00  0.00    -0.267 OA
HETATM   30  N   UNL     1     -43.987  59.226 -51.785  1.00  0.00    -0.320 N 
HETATM   31  H   UNL     1     -44.865  59.331 -51.285  1.00  0.00     0.169 HD
BRANCH  30  32
HETATM   32  C   UNL     1     -43.784  57.975 -52.417  1.00  0.00     0.075 A 
HETATM   33  C   UNL     1     -44.364  57.639 -53.645  1.00  0.00     0.033 A 
HETATM   34  C   UNL     1     -44.127  56.392 -54.225  1.00  0.00     0.003 A 
HETATM   35  C   UNL     1     -43.311  55.466 -53.577  1.00  0.00     0.021 A 
HETATM   36  C   UNL     1     -42.712  55.789 -52.352  1.00  0.00     0.080 A 
HETATM   37  C   UNL     1     -42.945  57.046 -51.786  1.00  0.00     0.159 A 
HETATM   38  F   UNL     1     -42.410  57.383 -50.600  1.00  0.00    -0.203 F 
BRANCH  36  39
HETATM   39  C   UNL     1     -41.897  54.745 -51.699  1.00  0.00     0.296 C 
HETATM   40  O   UNL     1     -42.166  54.298 -50.594  1.00  0.00    -0.259 OA
BRANCH  39  41
HETATM   41  O   UNL     1     -40.883  54.332 -52.495  1.00  0.00    -0.312 OA
BRANCH  41  42
HETATM   42  C   UNL     1     -40.917  52.947 -52.846  1.00  0.00     0.132 C 
HETATM   43  C   UNL     1     -40.603  52.713 -54.320  1.00  0.00     0.032 C 
HETATM   44  C   UNL     1     -40.180  51.255 -54.345  1.00  0.00     0.002 C 
HETATM   45  C   UNL     1     -39.365  51.076 -53.069  1.00  0.00     0.002 C 
HETATM   46  C   UNL     1     -39.794  52.201 -52.126  1.00  0.00     0.032 C 
ENDBRANCH  41  42
ENDBRANCH  39  41
ENDBRANCH  36  39
ENDBRANCH  30  32
ENDBRANCH   5  28
TORSDOF 10
ENDMDL
MODEL 4
REMARK VINA RESULT:      -8.4      4.949     10.164
REMARK  10 active torsions:
REMARK  status: ('A' for Active; 'I' for Inactive)
REMARK    1  A    between atoms: N_1  and  C_2 
REMARK    2  A    between atoms: C_2  and  C_3 
REMARK    3  A    between atoms: C_6  and  C_33 
REMARK    4  A    between atoms: C_8  and  C_9 
REMARK    5  A    between atoms: C_13  and  C_15 
REMARK       I    between atoms: C_15  and  N_17 
REMARK    6  A    between atoms: N_17  and  C_18 
REMARK    7  A    between atoms: C_22  and  C_23 
REMARK    8  A    between atoms: C_23  and  O_25 
REMARK    9  A    between atoms: O_25  and  C_26 
REMARK       I    between atoms: C_33  and  N_35 
REMARK   10  A    between atoms: N_35  and  C_36 
ROOT
HETATM    1  C   UNL     1     -41.815  57.834 -51.729  1.00  0.00    -0.024 A 
HETATM    2  C   UNL     1     -40.493  57.767 -51.257  1.00  0.00     0.012 A 
HETATM    3  C   UNL     1     -39.920  58.813 -50.524  1.00  0.00     0.002 A 
HETATM    4  C   UNL     1     -40.672  59.940 -50.199  1.00  0.00     0.017 A 
HETATM    5  C   UNL     1     -41.999  60.018 -50.623  1.00  0.00     0.033 A 
HETATM    6  C   UNL     1     -42.552  58.986 -51.397  1.00  0.00     0.029 A 
ENDROOT
BRANCH   1   7
HETATM    7  C   UNL     1     -42.453  56.720 -52.477  1.00  0.00    -0.017 A 
HETATM    8  C   UNL     1     -42.896  55.510 -51.886  1.00  0.00    -0.020 A 
HETATM    9  C   UNL     1     -43.486  54.515 -52.697  1.00  0.00     0.011 A 
HETATM   10  C   UNL     1     -43.601  54.676 -54.077  1.00  0.00     0.017 A 
HETATM   11  C   UNL     1     -43.151  55.847 -54.680  1.00  0.00     0.033 A 
HETATM   12  C   UNL     1     -42.596  56.857 -53.881  1.00  0.00     0.030 A 
BRANCH   8  13
HETATM   13  C   UNL     1     -42.750  55.186 -50.414  1.00  0.00     0.306 C 
BRANCH  13  14
HETATM   14  N   UNL     1     -41.530  54.431 -50.149  1.00  0.00     0.082 N 
HETATM   15  H   UNL     1     -41.539  53.580 -50.709  1.00  0.00     0.313 HD
HETATM   16  H   UNL     1     -41.527  54.129 -49.176  1.00  0.00     0.313 HD
ENDBRANCH  13  14
ENDBRANCH   8  13
BRANCH  11  17
HETATM   17  C   UNL     1     -43.185  55.939 -56.170  1.00  0.00     0.256 C 
HETATM   18  O   UNL     1     -42.962  54.923 -56.820  1.00  0.00    -0.267 OA
HETATM   19  N   UNL     1     -43.480  57.182 -56.694  1.00  0.00    -0.320 N 
HETATM   20  H   UNL     1     -43.836  57.896 -56.067  1.00  0.00     0.169 HD
BRANCH  19  21
HETATM   21  C   UNL     1     -43.399  57.572 -58.052  1.00  0.00     0.076 A 
HETATM   22  C   UNL     1     -42.204  57.797 -58.731  1.00  0.00     0.052 A 
HETATM   23  C   UNL     1     -42.262  58.209 -60.057  1.00  0.00     0.118 A 
HETATM   24  N   UNL     1     -43.412  58.407 -60.740  1.00  0.00    -0.270 NA
HETATM   25  C   UNL     1     -44.559  58.185 -60.059  1.00  0.00     0.160 A 
HETATM   26  C   UNL     1     -44.596  57.777 -58.738  1.00  0.00     0.160 A 
HETATM   27  F   UNL     1     -45.772  57.583 -58.122  1.00  0.00    -0.202 F 
ENDBRANCH  19  21
ENDBRANCH  11  17
ENDBRANCH   1   7
BRANCH   5  28
HETATM   28  C   UNL     1     -42.902  61.100 -50.155  1.00  0.00     0.256 C 
HETATM   29  O   UNL     1     -42.519  62.259 -50.288  1.00  0.00    -0.267 OA
HETATM   30  N   UNL     1     -44.092  60.694 -49.584  1.00  0.00    -0.320 N 
HETATM   31  H   UNL     1     -44.173  59.725 -49.292  1.00  0.00     0.169 HD
BRANCH  30  32
HETATM   32  C   UNL     1     -45.160  61.542 -49.203  1.00  0.00     0.075 A 
HETATM   33  C   UNL     1     -46.104  62.034 -50.111  1.00  0.00     0.033 A 
HETATM   34  C   UNL     1     -47.140  62.864 -49.679  1.00  0.00     0.003 A 
HETATM   35  C   UNL     1     -47.237  63.215 -48.335  1.00  0.00     0.021 A 
HETATM   36  C   UNL     1     -46.308  62.723 -47.408  1.00  0.00     0.080 A 
HETATM   37  C   UNL     1     -45.282  61.882 -47.847  1.00  0.00     0.159 A 
HETATM   38  F   UNL     1     -44.356  61.412 -46.994  1.00  0.00    -0.203 F 
BRANCH  36  39
HETATM   39  C   UNL     1     -46.443  63.172 -46.007  1.00  0.00     0.296 C 
HETATM   40  O   UNL     1     -47.472  63.020 -45.367  1.00  0.00    -0.259 OA
BRANCH  39  41
HETATM   41  O   UNL     1     -45.289  63.703 -45.539  1.00  0.00    -0.312 OA
BRANCH  41  42
HETATM   42  C   UNL     1     -45.071  63.531 -44.137  1.00  0.00     0.132 C 
HETATM   43  C   UNL     1     -44.065  62.425 -43.837  1.00  0.00     0.032 C 
HETATM   44  C   UNL     1     -43.604  62.764 -42.431  1.00  0.00     0.002 C 
HETATM   45  C   UNL     1     -43.508  64.286 -42.421  1.00  0.00     0.002 C 
HETATM   46  C   UNL     1     -44.404  64.778 -43.557  1.00  0.00     0.032 C 
ENDBRANCH  41  42
ENDBRANCH  39  41
ENDBRANCH  36  39
ENDBRANCH  30  32
ENDBRANCH   5  28
TORSDOF 10
ENDMDL
MODEL 5
REMARK VINA RESULT:      -8.3      3.869     11.349
REMARK  10 active torsions:
REMARK  status: ('A' for Active; 'I' for Inactive)
REMARK    1  A    between atoms: N_1  and  C_2 
REMARK    2  A    between atoms: C_2  and  C_3 
REMARK    3  A    between atoms: C_6  and  C_33 
REMARK    4  A    between atoms: C_8  and  C_9 
REMARK    5  A    between atoms: C_13  and  C_15 
REMARK       I    between atoms: C_15  and  N_17 
REMARK    6  A    between atoms: N_17  and  C_18 
REMARK    7  A    between atoms: C_22  and  C_23 
REMARK    8  A    between atoms: C_23  and  O_25 
REMARK    9  A    between atoms: O_25  and  C_26 
REMARK       I    between atoms: C_33  and  N_35 
REMARK   10  A    between atoms: N_35  and  C_36 
ROOT
HETATM    1  C   UNL     1     -44.121  58.222 -58.876  1.00  0.00    -0.024 A 
HETATM    2  C   UNL     1     -42.964  58.717 -59.501  1.00  0.00     0.012 A 
HETATM    3  C   UNL     1     -41.872  59.187 -58.761  1.00  0.00     0.002 A 
HETATM    4  C   UNL     1     -41.888  59.129 -57.369  1.00  0.00     0.017 A 
HETATM    5  C   UNL     1     -43.009  58.607 -56.722  1.00  0.00     0.033 A 
HETATM    6  C   UNL     1     -44.118  58.182 -57.469  1.00  0.00     0.029 A 
ENDROOT
BRANCH   1   7
HETATM    7  C   UNL     1     -45.275  57.686 -59.644  1.00  0.00    -0.017 A 
HETATM    8  C   UNL     1     -45.448  56.319 -59.976  1.00  0.00    -0.020 A 
HETATM    9  C   UNL     1     -46.585  55.922 -60.716  1.00  0.00     0.011 A 
HETATM   10  C   UNL     1     -47.520  56.852 -61.167  1.00  0.00     0.017 A 
HETATM   11  C   UNL     1     -47.356  58.202 -60.870  1.00  0.00     0.033 A 
HETATM   12  C   UNL     1     -46.250  58.605 -60.107  1.00  0.00     0.030 A 
BRANCH   8  13
HETATM   13  C   UNL     1     -44.461  55.229 -59.614  1.00  0.00     0.306 C 
BRANCH  13  14
HETATM   14  N   UNL     1     -45.094  53.914 -59.602  1.00  0.00     0.082 N 
HETATM   15  H   UNL     1     -45.644  53.804 -60.451  1.00  0.00     0.313 HD
HETATM   16  H   UNL     1     -45.756  53.868 -58.829  1.00  0.00     0.313 HD
ENDBRANCH  13  14
ENDBRANCH   8  13
BRANCH  11  17
HETATM   17  C   UNL     1     -48.312  59.183 -61.465  1.00  0.00     0.256 C 
HETATM   18  O   UNL     1     -47.888  60.289 -61.783  1.00  0.00    -0.267 OA
HETATM   19  N   UNL     1     -49.613  58.744 -61.618  1.00  0.00    -0.320 N 
HETATM   20  H   UNL     1     -49.804  57.754 -61.503  1.00  0.00     0.169 HD
BRANCH  19  21
HETATM   21  C   UNL     1     -50.735  59.526 -61.983  1.00  0.00     0.076 A 
HETATM   22  C   UNL     1     -51.342  60.462 -61.149  1.00  0.00     0.052 A 
HETATM   23  C   UNL     1     -52.460  61.141 -61.618  1.00  0.00     0.118 A 
HETATM   24  N   UNL     1     -53.003  60.955 -62.842  1.00  0.00    -0.270 NA
HETATM   25  C   UNL     1     -52.399  60.040 -63.633  1.00  0.00     0.160 A 
HETATM   26  C   UNL     1     -51.284  59.315 -63.247  1.00  0.00     0.160 A 
HETATM   27  F   UNL     1     -50.741  58.416 -64.082  1.00  0.00    -0.202 F 
ENDBRANCH  19  21
ENDBRANCH  11  17
ENDBRANCH   1   7
BRANCH   5  28
HETATM   28  C   UNL     1     -43.012  58.349 -55.259  1.00  0.00     0.256 C 
HETATM   29  O   UNL     1     -44.097  58.324 -54.686  1.00  0.00    -0.267 OA
HETATM   30  N   UNL     1     -41.773  58.184 -54.670  1.00  0.00    -0.320 N 
HETATM   31  H   UNL     1     -40.956  58.488 -55.190  1.00  0.00     0.169 HD
BRANCH  30  32
HETATM   32  C   UNL     1     -41.539  57.787 -53.331  1.00  0.00     0.075 A 
HETATM   33  C   UNL     1     -41.311  58.699 -52.295  1.00  0.00     0.033 A 
HETATM   34  C   UNL     1     -41.089  58.251 -50.991  1.00  0.00     0.003 A 
HETATM   35  C   UNL     1     -41.087  56.886 -50.714  1.00  0.00     0.021 A 
HETATM   36  C   UNL     1     -41.326  55.958 -51.737  1.00  0.00     0.080 A 
HETATM   37  C   UNL     1     -41.561  56.416 -53.037  1.00  0.00     0.159 A 
HETATM   38  F   UNL     1     -41.767  55.557 -54.049  1.00  0.00    -0.203 F 
BRANCH  36  39
HETATM   39  C   UNL     1     -41.265  54.525 -51.382  1.00  0.00     0.296 C 
HETATM   40  O   UNL     1     -42.083  53.998 -50.643  1.00  0.00    -0.259 OA
BRANCH  39  41
HETATM   41  O   UNL     1     -40.247  53.896 -52.015  1.00  0.00    -0.312 OA
BRANCH  41  42
HETATM   42  C   UNL     1     -40.581  52.627 -52.582  1.00  0.00     0.132 C 
HETATM   43  C   UNL     1     -40.318  52.573 -54.083  1.00  0.00     0.032 C 
HETATM   44  C   UNL     1     -40.223  51.081 -54.352  1.00  0.00     0.002 C 
HETATM   45  C   UNL     1     -39.475  50.525 -53.145  1.00  0.00     0.002 C 
HETATM   46  C   UNL     1     -39.653  51.548 -52.023  1.00  0.00     0.032 C 
ENDBRANCH  41  42
ENDBRANCH  39  41
ENDBRANCH  36  39
ENDBRANCH  30  32
ENDBRANCH   5  28
TORSDOF 10
ENDMDL
MODEL 6
REMARK VINA RESULT:      -8.2      4.075     11.056
REMARK  10 active torsions:
REMARK  status: ('A' for Active; 'I' for Inactive)
REMARK    1  A    between atoms: N_1  and  C_2 
REMARK    2  A    between atoms: C_2  and  C_3 
REMARK    3  A    between atoms: C_6  and  C_33 
REMARK    4  A    between atoms: C_8  and  C_9 
REMARK    5  A    between atoms: C_13  and  C_15 
REMARK       I    between atoms: C_15  and  N_17 
REMARK    6  A    between atoms: N_17  and  C_18 
REMARK    7  A    between atoms: C_22  and  C_23 
REMARK    8  A    between atoms: C_23  and  O_25 
REMARK    9  A    between atoms: O_25  and  C_26 
REMARK       I    between atoms: C_33  and  N_35 
REMARK   10  A    between atoms: N_35  and  C_36 
ROOT
HETATM    1  C   UNL     1     -46.660  58.372 -59.411  1.00  0.00    -0.024 A 
HETATM    2  C   UNL     1     -47.016  57.297 -60.242  1.00  0.00     0.012 A 
HETATM    3  C   UNL     1     -46.229  56.140 -60.327  1.00  0.00     0.002 A 
HETATM    4  C   UNL     1     -45.087  56.007 -59.541  1.00  0.00     0.017 A 
HETATM    5  C   UNL     1     -44.730  57.044 -58.677  1.00  0.00     0.033 A 
HETATM    6  C   UNL     1     -45.497  58.218 -58.632  1.00  0.00     0.029 A 
ENDROOT
BRANCH   1   7
HETATM    7  C   UNL     1     -47.499  59.591 -59.280  1.00  0.00    -0.017 A 
HETATM    8  C   UNL     1     -47.333  60.764 -60.058  1.00  0.00    -0.020 A 
HETATM    9  C   UNL     1     -48.189  61.867 -59.843  1.00  0.00     0.011 A 
HETATM   10  C   UNL     1     -49.166  61.847 -58.850  1.00  0.00     0.017 A 
HETATM   11  C   UNL     1     -49.331  60.713 -58.060  1.00  0.00     0.033 A 
HETATM   12  C   UNL     1     -48.511  59.598 -58.286  1.00  0.00     0.030 A 
BRANCH   8  13
HETATM   13  C   UNL     1     -46.256  60.935 -61.108  1.00  0.00     0.306 C 
BRANCH  13  14
HETATM   14  N   UNL     1     -46.669  60.387 -62.395  1.00  0.00     0.082 N 
HETATM   15  H   UNL     1     -47.539  59.873 -62.272  1.00  0.00     0.313 HD
HETATM   16  H   UNL     1     -45.979  59.704 -62.706  1.00  0.00     0.313 HD
ENDBRANCH  13  14
ENDBRANCH   8  13
BRANCH  11  17
HETATM   17  C   UNL     1     -50.308  60.767 -56.932  1.00  0.00     0.256 C 
HETATM   18  O   UNL     1     -51.192  59.918 -56.888  1.00  0.00    -0.267 OA
HETATM   19  N   UNL     1     -50.120  61.783 -56.016  1.00  0.00    -0.320 N 
HETATM   20  H   UNL     1     -49.248  62.302 -56.045  1.00  0.00     0.169 HD
BRANCH  19  21
HETATM   21  C   UNL     1     -50.998  62.159 -54.972  1.00  0.00     0.076 A 
HETATM   22  C   UNL     1     -50.827  61.800 -53.637  1.00  0.00     0.052 A 
HETATM   23  C   UNL     1     -51.782  62.207 -52.713  1.00  0.00     0.118 A 
HETATM   24  N   UNL     1     -52.877  62.936 -53.025  1.00  0.00    -0.270 NA
HETATM   25  C   UNL     1     -53.024  63.269 -54.327  1.00  0.00     0.160 A 
HETATM   26  C   UNL     1     -52.125  62.905 -55.314  1.00  0.00     0.160 A 
HETATM   27  F   UNL     1     -52.340  63.264 -56.589  1.00  0.00    -0.202 F 
ENDBRANCH  19  21
ENDBRANCH  11  17
ENDBRANCH   1   7
BRANCH   5  28
HETATM   28  C   UNL     1     -43.636  56.886 -57.685  1.00  0.00     0.256 C 
HETATM   29  O   UNL     1     -42.546  56.499 -58.095  1.00  0.00    -0.267 OA
HETATM   30  N   UNL     1     -43.960  57.170 -56.373  1.00  0.00    -0.320 N 
HETATM   31  H   UNL     1     -44.944  57.220 -56.127  1.00  0.00     0.169 HD
BRANCH  30  32
HETATM   32  C   UNL     1     -43.051  57.231 -55.289  1.00  0.00     0.075 A 
HETATM   33  C   UNL     1     -42.227  58.336 -55.047  1.00  0.00     0.033 A 
HETATM   34  C   UNL     1     -41.351  58.343 -53.960  1.00  0.00     0.003 A 
HETATM   35  C   UNL     1     -41.287  57.242 -53.109  1.00  0.00     0.021 A 
HETATM   36  C   UNL     1     -42.112  56.131 -53.330  1.00  0.00     0.080 A 
HETATM   37  C   UNL     1     -42.996  56.138 -54.412  1.00  0.00     0.159 A 
HETATM   38  F   UNL     1     -43.784  55.081 -54.672  1.00  0.00    -0.203 F 
BRANCH  36  39
HETATM   39  C   UNL     1     -41.960  54.979 -52.416  1.00  0.00     0.296 C 
HETATM   40  O   UNL     1     -42.835  54.645 -51.632  1.00  0.00    -0.259 OA
BRANCH  39  41
HETATM   41  O   UNL     1     -40.781  54.342 -52.608  1.00  0.00    -0.312 OA
BRANCH  41  42
HETATM   42  C   UNL     1     -40.890  52.947 -52.901  1.00  0.00     0.132 C 
HETATM   43  C   UNL     1     -40.557  52.631 -54.355  1.00  0.00     0.032 C 
HETATM   44  C   UNL     1     -40.222  51.150 -54.306  1.00  0.00     0.002 C 
HETATM   45  C   UNL     1     -39.450  50.980 -53.003  1.00  0.00     0.002 C 
HETATM   46  C   UNL     1     -39.832  52.168 -52.121  1.00  0.00     0.032 C 
ENDBRANCH  41  42
ENDBRANCH  39  41
ENDBRANCH  36  39
ENDBRANCH  30  32
ENDBRANCH   5  28
TORSDOF 10
ENDMDL
MODEL 7
REMARK VINA RESULT:      -8.2      3.812      7.435
REMARK  10 active torsions:
REMARK  status: ('A' for Active; 'I' for Inactive)
REMARK    1  A    between atoms: N_1  and  C_2 
REMARK    2  A    between atoms: C_2  and  C_3 
REMARK    3  A    between atoms: C_6  and  C_33 
REMARK    4  A    between atoms: C_8  and  C_9 
REMARK    5  A    between atoms: C_13  and  C_15 
REMARK       I    between atoms: C_15  and  N_17 
REMARK    6  A    between atoms: N_17  and  C_18 
REMARK    7  A    between atoms: C_22  and  C_23 
REMARK    8  A    between atoms: C_23  and  O_25 
REMARK    9  A    between atoms: O_25  and  C_26 
REMARK       I    between atoms: C_33  and  N_35 
REMARK   10  A    between atoms: N_35  and  C_36 
ROOT
HETATM    1  C   UNL     1     -41.650  58.635 -52.491  1.00  0.00    -0.024 A 
HETATM    2  C   UNL     1     -40.647  58.318 -51.560  1.00  0.00     0.012 A 
HETATM    3  C   UNL     1     -40.428  59.101 -50.419  1.00  0.00     0.002 A 
HETATM    4  C   UNL     1     -41.244  60.198 -50.152  1.00  0.00     0.017 A 
HETATM    5  C   UNL     1     -42.273  60.514 -51.040  1.00  0.00     0.033 A 
HETATM    6  C   UNL     1     -42.455  59.753 -52.205  1.00  0.00     0.029 A 
ENDROOT
BRANCH   1   7
HETATM    7  C   UNL     1     -41.920  57.797 -53.688  1.00  0.00    -0.017 A 
HETATM    8  C   UNL     1     -42.497  58.281 -54.889  1.00  0.00    -0.020 A 
HETATM    9  C   UNL     1     -42.713  57.389 -55.964  1.00  0.00     0.011 A 
HETATM   10  C   UNL     1     -42.415  56.032 -55.856  1.00  0.00     0.017 A 
HETATM   11  C   UNL     1     -41.869  55.534 -54.676  1.00  0.00     0.033 A 
HETATM   12  C   UNL     1     -41.617  56.414 -53.614  1.00  0.00     0.030 A 
BRANCH   8  13
HETATM   13  C   UNL     1     -42.938  59.714 -55.098  1.00  0.00     0.306 C 
BRANCH  13  14
HETATM   14  N   UNL     1     -41.903  60.504 -55.755  1.00  0.00     0.082 N 
HETATM   15  H   UNL     1     -41.983  60.381 -56.763  1.00  0.00     0.313 HD
HETATM   16  H   UNL     1     -40.987  60.139 -55.497  1.00  0.00     0.313 HD
ENDBRANCH  13  14
ENDBRANCH   8  13
BRANCH  11  17
HETATM   17  C   UNL     1     -41.669  54.059 -54.553  1.00  0.00     0.256 C 
HETATM   18  O   UNL     1     -42.524  53.315 -55.022  1.00  0.00    -0.267 OA
HETATM   19  N   UNL     1     -40.510  53.655 -53.918  1.00  0.00    -0.320 N 
HETATM   20  H   UNL     1     -39.789  54.348 -53.747  1.00  0.00     0.169 HD
BRANCH  19  21
HETATM   21  C   UNL     1     -40.175  52.340 -53.519  1.00  0.00     0.076 A 
HETATM   22  C   UNL     1     -40.196  51.235 -54.366  1.00  0.00     0.052 A 
HETATM   23  C   UNL     1     -39.876  49.990 -53.840  1.00  0.00     0.118 A 
HETATM   24  N   UNL     1     -39.541  49.775 -52.548  1.00  0.00    -0.270 NA
HETATM   25  C   UNL     1     -39.531  50.861 -51.743  1.00  0.00     0.160 A 
HETATM   26  C   UNL     1     -39.839  52.138 -52.180  1.00  0.00     0.160 A 
HETATM   27  F   UNL     1     -39.817  53.170 -51.323  1.00  0.00    -0.202 F 
ENDBRANCH  19  21
ENDBRANCH  11  17
ENDBRANCH   1   7
BRANCH   5  28
HETATM   28  C   UNL     1     -43.285  61.552 -50.718  1.00  0.00     0.256 C 
HETATM   29  O   UNL     1     -42.931  62.727 -50.762  1.00  0.00    -0.267 OA
HETATM   30  N   UNL     1     -44.539  61.090 -50.372  1.00  0.00    -0.320 N 
HETATM   31  H   UNL     1     -44.632  60.112 -50.117  1.00  0.00     0.169 HD
BRANCH  30  32
HETATM   32  C   UNL     1     -45.690  61.890 -50.170  1.00  0.00     0.075 A 
HETATM   33  C   UNL     1     -46.105  62.324 -48.906  1.00  0.00     0.033 A 
HETATM   34  C   UNL     1     -47.247  63.114 -48.766  1.00  0.00     0.003 A 
HETATM   35  C   UNL     1     -47.988  63.474 -49.890  1.00  0.00     0.021 A 
HETATM   36  C   UNL     1     -47.582  63.058 -51.165  1.00  0.00     0.080 A 
HETATM   37  C   UNL     1     -46.430  62.278 -51.298  1.00  0.00     0.159 A 
HETATM   38  F   UNL     1     -46.023  61.838 -52.500  1.00  0.00    -0.203 F 
BRANCH  36  39
HETATM   39  C   UNL     1     -48.439  63.437 -52.308  1.00  0.00     0.296 C 
HETATM   40  O   UNL     1     -48.167  64.368 -53.051  1.00  0.00    -0.259 OA
BRANCH  39  41
HETATM   41  O   UNL     1     -49.495  62.600 -52.439  1.00  0.00    -0.312 OA
BRANCH  41  42
HETATM   42  C   UNL     1     -50.763  63.246 -52.573  1.00  0.00     0.132 C 
HETATM   43  C   UNL     1     -51.681  62.526 -53.555  1.00  0.00     0.032 C 
HETATM   44  C   UNL     1     -53.058  63.025 -53.153  1.00  0.00     0.002 C 
HETATM   45  C   UNL     1     -53.009  63.084 -51.630  1.00  0.00     0.002 C 
HETATM   46  C   UNL     1     -51.530  63.165 -51.253  1.00  0.00     0.032 C 
ENDBRANCH  41  42
ENDBRANCH  39  41
ENDBRANCH  36  39
ENDBRANCH  30  32
ENDBRANCH   5  28
TORSDOF 10
ENDMDL
MODEL 8
REMARK VINA RESULT:      -8.1      3.717     10.689
REMARK  10 active torsions:
REMARK  status: ('A' for Active; 'I' for Inactive)
REMARK    1  A    between atoms: N_1  and  C_2 
REMARK    2  A    between atoms: C_2  and  C_3 
REMARK    3  A    between atoms: C_6  and  C_33 
REMARK    4  A    between atoms: C_8  and  C_9 
REMARK    5  A    between atoms: C_13  and  C_15 
REMARK       I    between atoms: C_15  and  N_17 
REMARK    6  A    between atoms: N_17  and  C_18 
REMARK    7  A    between atoms: C_22  and  C_23 
REMARK    8  A    between atoms: C_23  and  O_25 
REMARK    9  A    between atoms: O_25  and  C_26 
REMARK       I    between atoms: C_33  and  N_35 
REMARK   10  A    between atoms: N_35  and  C_36 
ROOT
HETATM    1  C   UNL     1     -45.586  57.738 -59.729  1.00  0.00    -0.024 A 
HETATM    2  C   UNL     1     -45.992  56.588 -60.427  1.00  0.00     0.012 A 
HETATM    3  C   UNL     1     -45.382  55.345 -60.216  1.00  0.00     0.002 A 
HETATM    4  C   UNL     1     -44.378  55.208 -59.260  1.00  0.00     0.017 A 
HETATM    5  C   UNL     1     -43.980  56.325 -58.525  1.00  0.00     0.033 A 
HETATM    6  C   UNL     1     -44.563  57.577 -58.775  1.00  0.00     0.029 A 
ENDROOT
BRANCH   1   7
HETATM    7  C   UNL     1     -46.245  59.057 -59.913  1.00  0.00    -0.017 A 
HETATM    8  C   UNL     1     -45.643  60.169 -60.555  1.00  0.00    -0.020 A 
HETATM    9  C   UNL     1     -46.364  61.379 -60.669  1.00  0.00     0.011 A 
HETATM   10  C   UNL     1     -47.638  61.521 -60.124  1.00  0.00     0.017 A 
HETATM   11  C   UNL     1     -48.237  60.447 -59.470  1.00  0.00     0.033 A 
HETATM   12  C   UNL     1     -47.547  59.230 -59.381  1.00  0.00     0.030 A 
BRANCH   8  13
HETATM   13  C   UNL     1     -44.236  60.163 -61.113  1.00  0.00     0.306 C 
BRANCH  13  14
HETATM   14  N   UNL     1     -44.216  60.527 -62.525  1.00  0.00     0.082 N 
HETATM   15  H   UNL     1     -44.637  59.774 -63.067  1.00  0.00     0.313 HD
HETATM   16  H   UNL     1     -43.250  60.596 -62.841  1.00  0.00     0.313 HD
ENDBRANCH  13  14
ENDBRANCH   8  13
BRANCH  11  17
HETATM   17  C   UNL     1     -49.553  60.668 -58.799  1.00  0.00     0.256 C 
HETATM   18  O   UNL     1     -50.498  61.048 -59.484  1.00  0.00    -0.267 OA
HETATM   19  N   UNL     1     -49.593  60.409 -57.443  1.00  0.00    -0.320 N 
HETATM   20  H   UNL     1     -48.811  59.917 -57.024  1.00  0.00     0.169 HD
BRANCH  19  21
HETATM   21  C   UNL     1     -50.652  60.706 -56.553  1.00  0.00     0.076 A 
HETATM   22  C   UNL     1     -51.831  59.969 -56.464  1.00  0.00     0.052 A 
HETATM   23  C   UNL     1     -52.808  60.387 -55.570  1.00  0.00     0.118 A 
HETATM   24  N   UNL     1     -52.692  61.471 -54.770  1.00  0.00    -0.270 NA
HETATM   25  C   UNL     1     -51.541  62.172 -54.876  1.00  0.00     0.160 A 
HETATM   26  C   UNL     1     -50.516  61.832 -55.740  1.00  0.00     0.160 A 
HETATM   27  F   UNL     1     -49.403  62.580 -55.798  1.00  0.00    -0.202 F 
ENDBRANCH  19  21
ENDBRANCH  11  17
ENDBRANCH   1   7
BRANCH   5  28
HETATM   28  C   UNL     1     -43.052  56.206 -57.371  1.00  0.00     0.256 C 
HETATM   29  O   UNL     1     -42.347  57.174 -57.104  1.00  0.00    -0.267 OA
HETATM   30  N   UNL     1     -43.053  54.990 -56.715  1.00  0.00    -0.320 N 
HETATM   31  H   UNL     1     -43.474  54.196 -57.187  1.00  0.00     0.169 HD
BRANCH  30  32
HETATM   32  C   UNL     1     -42.366  54.698 -55.512  1.00  0.00     0.075 A 
HETATM   33  C   UNL     1     -41.025  54.299 -55.477  1.00  0.00     0.033 A 
HETATM   34  C   UNL     1     -40.397  54.026 -54.260  1.00  0.00     0.003 A 
HETATM   35  C   UNL     1     -41.106  54.145 -53.067  1.00  0.00     0.021 A 
HETATM   36  C   UNL     1     -42.447  54.555 -53.082  1.00  0.00     0.080 A 
HETATM   37  C   UNL     1     -43.064  54.839 -54.303  1.00  0.00     0.159 A 
HETATM   38  F   UNL     1     -44.354  55.208 -54.360  1.00  0.00    -0.203 F 
BRANCH  36  39
HETATM   39  C   UNL     1     -43.152  54.616 -51.785  1.00  0.00     0.296 C 
HETATM   40  O   UNL     1     -43.913  53.737 -51.410  1.00  0.00    -0.259 OA
BRANCH  39  41
HETATM   41  O   UNL     1     -42.801  55.716 -51.077  1.00  0.00    -0.312 OA
BRANCH  41  42
HETATM   42  C   UNL     1     -43.131  56.962 -51.694  1.00  0.00     0.132 C 
HETATM   43  C   UNL     1     -44.519  57.455 -51.301  1.00  0.00     0.032 C 
HETATM   44  C   UNL     1     -44.445  58.941 -51.603  1.00  0.00     0.002 C 
HETATM   45  C   UNL     1     -43.039  59.345 -51.173  1.00  0.00     0.002 C 
HETATM   46  C   UNL     1     -42.207  58.062 -51.172  1.00  0.00     0.032 C 
ENDBRANCH  41  42
ENDBRANCH  39  41
ENDBRANCH  36  39
ENDBRANCH  30  32
ENDBRANCH   5  28
TORSDOF 10
ENDMDL
MODEL 9
REMARK VINA RESULT:      -8.1      2.823      8.717
REMARK  10 active torsions:
REMARK  status: ('A' for Active; 'I' for Inactive)
REMARK    1  A    between atoms: N_1  and  C_2 
REMARK    2  A    between atoms: C_2  and  C_3 
REMARK    3  A    between atoms: C_6  and  C_33 
REMARK    4  A    between atoms: C_8  and  C_9 
REMARK    5  A    between atoms: C_13  and  C_15 
REMARK       I    between atoms: C_15  and  N_17 
REMARK    6  A    between atoms: N_17  and  C_18 
REMARK    7  A    between atoms: C_22  and  C_23 
REMARK    8  A    between atoms: C_23  and  O_25 
REMARK    9  A    between atoms: O_25  and  C_26 
REMARK       I    between atoms: C_33  and  N_35 
REMARK   10  A    between atoms: N_35  and  C_36 
ROOT
HETATM    1  C   UNL     1     -45.368  60.786 -53.898  1.00  0.00    -0.024 A 
HETATM    2  C   UNL     1     -46.241  61.528 -53.084  1.00  0.00     0.012 A 
HETATM    3  C   UNL     1     -46.617  61.083 -51.810  1.00  0.00     0.002 A 
HETATM    4  C   UNL     1     -46.088  59.903 -51.293  1.00  0.00     0.017 A 
HETATM    5  C   UNL     1     -45.189  59.164 -52.064  1.00  0.00     0.033 A 
HETATM    6  C   UNL     1     -44.854  59.592 -53.358  1.00  0.00     0.029 A 
ENDROOT
BRANCH   1   7
HETATM    7  C   UNL     1     -44.930  61.258 -55.237  1.00  0.00    -0.017 A 
HETATM    8  C   UNL     1     -44.357  62.530 -55.488  1.00  0.00    -0.020 A 
HETATM    9  C   UNL     1     -43.981  62.875 -56.806  1.00  0.00     0.011 A 
HETATM   10  C   UNL     1     -44.203  62.010 -57.875  1.00  0.00     0.017 A 
HETATM   11  C   UNL     1     -44.786  60.765 -57.653  1.00  0.00     0.033 A 
HETATM   12  C   UNL     1     -45.131  60.397 -56.344  1.00  0.00     0.030 A 
BRANCH   8  13
HETATM   13  C   UNL     1     -44.142  63.585 -54.424  1.00  0.00     0.306 C 
BRANCH  13  14
HETATM   14  N   UNL     1     -42.788  63.534 -53.883  1.00  0.00     0.082 N 
HETATM   15  H   UNL     1     -42.264  64.337 -54.225  1.00  0.00     0.313 HD
HETATM   16  H   UNL     1     -42.312  62.710 -54.247  1.00  0.00     0.313 HD
ENDBRANCH  13  14
ENDBRANCH   8  13
BRANCH  11  17
HETATM   17  C   UNL     1     -45.114  59.912 -58.834  1.00  0.00     0.256 C 
HETATM   18  O   UNL     1     -45.433  60.466 -59.880  1.00  0.00    -0.267 OA
HETATM   19  N   UNL     1     -45.018  58.548 -58.641  1.00  0.00    -0.320 N 
HETATM   20  H   UNL     1     -44.560  58.212 -57.800  1.00  0.00     0.169 HD
BRANCH  19  21
HETATM   21  C   UNL     1     -45.442  57.533 -59.531  1.00  0.00     0.076 A 
HETATM   22  C   UNL     1     -46.771  57.301 -59.878  1.00  0.00     0.052 A 
HETATM   23  C   UNL     1     -47.057  56.249 -60.739  1.00  0.00     0.118 A 
HETATM   24  N   UNL     1     -46.124  55.426 -61.270  1.00  0.00    -0.270 NA
HETATM   25  C   UNL     1     -44.842  55.669 -60.916  1.00  0.00     0.160 A 
HETATM   26  C   UNL     1     -44.465  56.692 -60.063  1.00  0.00     0.160 A 
HETATM   27  F   UNL     1     -43.173  56.868 -59.749  1.00  0.00    -0.202 F 
ENDBRANCH  19  21
ENDBRANCH  11  17
ENDBRANCH   1   7
BRANCH   5  28
HETATM   28  C   UNL     1     -44.453  58.003 -51.500  1.00  0.00     0.256 C 
HETATM   29  O   UNL     1     -45.065  57.251 -50.748  1.00  0.00    -0.267 OA
HETATM   30  N   UNL     1     -43.125  57.893 -51.861  1.00  0.00    -0.320 N 
HETATM   31  H   UNL     1     -42.672  58.708 -52.264  1.00  0.00     0.169 HD
BRANCH  30  32
HETATM   32  C   UNL     1     -42.274  56.799 -51.567  1.00  0.00     0.075 A 
HETATM   33  C   UNL     1     -41.775  56.545 -50.285  1.00  0.00     0.033 A 
HETATM   34  C   UNL     1     -40.943  55.449 -50.051  1.00  0.00     0.003 A 
HETATM   35  C   UNL     1     -40.597  54.600 -51.101  1.00  0.00     0.021 A 
HETATM   36  C   UNL     1     -41.097  54.832 -52.389  1.00  0.00     0.080 A 
HETATM   37  C   UNL     1     -41.940  55.924 -52.612  1.00  0.00     0.159 A 
HETATM   38  F   UNL     1     -42.418  56.195 -53.838  1.00  0.00    -0.203 F 
BRANCH  36  39
HETATM   39  C   UNL     1     -40.653  53.919 -53.464  1.00  0.00     0.296 C 
HETATM   40  O   UNL     1     -40.011  54.306 -54.429  1.00  0.00    -0.259 OA
BRANCH  39  41
HETATM   41  O   UNL     1     -40.999  52.637 -53.203  1.00  0.00    -0.312 OA
BRANCH  41  42
HETATM   42  C   UNL     1     -39.918  51.702 -53.234  1.00  0.00     0.132 C 
HETATM   43  C   UNL     1     -39.906  50.786 -52.015  1.00  0.00     0.032 C 
HETATM   44  C   UNL     1     -39.076  49.607 -52.491  1.00  0.00     0.002 C 
HETATM   45  C   UNL     1     -39.505  49.402 -53.940  1.00  0.00     0.002 C 
HETATM   46  C   UNL     1     -40.102  50.732 -54.400  1.00  0.00     0.032 C 
ENDBRANCH  41  42
ENDBRANCH  39  41
ENDBRANCH  36  39
ENDBRANCH  30  32
ENDBRANCH   5  28
TORSDOF 10
ENDMDL
MODEL 10
REMARK VINA RESULT:      -8.1      3.608     10.838
REMARK  10 active torsions:
REMARK  status: ('A' for Active; 'I' for Inactive)
REMARK    1  A    between atoms: N_1  and  C_2 
REMARK    2  A    between atoms: C_2  and  C_3 
REMARK    3  A    between atoms: C_6  and  C_33 
REMARK    4  A    between atoms: C_8  and  C_9 
REMARK    5  A    between atoms: C_13  and  C_15 
REMARK       I    between atoms: C_15  and  N_17 
REMARK    6  A    between atoms: N_17  and  C_18 
REMARK    7  A    between atoms: C_22  and  C_23 
REMARK    8  A    between atoms: C_23  and  O_25 
REMARK    9  A    between atoms: O_25  and  C_26 
REMARK       I    between atoms: C_33  and  N_35 
REMARK   10  A    between atoms: N_35  and  C_36 
ROOT
HETATM    1  C   UNL     1     -45.416  58.177 -59.520  1.00  0.00    -0.024 A 
HETATM    2  C   UNL     1     -45.426  57.046 -60.353  1.00  0.00     0.012 A 
HETATM    3  C   UNL     1     -44.683  55.899 -60.044  1.00  0.00     0.002 A 
HETATM    4  C   UNL     1     -43.947  55.834 -58.863  1.00  0.00     0.017 A 
HETATM    5  C   UNL     1     -43.950  56.930 -57.998  1.00  0.00     0.033 A 
HETATM    6  C   UNL     1     -44.658  58.092 -58.337  1.00  0.00     0.029 A 
ENDROOT
BRANCH   1   7
HETATM    7  C   UNL     1     -46.225  59.389 -59.813  1.00  0.00    -0.017 A 
HETATM    8  C   UNL     1     -45.766  60.493 -60.575  1.00  0.00    -0.020 A 
HETATM    9  C   UNL     1     -46.623  61.597 -60.785  1.00  0.00     0.011 A 
HETATM   10  C   UNL     1     -47.896  61.647 -60.221  1.00  0.00     0.017 A 
HETATM   11  C   UNL     1     -48.357  60.583 -59.451  1.00  0.00     0.033 A 
HETATM   12  C   UNL     1     -47.530  59.466 -59.263  1.00  0.00     0.030 A 
BRANCH   8  13
HETATM   13  C   UNL     1     -44.377  60.590 -61.168  1.00  0.00     0.306 C 
BRANCH  13  14
HETATM   14  N   UNL     1     -44.406  60.484 -62.623  1.00  0.00     0.082 N 
HETATM   15  H   UNL     1     -43.769  61.174 -63.018  1.00  0.00     0.313 HD
HETATM   16  H   UNL     1     -45.335  60.732 -62.959  1.00  0.00     0.313 HD
ENDBRANCH  13  14
ENDBRANCH   8  13
BRANCH  11  17
HETATM   17  C   UNL     1     -49.678  60.719 -58.768  1.00  0.00     0.256 C 
HETATM   18  O   UNL     1     -50.661  60.988 -59.452  1.00  0.00    -0.267 OA
HETATM   19  N   UNL     1     -49.678  60.516 -57.402  1.00  0.00    -0.320 N 
HETATM   20  H   UNL     1     -48.852  60.110 -56.976  1.00  0.00     0.169 HD
BRANCH  19  21
HETATM   21  C   UNL     1     -50.747  60.759 -56.507  1.00  0.00     0.076 A 
HETATM   22  C   UNL     1     -51.908  59.991 -56.447  1.00  0.00     0.052 A 
HETATM   23  C   UNL     1     -52.899  60.357 -55.544  1.00  0.00     0.118 A 
HETATM   24  N   UNL     1     -52.811  61.418 -54.710  1.00  0.00    -0.270 NA
HETATM   25  C   UNL     1     -51.677  62.150 -54.788  1.00  0.00     0.160 A 
HETATM   26  C   UNL     1     -50.641  61.861 -55.659  1.00  0.00     0.160 A 
HETATM   27  F   UNL     1     -49.547  62.637 -55.689  1.00  0.00    -0.202 F 
ENDBRANCH  19  21
ENDBRANCH  11  17
ENDBRANCH   1   7
BRANCH   5  28
HETATM   28  C   UNL     1     -43.340  56.853 -56.646  1.00  0.00     0.256 C 
HETATM   29  O   UNL     1     -42.130  56.660 -56.576  1.00  0.00    -0.267 OA
HETATM   30  N   UNL     1     -44.208  56.985 -55.580  1.00  0.00    -0.320 N 
HETATM   31  H   UNL     1     -45.201  56.874 -55.759  1.00  0.00     0.169 HD
BRANCH  30  32
HETATM   32  C   UNL     1     -43.837  57.091 -54.217  1.00  0.00     0.075 A 
HETATM   33  C   UNL     1     -43.748  58.314 -53.544  1.00  0.00     0.033 A 
HETATM   34  C   UNL     1     -43.380  58.358 -52.198  1.00  0.00     0.003 A 
HETATM   35  C   UNL     1     -43.092  57.179 -51.515  1.00  0.00     0.021 A 
HETATM   36  C   UNL     1     -43.187  55.943 -52.169  1.00  0.00     0.080 A 
HETATM   37  C   UNL     1     -43.569  55.907 -53.513  1.00  0.00     0.159 A 
HETATM   38  F   UNL     1     -43.645  54.745 -54.183  1.00  0.00    -0.203 F 
BRANCH  36  39
HETATM   39  C   UNL     1     -42.823  54.737 -51.398  1.00  0.00     0.296 C 
HETATM   40  O   UNL     1     -43.645  54.093 -50.762  1.00  0.00    -0.259 OA
BRANCH  39  41
HETATM   41  O   UNL     1     -41.513  54.429 -51.540  1.00  0.00    -0.312 OA
BRANCH  41  42
HETATM   42  C   UNL     1     -41.251  53.204 -52.228  1.00  0.00     0.132 C 
HETATM   43  C   UNL     1     -40.633  53.430 -53.603  1.00  0.00     0.032 C 
HETATM   44  C   UNL     1     -39.978  52.092 -53.899  1.00  0.00     0.002 C 
HETATM   45  C   UNL     1     -39.398  51.650 -52.560  1.00  0.00     0.002 C 
HETATM   46  C   UNL     1     -40.176  52.411 -51.486  1.00  0.00     0.032 C 
ENDBRANCH  41  42
ENDBRANCH  39  41
ENDBRANCH  36  39
ENDBRANCH  30  32
ENDBRANCH   5  28
TORSDOF 10
ENDMDL
