MODEL 1
REMARK VINA RESULT:      -7.4      0.000      0.000
REMARK  7 active torsions:
REMARK  status: ('A' for Active; 'I' for Inactive)
REMARK    1  A    between atoms: O_2  and  C_3 
REMARK    2  A    between atoms: C_5  and  C_6 
REMARK    3  A    between atoms: C_10  and  N_11 
REMARK    4  A    between atoms: N_11  and  C_12 
REMARK    5  A    between atoms: C_12  and  S_13 
REMARK    6  A    between atoms: N_15  and  C_17 
REMARK    7  A    between atoms: C_17  and  C_18 
ROOT
HETATM    1  C   UNL     1     -41.431  54.136 -54.596  1.00  0.00     0.064 A 
HETATM    2  N   UNL     1     -42.586  53.976 -55.322  1.00  0.00    -0.276 N 
HETATM    3  H   UNL     1     -43.181  53.155 -55.365  1.00  0.00     0.189 HD
HETATM    4  N   UNL     1     -42.938  55.050 -56.057  1.00  0.00    -0.156 NA
HETATM    5  C   UNL     1     -41.999  55.951 -55.770  1.00  0.00     0.151 A 
HETATM    6  C   UNL     1     -41.050  55.440 -54.862  1.00  0.00     0.084 A 
ENDROOT
BRANCH   5   7
HETATM    7  N   UNL     1     -41.916  57.194 -56.277  1.00  0.00    -0.320 N 
HETATM    8  H   UNL     1     -41.424  57.915 -55.763  1.00  0.00     0.169 HD
BRANCH   7   9
HETATM    9  C   UNL     1     -42.454  57.685 -57.485  1.00  0.00     0.141 C 
HETATM   10  N   UNL     1     -42.245  57.020 -58.597  1.00  0.00    -0.365 N 
HETATM   11  H   UNL     1     -41.683  56.170 -58.480  1.00  0.00     0.162 HD
BRANCH   9  12
HETATM   12  S   UNL     1     -43.366  59.142 -57.387  1.00  0.00    -0.099 SA
HETATM   13  C   UNL     1     -44.838  58.522 -56.542  1.00  0.00     0.099 C 
ENDBRANCH   9  12
BRANCH  10  14
HETATM   14  C   UNL     1     -42.754  57.377 -59.916  1.00  0.00     0.186 C 
BRANCH  14  15
HETATM   15  C   UNL     1     -44.022  56.653 -60.200  1.00  0.00     0.070 A 
HETATM   16  O   UNL     1     -43.955  55.532 -60.979  1.00  0.00    -0.325 OA
HETATM   17  C   UNL     1     -45.218  55.048 -61.090  1.00  0.00     0.142 A 
HETATM   18  C   UNL     1     -46.100  55.840 -60.395  1.00  0.00     0.027 A 
HETATM   19  C   UNL     1     -45.330  56.879 -59.819  1.00  0.00     0.036 A 
ENDBRANCH  14  15
ENDBRANCH  10  14
ENDBRANCH   7   9
ENDBRANCH   5   7
BRANCH   1  20
HETATM   20  C   UNL     1     -40.810  53.103 -53.761  1.00  0.00    -0.005 A 
HETATM   21  C   UNL     1     -40.686  53.298 -52.376  1.00  0.00     0.050 A 
HETATM   22  C   UNL     1     -40.056  52.357 -51.552  1.00  0.00     0.069 A 
HETATM   23  C   UNL     1     -39.559  51.184 -52.112  1.00  0.00     0.037 A 
HETATM   24  C   UNL     1     -39.680  50.966 -53.486  1.00  0.00     0.004 A 
HETATM   25  C   UNL     1     -40.296  51.918 -54.305  1.00  0.00     0.014 A 
BRANCH  22  26
HETATM   26  O   UNL     1     -40.001  52.706 -50.231  1.00  0.00    -0.356 OA
HETATM   27  C   UNL     1     -39.961  54.097 -49.935  1.00  0.00     0.210 C 
ENDBRANCH  22  26
ENDBRANCH   1  20
TORSDOF 7
ENDMDL
MODEL 2
REMARK VINA RESULT:      -7.3      3.890      5.593
REMARK  7 active torsions:
REMARK  status: ('A' for Active; 'I' for Inactive)
REMARK    1  A    between atoms: O_2  and  C_3 
REMARK    2  A    between atoms: C_5  and  C_6 
REMARK    3  A    between atoms: C_10  and  N_11 
REMARK    4  A    between atoms: N_11  and  C_12 
REMARK    5  A    between atoms: C_12  and  S_13 
REMARK    6  A    between atoms: N_15  and  C_17 
REMARK    7  A    between atoms: C_17  and  C_18 
ROOT
HETATM    1  C   UNL     1     -40.616  53.444 -50.071  1.00  0.00     0.064 A 
HETATM    2  N   UNL     1     -40.685  53.744 -48.732  1.00  0.00    -0.276 N 
HETATM    3  H   UNL     1     -40.463  53.136 -47.950  1.00  0.00     0.189 HD
HETATM    4  N   UNL     1     -41.105  54.996 -48.460  1.00  0.00    -0.156 NA
HETATM    5  C   UNL     1     -41.280  55.539 -49.665  1.00  0.00     0.151 A 
HETATM    6  C   UNL     1     -40.979  54.625 -50.694  1.00  0.00     0.084 A 
ENDROOT
BRANCH   5   7
HETATM    7  N   UNL     1     -41.708  56.790 -49.912  1.00  0.00    -0.320 N 
HETATM    8  H   UNL     1     -41.664  57.490 -49.183  1.00  0.00     0.169 HD
BRANCH   7   9
HETATM    9  C   UNL     1     -42.261  57.307 -51.103  1.00  0.00     0.141 C 
HETATM   10  N   UNL     1     -43.311  56.722 -51.629  1.00  0.00    -0.365 N 
HETATM   11  H   UNL     1     -43.646  55.908 -51.105  1.00  0.00     0.162 HD
BRANCH   9  12
HETATM   12  S   UNL     1     -41.493  58.697 -51.769  1.00  0.00    -0.099 SA
HETATM   13  C   UNL     1     -40.650  59.313 -50.294  1.00  0.00     0.099 C 
ENDBRANCH   9  12
BRANCH  10  14
HETATM   14  C   UNL     1     -44.014  57.148 -52.834  1.00  0.00     0.186 C 
BRANCH  14  15
HETATM   15  C   UNL     1     -43.631  56.297 -53.991  1.00  0.00     0.070 A 
HETATM   16  O   UNL     1     -43.295  56.923 -55.159  1.00  0.00    -0.325 OA
HETATM   17  C   UNL     1     -42.979  55.952 -56.054  1.00  0.00     0.142 A 
HETATM   18  C   UNL     1     -43.107  54.709 -55.482  1.00  0.00     0.027 A 
HETATM   19  C   UNL     1     -43.529  54.928 -54.149  1.00  0.00     0.036 A 
ENDBRANCH  14  15
ENDBRANCH  10  14
ENDBRANCH   7   9
ENDBRANCH   5   7
BRANCH   1  20
HETATM   20  C   UNL     1     -40.240  52.139 -50.624  1.00  0.00    -0.005 A 
HETATM   21  C   UNL     1     -39.860  52.030 -51.971  1.00  0.00     0.050 A 
HETATM   22  C   UNL     1     -39.541  50.795 -52.549  1.00  0.00     0.069 A 
HETATM   23  C   UNL     1     -39.575  49.646 -51.766  1.00  0.00     0.037 A 
HETATM   24  C   UNL     1     -39.942  49.733 -50.421  1.00  0.00     0.004 A 
HETATM   25  C   UNL     1     -40.276  50.968 -49.856  1.00  0.00     0.014 A 
BRANCH  22  26
HETATM   26  O   UNL     1     -39.209  50.857 -53.875  1.00  0.00    -0.356 OA
HETATM   27  C   UNL     1     -39.811  49.893 -54.731  1.00  0.00     0.210 C 
ENDBRANCH  22  26
ENDBRANCH   1  20
TORSDOF 7
ENDMDL
MODEL 3
REMARK VINA RESULT:      -7.3      1.569      2.543
REMARK  7 active torsions:
REMARK  status: ('A' for Active; 'I' for Inactive)
REMARK    1  A    between atoms: O_2  and  C_3 
REMARK    2  A    between atoms: C_5  and  C_6 
REMARK    3  A    between atoms: C_10  and  N_11 
REMARK    4  A    between atoms: N_11  and  C_12 
REMARK    5  A    between atoms: C_12  and  S_13 
REMARK    6  A    between atoms: N_15  and  C_17 
REMARK    7  A    between atoms: C_17  and  C_18 
ROOT
HETATM    1  C   UNL     1     -41.321  54.382 -54.021  1.00  0.00     0.064 A 
HETATM    2  N   UNL     1     -42.191  55.393 -53.696  1.00  0.00    -0.276 N 
HETATM    3  H   UNL     1     -42.530  55.645 -52.773  1.00  0.00     0.189 HD
HETATM    4  N   UNL     1     -42.632  56.111 -54.748  1.00  0.00    -0.156 NA
HETATM    5  C   UNL     1     -41.997  55.570 -55.788  1.00  0.00     0.151 A 
HETATM    6  C   UNL     1     -41.165  54.505 -55.390  1.00  0.00     0.084 A 
ENDROOT
BRANCH   5   7
HETATM    7  N   UNL     1     -42.123  55.947 -57.073  1.00  0.00    -0.320 N 
HETATM    8  H   UNL     1     -41.587  55.475 -57.790  1.00  0.00     0.169 HD
BRANCH   7   9
HETATM    9  C   UNL     1     -42.927  56.975 -57.610  1.00  0.00     0.141 C 
HETATM   10  N   UNL     1     -44.228  56.922 -57.448  1.00  0.00    -0.365 N 
HETATM   11  H   UNL     1     -44.554  56.103 -56.926  1.00  0.00     0.162 HD
BRANCH   9  12
HETATM   12  S   UNL     1     -42.107  58.240 -58.441  1.00  0.00    -0.099 SA
HETATM   13  C   UNL     1     -42.091  57.547 -60.110  1.00  0.00     0.099 C 
ENDBRANCH   9  12
BRANCH  10  14
HETATM   14  C   UNL     1     -45.189  57.915 -57.914  1.00  0.00     0.186 C 
BRANCH  14  15
HETATM   15  C   UNL     1     -45.928  57.409 -59.102  1.00  0.00     0.070 A 
HETATM   16  O   UNL     1     -45.568  56.190 -59.604  1.00  0.00    -0.325 OA
HETATM   17  C   UNL     1     -46.377  55.943 -60.666  1.00  0.00     0.142 A 
HETATM   18  C   UNL     1     -47.252  56.985 -60.858  1.00  0.00     0.027 A 
HETATM   19  C   UNL     1     -46.964  57.935 -59.849  1.00  0.00     0.036 A 
ENDBRANCH  14  15
ENDBRANCH  10  14
ENDBRANCH   7   9
ENDBRANCH   5   7
BRANCH   1  20
HETATM   20  C   UNL     1     -40.742  53.428 -53.068  1.00  0.00    -0.005 A 
HETATM   21  C   UNL     1     -40.280  52.180 -53.514  1.00  0.00     0.050 A 
HETATM   22  C   UNL     1     -39.766  51.225 -52.630  1.00  0.00     0.069 A 
HETATM   23  C   UNL     1     -39.686  51.524 -51.273  1.00  0.00     0.037 A 
HETATM   24  C   UNL     1     -40.132  52.763 -50.809  1.00  0.00     0.004 A 
HETATM   25  C   UNL     1     -40.659  53.707 -51.697  1.00  0.00     0.014 A 
BRANCH  22  26
HETATM   26  O   UNL     1     -39.377  50.054 -53.221  1.00  0.00    -0.356 OA
HETATM   27  C   UNL     1     -39.768  49.858 -54.574  1.00  0.00     0.210 C 
ENDBRANCH  22  26
ENDBRANCH   1  20
TORSDOF 7
ENDMDL
MODEL 4
REMARK VINA RESULT:      -7.2      2.105      3.491
REMARK  7 active torsions:
REMARK  status: ('A' for Active; 'I' for Inactive)
REMARK    1  A    between atoms: O_2  and  C_3 
REMARK    2  A    between atoms: C_5  and  C_6 
REMARK    3  A    between atoms: C_10  and  N_11 
REMARK    4  A    between atoms: N_11  and  C_12 
REMARK    5  A    between atoms: C_12  and  S_13 
REMARK    6  A    between atoms: N_15  and  C_17 
REMARK    7  A    between atoms: C_17  and  C_18 
ROOT
HETATM    1  C   UNL     1     -41.497  54.529 -54.603  1.00  0.00     0.064 A 
HETATM    2  N   UNL     1     -41.228  55.852 -54.859  1.00  0.00    -0.276 N 
HETATM    3  H   UNL     1     -40.566  56.452 -54.379  1.00  0.00     0.189 HD
HETATM    4  N   UNL     1     -41.950  56.384 -55.865  1.00  0.00    -0.156 NA
HETATM    5  C   UNL     1     -42.686  55.362 -56.302  1.00  0.00     0.151 A 
HETATM    6  C   UNL     1     -42.434  54.189 -55.563  1.00  0.00     0.084 A 
ENDROOT
BRANCH   5   7
HETATM    7  N   UNL     1     -43.584  55.406 -57.302  1.00  0.00    -0.320 N 
HETATM    8  H   UNL     1     -44.461  54.909 -57.213  1.00  0.00     0.169 HD
BRANCH   7   9
HETATM    9  C   UNL     1     -43.480  56.069 -58.544  1.00  0.00     0.141 C 
HETATM   10  N   UNL     1     -42.310  56.512 -58.937  1.00  0.00    -0.365 N 
HETATM   11  H   UNL     1     -41.547  56.331 -58.277  1.00  0.00     0.162 HD
BRANCH   9  12
HETATM   12  S   UNL     1     -44.932  56.230 -59.455  1.00  0.00    -0.099 SA
HETATM   13  C   UNL     1     -44.907  54.659 -60.347  1.00  0.00     0.099 C 
ENDBRANCH   9  12
BRANCH  10  14
HETATM   14  C   UNL     1     -42.031  57.188 -60.199  1.00  0.00     0.186 C 
BRANCH  14  15
HETATM   15  C   UNL     1     -41.964  58.661 -59.999  1.00  0.00     0.070 A 
HETATM   16  O   UNL     1     -41.797  59.124 -58.724  1.00  0.00    -0.325 OA
HETATM   17  C   UNL     1     -41.758  60.478 -58.795  1.00  0.00     0.142 A 
HETATM   18  C   UNL     1     -41.898  60.898 -60.096  1.00  0.00     0.027 A 
HETATM   19  C   UNL     1     -42.032  59.725 -60.877  1.00  0.00     0.036 A 
ENDBRANCH  14  15
ENDBRANCH  10  14
ENDBRANCH   7   9
ENDBRANCH   5   7
BRANCH   1  20
HETATM   20  C   UNL     1     -40.886  53.737 -53.530  1.00  0.00    -0.005 A 
HETATM   21  C   UNL     1     -40.389  52.452 -53.800  1.00  0.00     0.050 A 
HETATM   22  C   UNL     1     -39.843  51.646 -52.794  1.00  0.00     0.069 A 
HETATM   23  C   UNL     1     -39.766  52.136 -51.494  1.00  0.00     0.037 A 
HETATM   24  C   UNL     1     -40.247  53.415 -51.205  1.00  0.00     0.004 A 
HETATM   25  C   UNL     1     -40.806  54.207 -52.213  1.00  0.00     0.014 A 
BRANCH  22  26
HETATM   26  O   UNL     1     -39.422  50.415 -53.218  1.00  0.00    -0.356 OA
HETATM   27  C   UNL     1     -39.786  50.032 -54.538  1.00  0.00     0.210 C 
ENDBRANCH  22  26
ENDBRANCH   1  20
TORSDOF 7
ENDMDL
MODEL 5
REMARK VINA RESULT:      -7.2      1.021      1.896
REMARK  7 active torsions:
REMARK  status: ('A' for Active; 'I' for Inactive)
REMARK    1  A    between atoms: O_2  and  C_3 
REMARK    2  A    between atoms: C_5  and  C_6 
REMARK    3  A    between atoms: C_10  and  N_11 
REMARK    4  A    between atoms: N_11  and  C_12 
REMARK    5  A    between atoms: C_12  and  S_13 
REMARK    6  A    between atoms: N_15  and  C_17 
REMARK    7  A    between atoms: C_17  and  C_18 
ROOT
HETATM    1  C   UNL     1     -41.426  54.412 -54.284  1.00  0.00     0.064 A 
HETATM    2  N   UNL     1     -42.410  54.049 -55.172  1.00  0.00    -0.276 N 
HETATM    3  H   UNL     1     -42.831  53.133 -55.288  1.00  0.00     0.189 HD
HETATM    4  N   UNL     1     -42.837  55.047 -55.971  1.00  0.00    -0.156 NA
HETATM    5  C   UNL     1     -42.132  56.103 -55.564  1.00  0.00     0.151 A 
HETATM    6  C   UNL     1     -41.254  55.765 -54.514  1.00  0.00     0.084 A 
ENDROOT
BRANCH   5   7
HETATM    7  N   UNL     1     -42.202  57.344 -56.076  1.00  0.00    -0.320 N 
HETATM    8  H   UNL     1     -41.965  58.141 -55.497  1.00  0.00     0.169 HD
BRANCH   7   9
HETATM    9  C   UNL     1     -42.593  57.736 -57.373  1.00  0.00     0.141 C 
HETATM   10  N   UNL     1     -42.226  57.007 -58.401  1.00  0.00    -0.365 N 
HETATM   11  H   UNL     1     -41.663  56.186 -58.155  1.00  0.00     0.162 HD
BRANCH   9  12
HETATM   12  S   UNL     1     -43.547  59.164 -57.493  1.00  0.00    -0.099 SA
HETATM   13  C   UNL     1     -45.103  58.548 -56.811  1.00  0.00     0.099 C 
ENDBRANCH   9  12
BRANCH  10  14
HETATM   14  C   UNL     1     -42.571  57.258 -59.795  1.00  0.00     0.186 C 
BRANCH  14  15
HETATM   15  C   UNL     1     -43.836  56.563 -60.155  1.00  0.00     0.070 A 
HETATM   16  O   UNL     1     -43.759  55.246 -60.515  1.00  0.00    -0.325 OA
HETATM   17  C   UNL     1     -45.023  54.834 -60.786  1.00  0.00     0.142 A 
HETATM   18  C   UNL     1     -45.915  55.864 -60.608  1.00  0.00     0.027 A 
HETATM   19  C   UNL     1     -45.151  56.984 -60.200  1.00  0.00     0.036 A 
ENDBRANCH  14  15
ENDBRANCH  10  14
ENDBRANCH   7   9
ENDBRANCH   5   7
BRANCH   1  20
HETATM   20  C   UNL     1     -40.760  53.502 -53.346  1.00  0.00    -0.005 A 
HETATM   21  C   UNL     1     -40.361  52.224 -53.769  1.00  0.00     0.050 A 
HETATM   22  C   UNL     1     -39.766  51.310 -52.892  1.00  0.00     0.069 A 
HETATM   23  C   UNL     1     -39.539  51.681 -51.570  1.00  0.00     0.037 A 
HETATM   24  C   UNL     1     -39.920  52.950 -51.131  1.00  0.00     0.004 A 
HETATM   25  C   UNL     1     -40.528  53.853 -52.010  1.00  0.00     0.014 A 
BRANCH  22  26
HETATM   26  O   UNL     1     -39.453  50.103 -53.454  1.00  0.00    -0.356 OA
HETATM   27  C   UNL     1     -39.897  49.883 -54.788  1.00  0.00     0.210 C 
ENDBRANCH  22  26
ENDBRANCH   1  20
TORSDOF 7
ENDMDL
MODEL 6
REMARK VINA RESULT:      -7.1      2.059      3.023
REMARK  7 active torsions:
REMARK  status: ('A' for Active; 'I' for Inactive)
REMARK    1  A    between atoms: O_2  and  C_3 
REMARK    2  A    between atoms: C_5  and  C_6 
REMARK    3  A    between atoms: C_10  and  N_11 
REMARK    4  A    between atoms: N_11  and  C_12 
REMARK    5  A    between atoms: C_12  and  S_13 
REMARK    6  A    between atoms: N_15  and  C_17 
REMARK    7  A    between atoms: C_17  and  C_18 
ROOT
HETATM    1  C   UNL     1     -41.484  54.587 -54.715  1.00  0.00     0.064 A 
HETATM    2  N   UNL     1     -41.219  55.935 -54.713  1.00  0.00    -0.276 N 
HETATM    3  H   UNL     1     -40.547  56.432 -54.137  1.00  0.00     0.189 HD
HETATM    4  N   UNL     1     -41.958  56.651 -55.582  1.00  0.00    -0.156 NA
HETATM    5  C   UNL     1     -42.704  55.733 -56.196  1.00  0.00     0.151 A 
HETATM    6  C   UNL     1     -42.439  54.439 -55.705  1.00  0.00     0.084 A 
ENDROOT
BRANCH   5   7
HETATM    7  N   UNL     1     -43.620  55.969 -57.152  1.00  0.00    -0.320 N 
HETATM    8  H   UNL     1     -44.601  55.810 -56.959  1.00  0.00     0.169 HD
BRANCH   7   9
HETATM    9  C   UNL     1     -43.411  56.418 -58.473  1.00  0.00     0.141 C 
HETATM   10  N   UNL     1     -42.264  56.972 -58.788  1.00  0.00    -0.365 N 
HETATM   11  H   UNL     1     -41.598  57.031 -58.011  1.00  0.00     0.162 HD
BRANCH   9  12
HETATM   12  S   UNL     1     -44.709  56.185 -59.580  1.00  0.00    -0.099 SA
HETATM   13  C   UNL     1     -44.640  54.388 -59.755  1.00  0.00     0.099 C 
ENDBRANCH   9  12
BRANCH  10  14
HETATM   14  C   UNL     1     -41.883  57.459 -60.109  1.00  0.00     0.186 C 
BRANCH  14  15
HETATM   15  C   UNL     1     -41.938  58.945 -60.153  1.00  0.00     0.070 A 
HETATM   16  O   UNL     1     -41.836  59.621 -58.970  1.00  0.00    -0.325 OA
HETATM   17  C   UNL     1     -41.903  60.945 -59.262  1.00  0.00     0.142 A 
HETATM   18  C   UNL     1     -42.049  61.134 -60.616  1.00  0.00     0.027 A 
HETATM   19  C   UNL     1     -42.072  59.842 -61.195  1.00  0.00     0.036 A 
ENDBRANCH  14  15
ENDBRANCH  10  14
ENDBRANCH   7   9
ENDBRANCH   5   7
BRANCH   1  20
HETATM   20  C   UNL     1     -40.855  53.602 -53.828  1.00  0.00    -0.005 A 
HETATM   21  C   UNL     1     -40.752  53.859 -52.452  1.00  0.00     0.050 A 
HETATM   22  C   UNL     1     -40.116  52.966 -51.581  1.00  0.00     0.069 A 
HETATM   23  C   UNL     1     -39.591  51.780 -52.084  1.00  0.00     0.037 A 
HETATM   24  C   UNL     1     -39.690  51.500 -53.448  1.00  0.00     0.004 A 
HETATM   25  C   UNL     1     -40.313  52.405 -54.315  1.00  0.00     0.014 A 
BRANCH  22  26
HETATM   26  O   UNL     1     -40.084  53.372 -50.275  1.00  0.00    -0.356 OA
HETATM   27  C   UNL     1     -40.435  54.725 -50.016  1.00  0.00     0.210 C 
ENDBRANCH  22  26
ENDBRANCH   1  20
TORSDOF 7
ENDMDL
MODEL 7
REMARK VINA RESULT:      -6.9      3.664      5.505
REMARK  7 active torsions:
REMARK  status: ('A' for Active; 'I' for Inactive)
REMARK    1  A    between atoms: O_2  and  C_3 
REMARK    2  A    between atoms: C_5  and  C_6 
REMARK    3  A    between atoms: C_10  and  N_11 
REMARK    4  A    between atoms: N_11  and  C_12 
REMARK    5  A    between atoms: C_12  and  S_13 
REMARK    6  A    between atoms: N_15  and  C_17 
REMARK    7  A    between atoms: C_17  and  C_18 
ROOT
HETATM    1  C   UNL     1     -42.120  54.035 -54.097  1.00  0.00     0.064 A 
HETATM    2  N   UNL     1     -42.073  54.421 -55.415  1.00  0.00    -0.276 N 
HETATM    3  H   UNL     1     -41.410  54.123 -56.123  1.00  0.00     0.189 HD
HETATM    4  N   UNL     1     -43.027  55.303 -55.773  1.00  0.00    -0.156 NA
HETATM    5  C   UNL     1     -43.740  55.467 -54.659  1.00  0.00     0.151 A 
HETATM    6  C   UNL     1     -43.227  54.695 -53.597  1.00  0.00     0.084 A 
ENDROOT
BRANCH   5   7
HETATM    7  N   UNL     1     -44.807  56.274 -54.515  1.00  0.00    -0.320 N 
HETATM    8  H   UNL     1     -45.701  55.999 -54.904  1.00  0.00     0.169 HD
BRANCH   7   9
HETATM    9  C   UNL     1     -44.875  57.532 -53.880  1.00  0.00     0.141 C 
HETATM   10  N   UNL     1     -44.878  57.588 -52.569  1.00  0.00    -0.365 N 
HETATM   11  H   UNL     1     -44.831  56.673 -52.108  1.00  0.00     0.162 HD
BRANCH   9  12
HETATM   12  S   UNL     1     -44.940  58.912 -54.907  1.00  0.00    -0.099 SA
HETATM   13  C   UNL     1     -43.172  59.237 -55.091  1.00  0.00     0.099 C 
ENDBRANCH   9  12
BRANCH  10  14
HETATM   14  C   UNL     1     -44.915  58.803 -51.764  1.00  0.00     0.186 C 
BRANCH  14  15
HETATM   15  C   UNL     1     -43.549  59.166 -51.302  1.00  0.00     0.070 A 
HETATM   16  O   UNL     1     -42.549  58.254 -51.494  1.00  0.00    -0.325 OA
HETATM   17  C   UNL     1     -41.409  58.805 -51.005  1.00  0.00     0.142 A 
HETATM   18  C   UNL     1     -41.657  60.059 -50.499  1.00  0.00     0.027 A 
HETATM   19  C   UNL     1     -43.040  60.295 -50.689  1.00  0.00     0.036 A 
ENDBRANCH  14  15
ENDBRANCH  10  14
ENDBRANCH   7   9
ENDBRANCH   5   7
BRANCH   1  20
HETATM   20  C   UNL     1     -41.165  53.128 -53.449  1.00  0.00    -0.005 A 
HETATM   21  C   UNL     1     -41.002  53.158 -52.056  1.00  0.00     0.050 A 
HETATM   22  C   UNL     1     -40.067  52.343 -51.405  1.00  0.00     0.069 A 
HETATM   23  C   UNL     1     -39.294  51.461 -52.153  1.00  0.00     0.037 A 
HETATM   24  C   UNL     1     -39.446  51.410 -53.540  1.00  0.00     0.004 A 
HETATM   25  C   UNL     1     -40.370  52.239 -54.184  1.00  0.00     0.014 A 
BRANCH  22  26
HETATM   26  O   UNL     1     -40.019  52.505 -50.048  1.00  0.00    -0.356 OA
HETATM   27  C   UNL     1     -40.294  53.808 -49.548  1.00  0.00     0.210 C 
ENDBRANCH  22  26
ENDBRANCH   1  20
TORSDOF 7
ENDMDL
MODEL 8
REMARK VINA RESULT:      -6.7      2.391      3.206
REMARK  7 active torsions:
REMARK  status: ('A' for Active; 'I' for Inactive)
REMARK    1  A    between atoms: O_2  and  C_3 
REMARK    2  A    between atoms: C_5  and  C_6 
REMARK    3  A    between atoms: C_10  and  N_11 
REMARK    4  A    between atoms: N_11  and  C_12 
REMARK    5  A    between atoms: C_12  and  S_13 
REMARK    6  A    between atoms: N_15  and  C_17 
REMARK    7  A    between atoms: C_17  and  C_18 
ROOT
HETATM    1  C   UNL     1     -42.536  55.028 -53.142  1.00  0.00     0.064 A 
HETATM    2  N   UNL     1     -42.946  56.000 -52.261  1.00  0.00    -0.276 N 
HETATM    3  H   UNL     1     -42.612  56.159 -51.317  1.00  0.00     0.189 HD
HETATM    4  N   UNL     1     -43.909  56.814 -52.737  1.00  0.00    -0.156 NA
HETATM    5  C   UNL     1     -44.105  56.379 -53.982  1.00  0.00     0.151 A 
HETATM    6  C   UNL     1     -43.272  55.285 -54.285  1.00  0.00     0.084 A 
ENDROOT
BRANCH   5   7
HETATM    7  N   UNL     1     -44.991  56.878 -54.863  1.00  0.00    -0.320 N 
HETATM    8  H   UNL     1     -45.959  56.583 -54.824  1.00  0.00     0.169 HD
BRANCH   7   9
HETATM    9  C   UNL     1     -44.763  57.797 -55.909  1.00  0.00     0.141 C 
HETATM   10  N   UNL     1     -45.096  57.467 -57.135  1.00  0.00    -0.365 N 
HETATM   11  H   UNL     1     -45.506  56.532 -57.223  1.00  0.00     0.162 HD
BRANCH   9  12
HETATM   12  S   UNL     1     -44.061  59.306 -55.471  1.00  0.00    -0.099 SA
HETATM   13  C   UNL     1     -42.323  58.941 -55.804  1.00  0.00     0.099 C 
ENDBRANCH   9  12
BRANCH  10  14
HETATM   14  C   UNL     1     -44.954  58.310 -58.316  1.00  0.00     0.186 C 
BRANCH  14  15
HETATM   15  C   UNL     1     -43.731  57.940 -59.078  1.00  0.00     0.070 A 
HETATM   16  O   UNL     1     -43.106  58.921 -59.796  1.00  0.00    -0.325 OA
HETATM   17  C   UNL     1     -42.027  58.352 -60.390  1.00  0.00     0.142 A 
HETATM   18  C   UNL     1     -41.945  57.019 -60.069  1.00  0.00     0.027 A 
HETATM   19  C   UNL     1     -43.047  56.748 -59.221  1.00  0.00     0.036 A 
ENDBRANCH  14  15
ENDBRANCH  10  14
ENDBRANCH   7   9
ENDBRANCH   5   7
BRANCH   1  20
HETATM   20  C   UNL     1     -41.542  53.990 -52.848  1.00  0.00    -0.005 A 
HETATM   21  C   UNL     1     -41.186  53.058 -53.836  1.00  0.00     0.050 A 
HETATM   22  C   UNL     1     -40.279  52.023 -53.580  1.00  0.00     0.069 A 
HETATM   23  C   UNL     1     -39.692  51.926 -52.322  1.00  0.00     0.037 A 
HETATM   24  C   UNL     1     -40.026  52.847 -51.328  1.00  0.00     0.004 A 
HETATM   25  C   UNL     1     -40.946  53.869 -51.586  1.00  0.00     0.014 A 
BRANCH  22  26
HETATM   26  O   UNL     1     -40.053  51.190 -54.641  1.00  0.00    -0.356 OA
HETATM   27  C   UNL     1     -39.777  49.828 -54.339  1.00  0.00     0.210 C 
ENDBRANCH  22  26
ENDBRANCH   1  20
TORSDOF 7
ENDMDL
MODEL 9
REMARK VINA RESULT:      -6.7      1.724      2.238
REMARK  7 active torsions:
REMARK  status: ('A' for Active; 'I' for Inactive)
REMARK    1  A    between atoms: O_2  and  C_3 
REMARK    2  A    between atoms: C_5  and  C_6 
REMARK    3  A    between atoms: C_10  and  N_11 
REMARK    4  A    between atoms: N_11  and  C_12 
REMARK    5  A    between atoms: C_12  and  S_13 
REMARK    6  A    between atoms: N_15  and  C_17 
REMARK    7  A    between atoms: C_17  and  C_18 
ROOT
HETATM    1  C   UNL     1     -41.837  54.756 -54.148  1.00  0.00     0.064 A 
HETATM    2  N   UNL     1     -42.724  55.776 -53.900  1.00  0.00    -0.276 N 
HETATM    3  H   UNL     1     -43.064  56.093 -52.998  1.00  0.00     0.189 HD
HETATM    4  N   UNL     1     -43.179  56.402 -55.004  1.00  0.00    -0.156 NA
HETATM    5  C   UNL     1     -42.538  55.792 -56.001  1.00  0.00     0.151 A 
HETATM    6  C   UNL     1     -41.687  54.775 -55.524  1.00  0.00     0.084 A 
ENDROOT
BRANCH   5   7
HETATM    7  N   UNL     1     -42.673  56.065 -57.310  1.00  0.00    -0.320 N 
HETATM    8  H   UNL     1     -42.175  55.508 -57.994  1.00  0.00     0.169 HD
BRANCH   7   9
HETATM    9  C   UNL     1     -43.439  57.082 -57.919  1.00  0.00     0.141 C 
HETATM   10  N   UNL     1     -44.737  57.108 -57.727  1.00  0.00    -0.365 N 
HETATM   11  H   UNL     1     -45.090  56.353 -57.129  1.00  0.00     0.162 HD
BRANCH   9  12
HETATM   12  S   UNL     1     -42.580  58.228 -58.873  1.00  0.00    -0.099 SA
HETATM   13  C   UNL     1     -41.896  57.124 -60.131  1.00  0.00     0.099 C 
ENDBRANCH   9  12
BRANCH  10  14
HETATM   14  C   UNL     1     -45.661  58.103 -58.259  1.00  0.00     0.186 C 
BRANCH  14  15
HETATM   15  C   UNL     1     -46.383  57.566 -59.443  1.00  0.00     0.070 A 
HETATM   16  O   UNL     1     -47.073  58.451 -60.223  1.00  0.00    -0.325 OA
HETATM   17  C   UNL     1     -47.635  57.737 -61.232  1.00  0.00     0.142 A 
HETATM   18  C   UNL     1     -47.319  56.405 -61.114  1.00  0.00     0.027 A 
HETATM   19  C   UNL     1     -46.510  56.290 -59.958  1.00  0.00     0.036 A 
ENDBRANCH  14  15
ENDBRANCH  10  14
ENDBRANCH   7   9
ENDBRANCH   5   7
BRANCH   1  20
HETATM   20  C   UNL     1     -41.240  53.890 -53.126  1.00  0.00    -0.005 A 
HETATM   21  C   UNL     1     -41.455  54.157 -51.765  1.00  0.00     0.050 A 
HETATM   22  C   UNL     1     -40.864  53.383 -50.759  1.00  0.00     0.069 A 
HETATM   23  C   UNL     1     -40.060  52.304 -51.113  1.00  0.00     0.037 A 
HETATM   24  C   UNL     1     -39.840  52.015 -52.461  1.00  0.00     0.004 A 
HETATM   25  C   UNL     1     -40.421  52.803 -53.460  1.00  0.00     0.014 A 
BRANCH  22  26
HETATM   26  O   UNL     1     -41.158  53.785 -49.485  1.00  0.00    -0.356 OA
HETATM   27  C   UNL     1     -40.057  54.010 -48.614  1.00  0.00     0.210 C 
ENDBRANCH  22  26
ENDBRANCH   1  20
TORSDOF 7
ENDMDL
MODEL 10
REMARK VINA RESULT:      -6.7     14.694     16.296
REMARK  7 active torsions:
REMARK  status: ('A' for Active; 'I' for Inactive)
REMARK    1  A    between atoms: O_2  and  C_3 
REMARK    2  A    between atoms: C_5  and  C_6 
REMARK    3  A    between atoms: C_10  and  N_11 
REMARK    4  A    between atoms: N_11  and  C_12 
REMARK    5  A    between atoms: C_12  and  S_13 
REMARK    6  A    between atoms: N_15  and  C_17 
REMARK    7  A    between atoms: C_17  and  C_18 
ROOT
HETATM    1  C   UNL     1     -34.962  41.081 -51.704  1.00  0.00     0.064 A 
HETATM    2  N   UNL     1     -34.715  42.424 -51.854  1.00  0.00    -0.276 N 
HETATM    3  H   UNL     1     -34.133  43.014 -51.270  1.00  0.00     0.189 HD
HETATM    4  N   UNL     1     -35.339  42.992 -52.905  1.00  0.00    -0.156 NA
HETATM    5  C   UNL     1     -35.984  41.976 -53.478  1.00  0.00     0.151 A 
HETATM    6  C   UNL     1     -35.773  40.770 -52.781  1.00  0.00     0.084 A 
ENDROOT
BRANCH   5   7
HETATM    7  N   UNL     1     -36.765  42.052 -54.570  1.00  0.00    -0.320 N 
HETATM    8  H   UNL     1     -37.768  42.141 -54.466  1.00  0.00     0.169 HD
BRANCH   7   9
HETATM    9  C   UNL     1     -36.381  42.009 -55.927  1.00  0.00     0.141 C 
HETATM   10  N   UNL     1     -37.287  42.205 -56.856  1.00  0.00    -0.365 N 
HETATM   11  H   UNL     1     -38.231  42.377 -56.494  1.00  0.00     0.162 HD
BRANCH   9  12
HETATM   12  S   UNL     1     -34.717  41.705 -56.248  1.00  0.00    -0.099 SA
HETATM   13  C   UNL     1     -34.772  39.911 -56.460  1.00  0.00     0.099 C 
ENDBRANCH   9  12
BRANCH  10  14
HETATM   14  C   UNL     1     -37.048  42.222 -58.295  1.00  0.00     0.186 C 
BRANCH  14  15
HETATM   15  C   UNL     1     -37.529  40.960 -58.918  1.00  0.00     0.070 A 
HETATM   16  O   UNL     1     -37.140  40.696 -60.202  1.00  0.00    -0.325 OA
HETATM   17  C   UNL     1     -37.689  39.503 -60.546  1.00  0.00     0.142 A 
HETATM   18  C   UNL     1     -38.427  38.993 -59.504  1.00  0.00     0.027 A 
HETATM   19  C   UNL     1     -38.326  39.933 -58.451  1.00  0.00     0.036 A 
ENDBRANCH  14  15
ENDBRANCH  10  14
ENDBRANCH   7   9
ENDBRANCH   5   7
BRANCH   1  20
HETATM   20  C   UNL     1     -34.447  40.245 -50.614  1.00  0.00    -0.005 A 
HETATM   21  C   UNL     1     -33.107  40.360 -50.213  1.00  0.00     0.050 A 
HETATM   22  C   UNL     1     -32.565  39.547 -49.210  1.00  0.00     0.069 A 
HETATM   23  C   UNL     1     -33.379  38.616 -48.573  1.00  0.00     0.037 A 
HETATM   24  C   UNL     1     -34.717  38.492 -48.950  1.00  0.00     0.004 A 
HETATM   25  C   UNL     1     -35.247  39.296 -49.964  1.00  0.00     0.014 A 
BRANCH  22  26
HETATM   26  O   UNL     1     -31.240  39.771 -48.950  1.00  0.00    -0.356 OA
HETATM   27  C   UNL     1     -30.823  39.647 -47.596  1.00  0.00     0.210 C 
ENDBRANCH  22  26
ENDBRANCH   1  20
TORSDOF 7
ENDMDL
