MODEL 1
REMARK VINA RESULT:      -8.1      0.000      0.000
REMARK  7 active torsions:
REMARK  status: ('A' for Active; 'I' for Inactive)
REMARK    1  A    between atoms: C_3  and  C_4 
REMARK       I    between atoms: C_4  and  N_5 
REMARK    2  A    between atoms: N_5  and  C_6 
REMARK    3  A    between atoms: C_6  and  C_7 
REMARK    4  A    between atoms: C_13  and  N_14 
REMARK    5  A    between atoms: N_14  and  C_15 
REMARK    6  A    between atoms: C_15  and  N_16 
REMARK       I    between atoms: N_16  and  C_17 
REMARK    7  A    between atoms: C_17  and  C_18 
ROOT
HETATM    1  C   UNL     1     -43.950  57.250 -60.167  1.00  0.00     0.001 A 
HETATM    2  C   UNL     1     -43.534  58.364 -59.440  1.00  0.00     0.019 A 
HETATM    3  C   UNL     1     -42.889  58.213 -58.198  1.00  0.00     0.058 A 
HETATM    4  C   UNL     1     -42.668  56.925 -57.671  1.00  0.00     0.050 A 
HETATM    5  C   UNL     1     -43.102  55.818 -58.417  1.00  0.00     0.030 A 
HETATM    6  C   UNL     1     -43.730  55.979 -59.656  1.00  0.00     0.002 A 
ENDROOT
BRANCH   4   7
HETATM    7  N   UNL     1     -42.154  56.753 -56.359  1.00  0.00    -0.332 N 
HETATM    8  H   UNL     1     -41.140  56.861 -56.267  1.00  0.00     0.168 HD
BRANCH   7   9
HETATM    9  C   UNL     1     -42.813  56.482 -55.186  1.00  0.00     0.179 C 
HETATM   10  S   UNL     1     -44.191  57.221 -54.589  1.00  0.00    -0.040 SA
BRANCH   9  11
HETATM   11  N   UNL     1     -42.282  55.464 -54.419  1.00  0.00    -0.299 N 
HETATM   12  C   UNL     1     -42.298  54.101 -54.674  1.00  0.00     0.257 C 
HETATM   13  O   UNL     1     -43.029  53.561 -55.496  1.00  0.00    -0.267 OA
HETATM   14  H   UNL     1     -41.658  55.818 -53.707  1.00  0.00     0.171 HD
BRANCH  12  15
HETATM   15  C   UNL     1     -41.339  53.283 -53.885  1.00  0.00     0.035 A 
HETATM   16  C   UNL     1     -40.784  52.099 -54.384  1.00  0.00     0.041 A 
HETATM   17  C   UNL     1     -39.926  51.350 -53.576  1.00  0.00     0.036 A 
HETATM   18 CL   UNL     1     -39.256  49.886 -54.184  1.00  0.00    -0.084 Cl
HETATM   19  C   UNL     1     -39.611  51.770 -52.286  1.00  0.00     0.047 A 
HETATM   20  C   UNL     1     -40.150  52.960 -51.806  1.00  0.00     0.036 A 
HETATM   21 CL   UNL     1     -39.766  53.485 -50.214  1.00  0.00    -0.084 Cl
HETATM   22  C   UNL     1     -41.007  53.723 -52.597  1.00  0.00     0.041 A 
ENDBRANCH  12  15
ENDBRANCH   9  11
ENDBRANCH   7   9
ENDBRANCH   4   7
BRANCH   3  23
HETATM   23  C   UNL     1     -42.414  59.476 -57.564  1.00  0.00     0.254 C 
HETATM   24  N   UNL     1     -43.228  60.029 -56.602  1.00  0.00    -0.351 N 
HETATM   25  H   UNL     1     -44.021  59.497 -56.259  1.00  0.00     0.163 HD
HETATM   26  O   UNL     1     -41.311  59.933 -57.846  1.00  0.00    -0.268 OA
BRANCH  24  27
HETATM   27  C   UNL     1     -42.709  61.050 -55.722  1.00  0.00     0.187 C 
BRANCH  27  28
HETATM   28  C   UNL     1     -42.309  60.458 -54.422  1.00  0.00     0.070 A 
HETATM   29  O   UNL     1     -41.244  59.598 -54.413  1.00  0.00    -0.325 OA
HETATM   30  C   UNL     1     -41.061  59.211 -53.125  1.00  0.00     0.142 A 
HETATM   31  C   UNL     1     -41.985  59.811 -52.302  1.00  0.00     0.027 A 
HETATM   32  C   UNL     1     -42.790  60.619 -53.139  1.00  0.00     0.036 A 
ENDBRANCH  27  28
ENDBRANCH  24  27
ENDBRANCH   3  23
TORSDOF 7
ENDMDL
MODEL 2
REMARK VINA RESULT:      -8.1      0.955      1.910
REMARK  7 active torsions:
REMARK  status: ('A' for Active; 'I' for Inactive)
REMARK    1  A    between atoms: C_3  and  C_4 
REMARK       I    between atoms: C_4  and  N_5 
REMARK    2  A    between atoms: N_5  and  C_6 
REMARK    3  A    between atoms: C_6  and  C_7 
REMARK    4  A    between atoms: C_13  and  N_14 
REMARK    5  A    between atoms: N_14  and  C_15 
REMARK    6  A    between atoms: C_15  and  N_16 
REMARK       I    between atoms: N_16  and  C_17 
REMARK    7  A    between atoms: C_17  and  C_18 
ROOT
HETATM    1  C   UNL     1     -44.300  56.753 -60.356  1.00  0.00     0.001 A 
HETATM    2  C   UNL     1     -43.869  57.920 -59.730  1.00  0.00     0.019 A 
HETATM    3  C   UNL     1     -43.150  57.865 -58.521  1.00  0.00     0.058 A 
HETATM    4  C   UNL     1     -42.869  56.620 -57.924  1.00  0.00     0.050 A 
HETATM    5  C   UNL     1     -43.319  55.457 -58.569  1.00  0.00     0.030 A 
HETATM    6  C   UNL     1     -44.021  55.523 -59.776  1.00  0.00     0.002 A 
ENDROOT
BRANCH   4   7
HETATM    7  N   UNL     1     -42.277  56.546 -56.636  1.00  0.00    -0.332 N 
HETATM    8  H   UNL     1     -41.329  56.928 -56.566  1.00  0.00     0.168 HD
BRANCH   7   9
HETATM    9  C   UNL     1     -42.788  56.055 -55.461  1.00  0.00     0.179 C 
HETATM   10  S   UNL     1     -44.108  56.622 -54.601  1.00  0.00    -0.040 SA
BRANCH   9  11
HETATM   11  N   UNL     1     -42.144  54.952 -54.939  1.00  0.00    -0.299 N 
HETATM   12  C   UNL     1     -40.840  54.859 -54.477  1.00  0.00     0.257 C 
HETATM   13  O   UNL     1     -39.964  55.684 -54.711  1.00  0.00    -0.267 OA
HETATM   14  H   UNL     1     -42.793  54.212 -54.710  1.00  0.00     0.171 HD
BRANCH  12  15
HETATM   15  C   UNL     1     -40.532  53.674 -53.634  1.00  0.00     0.035 A 
HETATM   16  C   UNL     1     -40.597  53.716 -52.237  1.00  0.00     0.041 A 
HETATM   17  C   UNL     1     -40.251  52.582 -51.500  1.00  0.00     0.036 A 
HETATM   18 CL   UNL     1     -40.315  52.639 -49.781  1.00  0.00    -0.084 Cl
HETATM   19  C   UNL     1     -39.850  51.410 -52.136  1.00  0.00     0.047 A 
HETATM   20  C   UNL     1     -39.810  51.370 -53.527  1.00  0.00     0.036 A 
HETATM   21 CL   UNL     1     -39.316  49.926 -54.321  1.00  0.00    -0.084 Cl
HETATM   22  C   UNL     1     -40.154  52.490 -54.281  1.00  0.00     0.041 A 
ENDBRANCH  12  15
ENDBRANCH   9  11
ENDBRANCH   7   9
ENDBRANCH   4   7
BRANCH   3  23
HETATM   23  C   UNL     1     -42.670  59.177 -57.999  1.00  0.00     0.254 C 
HETATM   24  N   UNL     1     -43.351  59.704 -56.926  1.00  0.00    -0.351 N 
HETATM   25  H   UNL     1     -44.037  59.130 -56.445  1.00  0.00     0.163 HD
HETATM   26  O   UNL     1     -41.664  59.699 -58.470  1.00  0.00    -0.268 OA
BRANCH  24  27
HETATM   27  C   UNL     1     -42.770  60.785 -56.166  1.00  0.00     0.187 C 
BRANCH  27  28
HETATM   28  C   UNL     1     -42.286  60.291 -54.853  1.00  0.00     0.070 A 
HETATM   29  O   UNL     1     -41.388  59.258 -54.852  1.00  0.00    -0.325 OA
HETATM   30  C   UNL     1     -41.083  59.002 -53.554  1.00  0.00     0.142 A 
HETATM   31  C   UNL     1     -41.763  59.858 -52.719  1.00  0.00     0.027 A 
HETATM   32  C   UNL     1     -42.538  60.692 -53.557  1.00  0.00     0.036 A 
ENDBRANCH  27  28
ENDBRANCH  24  27
ENDBRANCH   3  23
TORSDOF 7
ENDMDL
MODEL 3
REMARK VINA RESULT:      -8.0      3.668      5.729
REMARK  7 active torsions:
REMARK  status: ('A' for Active; 'I' for Inactive)
REMARK    1  A    between atoms: C_3  and  C_4 
REMARK       I    between atoms: C_4  and  N_5 
REMARK    2  A    between atoms: N_5  and  C_6 
REMARK    3  A    between atoms: C_6  and  C_7 
REMARK    4  A    between atoms: C_13  and  N_14 
REMARK    5  A    between atoms: N_14  and  C_15 
REMARK    6  A    between atoms: C_15  and  N_16 
REMARK       I    between atoms: N_16  and  C_17 
REMARK    7  A    between atoms: C_17  and  C_18 
ROOT
HETATM    1  C   UNL     1     -39.930  59.802 -50.245  1.00  0.00     0.001 A 
HETATM    2  C   UNL     1     -41.269  60.181 -50.272  1.00  0.00     0.019 A 
HETATM    3  C   UNL     1     -42.115  59.764 -51.317  1.00  0.00     0.058 A 
HETATM    4  C   UNL     1     -41.605  58.963 -52.359  1.00  0.00     0.050 A 
HETATM    5  C   UNL     1     -40.250  58.598 -52.314  1.00  0.00     0.030 A 
HETATM    6  C   UNL     1     -39.423  59.008 -51.264  1.00  0.00     0.002 A 
ENDROOT
BRANCH   4   7
HETATM    7  N   UNL     1     -42.398  58.653 -53.495  1.00  0.00    -0.332 N 
HETATM    8  H   UNL     1     -42.311  59.303 -54.282  1.00  0.00     0.168 HD
BRANCH   7   9
HETATM    9  C   UNL     1     -43.254  57.602 -53.708  1.00  0.00     0.179 C 
HETATM   10  S   UNL     1     -44.841  57.662 -54.236  1.00  0.00    -0.040 SA
BRANCH   9  11
HETATM   11  N   UNL     1     -42.732  56.345 -53.475  1.00  0.00    -0.299 N 
HETATM   12  C   UNL     1     -41.749  55.678 -54.190  1.00  0.00     0.257 C 
HETATM   13  O   UNL     1     -41.377  55.998 -55.313  1.00  0.00    -0.267 OA
HETATM   14  H   UNL     1     -42.989  55.996 -52.561  1.00  0.00     0.171 HD
BRANCH  12  15
HETATM   15  C   UNL     1     -41.125  54.516 -53.506  1.00  0.00     0.035 A 
HETATM   16  C   UNL     1     -40.780  53.345 -54.191  1.00  0.00     0.041 A 
HETATM   17  C   UNL     1     -40.240  52.270 -53.484  1.00  0.00     0.036 A 
HETATM   18 CL   UNL     1     -39.831  50.825 -54.324  1.00  0.00    -0.084 Cl
HETATM   19  C   UNL     1     -40.034  52.350 -52.109  1.00  0.00     0.047 A 
HETATM   20  C   UNL     1     -40.359  53.527 -51.438  1.00  0.00     0.036 A 
HETATM   21 CL   UNL     1     -40.107  53.634 -49.740  1.00  0.00    -0.084 Cl
HETATM   22  C   UNL     1     -40.897  54.612 -52.127  1.00  0.00     0.041 A 
ENDBRANCH  12  15
ENDBRANCH   9  11
ENDBRANCH   7   9
ENDBRANCH   4   7
BRANCH   3  23
HETATM   23  C   UNL     1     -43.546  60.162 -51.184  1.00  0.00     0.254 C 
HETATM   24  N   UNL     1     -44.124  59.987 -49.947  1.00  0.00    -0.351 N 
HETATM   25  H   UNL     1     -43.536  59.745 -49.156  1.00  0.00     0.163 HD
HETATM   26  O   UNL     1     -44.130  60.693 -52.123  1.00  0.00    -0.268 OA
BRANCH  24  27
HETATM   27  C   UNL     1     -45.380  60.632 -49.643  1.00  0.00     0.187 C 
BRANCH  27  28
HETATM   28  C   UNL     1     -45.496  60.874 -48.184  1.00  0.00     0.070 A 
HETATM   29  O   UNL     1     -46.206  59.970 -47.442  1.00  0.00    -0.325 OA
HETATM   30  C   UNL     1     -46.151  60.390 -46.152  1.00  0.00     0.142 A 
HETATM   31  C   UNL     1     -45.412  61.546 -46.049  1.00  0.00     0.027 A 
HETATM   32  C   UNL     1     -44.986  61.858 -47.361  1.00  0.00     0.036 A 
ENDBRANCH  27  28
ENDBRANCH  24  27
ENDBRANCH   3  23
TORSDOF 7
ENDMDL
MODEL 4
REMARK VINA RESULT:      -7.9      2.927      5.485
REMARK  7 active torsions:
REMARK  status: ('A' for Active; 'I' for Inactive)
REMARK    1  A    between atoms: C_3  and  C_4 
REMARK       I    between atoms: C_4  and  N_5 
REMARK    2  A    between atoms: N_5  and  C_6 
REMARK    3  A    between atoms: C_6  and  C_7 
REMARK    4  A    between atoms: C_13  and  N_14 
REMARK    5  A    between atoms: N_14  and  C_15 
REMARK    6  A    between atoms: C_15  and  N_16 
REMARK       I    between atoms: N_16  and  C_17 
REMARK    7  A    between atoms: C_17  and  C_18 
ROOT
HETATM    1  C   UNL     1     -42.254  59.347 -59.365  1.00  0.00     0.001 A 
HETATM    2  C   UNL     1     -43.057  58.336 -59.888  1.00  0.00     0.019 A 
HETATM    3  C   UNL     1     -43.444  57.240 -59.093  1.00  0.00     0.058 A 
HETATM    4  C   UNL     1     -43.006  57.151 -57.756  1.00  0.00     0.050 A 
HETATM    5  C   UNL     1     -42.192  58.177 -57.253  1.00  0.00     0.030 A 
HETATM    6  C   UNL     1     -41.825  59.268 -58.048  1.00  0.00     0.002 A 
ENDROOT
BRANCH   4   7
HETATM    7  N   UNL     1     -43.261  55.988 -56.983  1.00  0.00    -0.332 N 
HETATM    8  H   UNL     1     -43.402  55.126 -57.519  1.00  0.00     0.168 HD
BRANCH   7   9
HETATM    9  C   UNL     1     -43.328  55.836 -55.621  1.00  0.00     0.179 C 
HETATM   10  S   UNL     1     -44.242  56.723 -54.535  1.00  0.00    -0.040 SA
BRANCH   9  11
HETATM   11  N   UNL     1     -42.562  54.818 -55.089  1.00  0.00    -0.299 N 
HETATM   12  C   UNL     1     -41.232  54.858 -54.703  1.00  0.00     0.257 C 
HETATM   13  O   UNL     1     -40.445  55.741 -55.026  1.00  0.00    -0.267 OA
HETATM   14  H   UNL     1     -43.132  54.038 -54.790  1.00  0.00     0.171 HD
BRANCH  12  15
HETATM   15  C   UNL     1     -40.776  53.745 -53.828  1.00  0.00     0.035 A 
HETATM   16  C   UNL     1     -40.717  53.869 -52.435  1.00  0.00     0.041 A 
HETATM   17  C   UNL     1     -40.236  52.804 -51.672  1.00  0.00     0.036 A 
HETATM   18 CL   UNL     1     -40.147  52.962 -49.961  1.00  0.00    -0.084 Cl
HETATM   19  C   UNL     1     -39.822  51.620 -52.277  1.00  0.00     0.047 A 
HETATM   20  C   UNL     1     -39.905  51.497 -53.662  1.00  0.00     0.036 A 
HETATM   21 CL   UNL     1     -39.395  50.038 -54.417  1.00  0.00    -0.084 Cl
HETATM   22  C   UNL     1     -40.385  52.548 -54.441  1.00  0.00     0.041 A 
ENDBRANCH  12  15
ENDBRANCH   9  11
ENDBRANCH   7   9
ENDBRANCH   4   7
BRANCH   3  23
HETATM   23  C   UNL     1     -44.376  56.274 -59.741  1.00  0.00     0.254 C 
HETATM   24  N   UNL     1     -45.717  56.432 -59.472  1.00  0.00    -0.351 N 
HETATM   25  H   UNL     1     -46.028  57.264 -58.982  1.00  0.00     0.163 HD
HETATM   26  O   UNL     1     -43.950  55.441 -60.535  1.00  0.00    -0.268 OA
BRANCH  24  27
HETATM   27  C   UNL     1     -46.698  55.763 -60.293  1.00  0.00     0.187 C 
BRANCH  27  28
HETATM   28  C   UNL     1     -47.401  56.742 -61.158  1.00  0.00     0.070 A 
HETATM   29  O   UNL     1     -48.060  56.264 -62.258  1.00  0.00    -0.325 OA
HETATM   30  C   UNL     1     -48.634  57.332 -62.869  1.00  0.00     0.142 A 
HETATM   31  C   UNL     1     -48.362  58.489 -62.178  1.00  0.00     0.027 A 
HETATM   32  C   UNL     1     -47.568  58.110 -61.071  1.00  0.00     0.036 A 
ENDBRANCH  27  28
ENDBRANCH  24  27
ENDBRANCH   3  23
TORSDOF 7
ENDMDL
MODEL 5
REMARK VINA RESULT:      -7.8      2.298      3.943
REMARK  7 active torsions:
REMARK  status: ('A' for Active; 'I' for Inactive)
REMARK    1  A    between atoms: C_3  and  C_4 
REMARK       I    between atoms: C_4  and  N_5 
REMARK    2  A    between atoms: N_5  and  C_6 
REMARK    3  A    between atoms: C_6  and  C_7 
REMARK    4  A    between atoms: C_13  and  N_14 
REMARK    5  A    between atoms: N_14  and  C_15 
REMARK    6  A    between atoms: C_15  and  N_16 
REMARK       I    between atoms: N_16  and  C_17 
REMARK    7  A    between atoms: C_17  and  C_18 
ROOT
HETATM    1  C   UNL     1     -43.935  56.948 -60.340  1.00  0.00     0.001 A 
HETATM    2  C   UNL     1     -43.333  58.094 -59.827  1.00  0.00     0.019 A 
HETATM    3  C   UNL     1     -42.663  58.062 -58.589  1.00  0.00     0.058 A 
HETATM    4  C   UNL     1     -42.607  56.865 -57.848  1.00  0.00     0.050 A 
HETATM    5  C   UNL     1     -43.227  55.724 -58.381  1.00  0.00     0.030 A 
HETATM    6  C   UNL     1     -43.879  55.763 -59.618  1.00  0.00     0.002 A 
ENDROOT
BRANCH   4   7
HETATM    7  N   UNL     1     -42.068  56.845 -56.535  1.00  0.00    -0.332 N 
HETATM    8  H   UNL     1     -41.050  56.944 -56.477  1.00  0.00     0.168 HD
BRANCH   7   9
HETATM    9  C   UNL     1     -42.705  56.730 -55.325  1.00  0.00     0.179 C 
HETATM   10  S   UNL     1     -43.978  57.649 -54.745  1.00  0.00    -0.040 SA
BRANCH   9  11
HETATM   11  N   UNL     1     -42.250  55.722 -54.499  1.00  0.00    -0.299 N 
HETATM   12  C   UNL     1     -42.359  54.351 -54.678  1.00  0.00     0.257 C 
HETATM   13  O   UNL     1     -43.122  53.818 -55.476  1.00  0.00    -0.267 OA
HETATM   14  H   UNL     1     -41.606  56.071 -53.802  1.00  0.00     0.171 HD
BRANCH  12  15
HETATM   15  C   UNL     1     -41.464  53.514 -53.837  1.00  0.00     0.035 A 
HETATM   16  C   UNL     1     -41.096  53.887 -52.540  1.00  0.00     0.041 A 
HETATM   17  C   UNL     1     -40.215  53.081 -51.818  1.00  0.00     0.036 A 
HETATM   18 CL   UNL     1     -39.750  53.548 -50.228  1.00  0.00    -0.084 Cl
HETATM   19  C   UNL     1     -39.703  51.909 -52.369  1.00  0.00     0.047 A 
HETATM   20  C   UNL     1     -40.091  51.533 -53.653  1.00  0.00     0.036 A 
HETATM   21 CL   UNL     1     -39.464  50.087 -54.340  1.00  0.00    -0.084 Cl
HETATM   22  C   UNL     1     -40.972  52.323 -54.388  1.00  0.00     0.041 A 
ENDBRANCH  12  15
ENDBRANCH   9  11
ENDBRANCH   7   9
ENDBRANCH   4   7
BRANCH   3  23
HETATM   23  C   UNL     1     -41.984  59.330 -58.194  1.00  0.00     0.254 C 
HETATM   24  N   UNL     1     -41.719  60.230 -59.201  1.00  0.00    -0.351 N 
HETATM   25  H   UNL     1     -42.118  60.074 -60.121  1.00  0.00     0.163 HD
HETATM   26  O   UNL     1     -41.759  59.568 -57.011  1.00  0.00    -0.268 OA
BRANCH  24  27
HETATM   27  C   UNL     1     -41.369  61.592 -58.873  1.00  0.00     0.187 C 
BRANCH  27  28
HETATM   28  C   UNL     1     -40.685  62.239 -60.019  1.00  0.00     0.070 A 
HETATM   29  O   UNL     1     -39.592  63.018 -59.754  1.00  0.00    -0.325 OA
HETATM   30  C   UNL     1     -39.134  63.476 -60.947  1.00  0.00     0.142 A 
HETATM   31  C   UNL     1     -39.908  62.999 -61.978  1.00  0.00     0.027 A 
HETATM   32  C   UNL     1     -40.909  62.198 -61.381  1.00  0.00     0.036 A 
ENDBRANCH  27  28
ENDBRANCH  24  27
ENDBRANCH   3  23
TORSDOF 7
ENDMDL
MODEL 6
REMARK VINA RESULT:      -7.7      2.890      5.459
REMARK  7 active torsions:
REMARK  status: ('A' for Active; 'I' for Inactive)
REMARK    1  A    between atoms: C_3  and  C_4 
REMARK       I    between atoms: C_4  and  N_5 
REMARK    2  A    between atoms: N_5  and  C_6 
REMARK    3  A    between atoms: C_6  and  C_7 
REMARK    4  A    between atoms: C_13  and  N_14 
REMARK    5  A    between atoms: N_14  and  C_15 
REMARK    6  A    between atoms: C_15  and  N_16 
REMARK       I    between atoms: N_16  and  C_17 
REMARK    7  A    between atoms: C_17  and  C_18 
ROOT
HETATM    1  C   UNL     1     -45.731  60.739 -52.732  1.00  0.00     0.001 A 
HETATM    2  C   UNL     1     -45.313  59.546 -53.318  1.00  0.00     0.019 A 
HETATM    3  C   UNL     1     -44.448  58.672 -52.633  1.00  0.00     0.058 A 
HETATM    4  C   UNL     1     -43.984  59.005 -51.345  1.00  0.00     0.050 A 
HETATM    5  C   UNL     1     -44.413  60.215 -50.776  1.00  0.00     0.030 A 
HETATM    6  C   UNL     1     -45.283  61.070 -51.461  1.00  0.00     0.002 A 
ENDROOT
BRANCH   4   7
HETATM    7  N   UNL     1     -43.000  58.213 -50.697  1.00  0.00    -0.332 N 
HETATM    8  H   UNL     1     -43.358  57.541 -50.012  1.00  0.00     0.168 HD
BRANCH   7   9
HETATM    9  C   UNL     1     -41.638  58.198 -50.862  1.00  0.00     0.179 C 
HETATM   10  S   UNL     1     -40.560  59.454 -50.608  1.00  0.00    -0.040 SA
BRANCH   9  11
HETATM   11  N   UNL     1     -41.094  56.996 -51.268  1.00  0.00    -0.299 N 
HETATM   12  C   UNL     1     -41.243  55.747 -50.684  1.00  0.00     0.257 C 
HETATM   13  O   UNL     1     -41.668  55.562 -49.549  1.00  0.00    -0.267 OA
HETATM   14  H   UNL     1     -40.716  57.052 -52.204  1.00  0.00     0.171 HD
BRANCH  12  15
HETATM   15  C   UNL     1     -40.864  54.586 -51.531  1.00  0.00     0.035 A 
HETATM   16  C   UNL     1     -40.519  53.345 -50.983  1.00  0.00     0.041 A 
HETATM   17  C   UNL     1     -40.126  52.307 -51.829  1.00  0.00     0.036 A 
HETATM   18 CL   UNL     1     -39.687  50.786 -51.155  1.00  0.00    -0.084 Cl
HETATM   19  C   UNL     1     -40.080  52.488 -53.210  1.00  0.00     0.047 A 
HETATM   20  C   UNL     1     -40.446  53.719 -53.748  1.00  0.00     0.036 A 
HETATM   21 CL   UNL     1     -40.392  53.950 -55.452  1.00  0.00    -0.084 Cl
HETATM   22  C   UNL     1     -40.843  54.767 -52.920  1.00  0.00     0.041 A 
ENDBRANCH  12  15
ENDBRANCH   9  11
ENDBRANCH   7   9
ENDBRANCH   4   7
BRANCH   3  23
HETATM   23  C   UNL     1     -44.147  57.389 -53.331  1.00  0.00     0.254 C 
HETATM   24  N   UNL     1     -44.001  57.448 -54.699  1.00  0.00    -0.351 N 
HETATM   25  H   UNL     1     -43.952  58.354 -55.152  1.00  0.00     0.163 HD
HETATM   26  O   UNL     1     -43.963  56.362 -52.686  1.00  0.00    -0.268 OA
BRANCH  24  27
HETATM   27  C   UNL     1     -43.401  56.341 -55.405  1.00  0.00     0.187 C 
BRANCH  27  28
HETATM   28  C   UNL     1     -43.006  56.755 -56.774  1.00  0.00     0.070 A 
HETATM   29  O   UNL     1     -42.448  57.995 -56.930  1.00  0.00    -0.325 OA
HETATM   30  C   UNL     1     -42.156  58.133 -58.248  1.00  0.00     0.142 A 
HETATM   31  C   UNL     1     -42.510  57.001 -58.944  1.00  0.00     0.027 A 
HETATM   32  C   UNL     1     -43.057  56.109 -57.993  1.00  0.00     0.036 A 
ENDBRANCH  27  28
ENDBRANCH  24  27
ENDBRANCH   3  23
TORSDOF 7
ENDMDL
MODEL 7
REMARK VINA RESULT:      -7.6      3.452      8.086
REMARK  7 active torsions:
REMARK  status: ('A' for Active; 'I' for Inactive)
REMARK    1  A    between atoms: C_3  and  C_4 
REMARK       I    between atoms: C_4  and  N_5 
REMARK    2  A    between atoms: N_5  and  C_6 
REMARK    3  A    between atoms: C_6  and  C_7 
REMARK    4  A    between atoms: C_13  and  N_14 
REMARK    5  A    between atoms: N_14  and  C_15 
REMARK    6  A    between atoms: C_15  and  N_16 
REMARK       I    between atoms: N_16  and  C_17 
REMARK    7  A    between atoms: C_17  and  C_18 
ROOT
HETATM    1  C   UNL     1     -40.958  55.618 -49.778  1.00  0.00     0.001 A 
HETATM    2  C   UNL     1     -41.121  54.848 -50.927  1.00  0.00     0.019 A 
HETATM    3  C   UNL     1     -41.365  55.455 -52.173  1.00  0.00     0.058 A 
HETATM    4  C   UNL     1     -41.460  56.858 -52.267  1.00  0.00     0.050 A 
HETATM    5  C   UNL     1     -41.299  57.614 -51.095  1.00  0.00     0.030 A 
HETATM    6  C   UNL     1     -41.044  57.001 -49.865  1.00  0.00     0.002 A 
ENDROOT
BRANCH   4   7
HETATM    7  N   UNL     1     -41.850  57.482 -53.480  1.00  0.00    -0.332 N 
HETATM    8  H   UNL     1     -41.086  57.701 -54.127  1.00  0.00     0.168 HD
BRANCH   7   9
HETATM    9  C   UNL     1     -43.101  57.824 -53.930  1.00  0.00     0.179 C 
HETATM   10  S   UNL     1     -44.440  58.241 -53.017  1.00  0.00    -0.040 SA
BRANCH   9  11
HETATM   11  N   UNL     1     -43.264  57.841 -55.301  1.00  0.00    -0.299 N 
HETATM   12  C   UNL     1     -42.508  58.519 -56.245  1.00  0.00     0.257 C 
HETATM   13  O   UNL     1     -41.735  59.433 -55.983  1.00  0.00    -0.267 OA
HETATM   14  H   UNL     1     -43.891  57.112 -55.613  1.00  0.00     0.171 HD
BRANCH  12  15
HETATM   15  C   UNL     1     -42.669  58.066 -57.652  1.00  0.00     0.035 A 
HETATM   16  C   UNL     1     -43.230  56.825 -57.975  1.00  0.00     0.041 A 
HETATM   17  C   UNL     1     -43.310  56.436 -59.313  1.00  0.00     0.036 A 
HETATM   18 CL   UNL     1     -43.985  54.904 -59.710  1.00  0.00    -0.084 Cl
HETATM   19  C   UNL     1     -42.846  57.269 -60.329  1.00  0.00     0.047 A 
HETATM   20  C   UNL     1     -42.309  58.511 -60.000  1.00  0.00     0.036 A 
HETATM   21 CL   UNL     1     -41.734  59.545 -61.248  1.00  0.00    -0.084 Cl
HETATM   22  C   UNL     1     -42.223  58.918 -58.670  1.00  0.00     0.041 A 
ENDBRANCH  12  15
ENDBRANCH   9  11
ENDBRANCH   7   9
ENDBRANCH   4   7
BRANCH   3  23
HETATM   23  C   UNL     1     -41.432  54.526 -53.338  1.00  0.00     0.254 C 
HETATM   24  N   UNL     1     -40.279  53.843 -53.651  1.00  0.00    -0.351 N 
HETATM   25  H   UNL     1     -39.494  53.876 -53.008  1.00  0.00     0.163 HD
HETATM   26  O   UNL     1     -42.496  54.338 -53.919  1.00  0.00    -0.268 OA
BRANCH  24  27
HETATM   27  C   UNL     1     -40.336  52.705 -54.538  1.00  0.00     0.187 C 
BRANCH  27  28
HETATM   28  C   UNL     1     -39.972  51.464 -53.811  1.00  0.00     0.070 A 
HETATM   29  O   UNL     1     -39.783  51.549 -52.458  1.00  0.00    -0.325 OA
HETATM   30  C   UNL     1     -39.484  50.299 -52.022  1.00  0.00     0.142 A 
HETATM   31  C   UNL     1     -39.485  49.408 -53.070  1.00  0.00     0.027 A 
HETATM   32  C   UNL     1     -39.802  50.159 -54.226  1.00  0.00     0.036 A 
ENDBRANCH  27  28
ENDBRANCH  24  27
ENDBRANCH   3  23
TORSDOF 7
ENDMDL
MODEL 8
REMARK VINA RESULT:      -7.6      3.570      7.246
REMARK  7 active torsions:
REMARK  status: ('A' for Active; 'I' for Inactive)
REMARK    1  A    between atoms: C_3  and  C_4 
REMARK       I    between atoms: C_4  and  N_5 
REMARK    2  A    between atoms: N_5  and  C_6 
REMARK    3  A    between atoms: C_6  and  C_7 
REMARK    4  A    between atoms: C_13  and  N_14 
REMARK    5  A    between atoms: N_14  and  C_15 
REMARK    6  A    between atoms: C_15  and  N_16 
REMARK       I    between atoms: N_16  and  C_17 
REMARK    7  A    between atoms: C_17  and  C_18 
ROOT
HETATM    1  C   UNL     1     -40.205  52.386 -54.350  1.00  0.00     0.001 A 
HETATM    2  C   UNL     1     -41.132  53.370 -54.683  1.00  0.00     0.019 A 
HETATM    3  C   UNL     1     -41.802  54.098 -53.681  1.00  0.00     0.058 A 
HETATM    4  C   UNL     1     -41.546  53.825 -52.322  1.00  0.00     0.050 A 
HETATM    5  C   UNL     1     -40.612  52.825 -52.009  1.00  0.00     0.030 A 
HETATM    6  C   UNL     1     -39.944  52.117 -53.013  1.00  0.00     0.002 A 
ENDROOT
BRANCH   4   7
HETATM    7  N   UNL     1     -42.313  54.441 -51.299  1.00  0.00    -0.332 N 
HETATM    8  H   UNL     1     -43.304  54.184 -51.278  1.00  0.00     0.168 HD
BRANCH   7   9
HETATM    9  C   UNL     1     -41.925  55.318 -50.317  1.00  0.00     0.179 C 
HETATM   10  S   UNL     1     -41.099  54.973 -48.903  1.00  0.00    -0.040 SA
BRANCH   9  11
HETATM   11  N   UNL     1     -42.239  56.644 -50.536  1.00  0.00    -0.299 N 
HETATM   12  C   UNL     1     -41.746  57.491 -51.517  1.00  0.00     0.257 C 
HETATM   13  O   UNL     1     -40.742  57.265 -52.184  1.00  0.00    -0.267 OA
HETATM   14  H   UNL     1     -43.064  56.923 -50.023  1.00  0.00     0.171 HD
BRANCH  12  15
HETATM   15  C   UNL     1     -42.525  58.735 -51.751  1.00  0.00     0.035 A 
HETATM   16  C   UNL     1     -42.360  59.877 -50.959  1.00  0.00     0.041 A 
HETATM   17  C   UNL     1     -43.155  60.999 -51.200  1.00  0.00     0.036 A 
HETATM   18 CL   UNL     1     -42.964  62.398 -50.216  1.00  0.00    -0.084 Cl
HETATM   19  C   UNL     1     -44.103  60.998 -52.220  1.00  0.00     0.047 A 
HETATM   20  C   UNL     1     -44.246  59.865 -53.017  1.00  0.00     0.036 A 
HETATM   21 CL   UNL     1     -45.414  59.857 -54.279  1.00  0.00    -0.084 Cl
HETATM   22  C   UNL     1     -43.460  58.737 -52.795  1.00  0.00     0.041 A 
ENDBRANCH  12  15
ENDBRANCH   9  11
ENDBRANCH   7   9
ENDBRANCH   4   7
BRANCH   3  23
HETATM   23  C   UNL     1     -42.702  55.183 -54.168  1.00  0.00     0.254 C 
HETATM   24  N   UNL     1     -42.257  55.920 -55.242  1.00  0.00    -0.351 N 
HETATM   25  H   UNL     1     -41.431  55.612 -55.745  1.00  0.00     0.163 HD
HETATM   26  O   UNL     1     -43.813  55.335 -53.670  1.00  0.00    -0.268 OA
BRANCH  24  27
HETATM   27  C   UNL     1     -43.181  56.756 -55.971  1.00  0.00     0.187 C 
BRANCH  27  28
HETATM   28  C   UNL     1     -42.968  56.610 -57.432  1.00  0.00     0.070 A 
HETATM   29  O   UNL     1     -42.388  57.654 -58.100  1.00  0.00    -0.325 OA
HETATM   30  C   UNL     1     -42.280  57.278 -59.400  1.00  0.00     0.142 A 
HETATM   31  C   UNL     1     -42.774  56.007 -59.581  1.00  0.00     0.027 A 
HETATM   32  C   UNL     1     -43.216  55.573 -58.309  1.00  0.00     0.036 A 
ENDBRANCH  27  28
ENDBRANCH  24  27
ENDBRANCH   3  23
TORSDOF 7
ENDMDL
MODEL 9
REMARK VINA RESULT:      -7.5      2.626      5.087
REMARK  7 active torsions:
REMARK  status: ('A' for Active; 'I' for Inactive)
REMARK    1  A    between atoms: C_3  and  C_4 
REMARK       I    between atoms: C_4  and  N_5 
REMARK    2  A    between atoms: N_5  and  C_6 
REMARK    3  A    between atoms: C_6  and  C_7 
REMARK    4  A    between atoms: C_13  and  N_14 
REMARK    5  A    between atoms: N_14  and  C_15 
REMARK    6  A    between atoms: C_15  and  N_16 
REMARK       I    between atoms: N_16  and  C_17 
REMARK    7  A    between atoms: C_17  and  C_18 
ROOT
HETATM    1  C   UNL     1     -42.342  59.697 -58.918  1.00  0.00     0.001 A 
HETATM    2  C   UNL     1     -43.151  58.649 -59.348  1.00  0.00     0.019 A 
HETATM    3  C   UNL     1     -43.551  57.635 -58.457  1.00  0.00     0.058 A 
HETATM    4  C   UNL     1     -43.122  57.667 -57.115  1.00  0.00     0.050 A 
HETATM    5  C   UNL     1     -42.302  58.729 -56.705  1.00  0.00     0.030 A 
HETATM    6  C   UNL     1     -41.921  59.738 -57.595  1.00  0.00     0.002 A 
ENDROOT
BRANCH   4   7
HETATM    7  N   UNL     1     -43.391  56.583 -56.239  1.00  0.00    -0.332 N 
HETATM    8  H   UNL     1     -43.510  55.672 -56.691  1.00  0.00     0.168 HD
BRANCH   7   9
HETATM    9  C   UNL     1     -43.498  56.566 -54.871  1.00  0.00     0.179 C 
HETATM   10  S   UNL     1     -44.323  57.646 -53.894  1.00  0.00    -0.040 SA
BRANCH   9  11
HETATM   11  N   UNL     1     -42.863  55.521 -54.230  1.00  0.00    -0.299 N 
HETATM   12  C   UNL     1     -42.634  54.238 -54.704  1.00  0.00     0.257 C 
HETATM   13  O   UNL     1     -43.204  53.747 -55.672  1.00  0.00    -0.267 OA
HETATM   14  H   UNL     1     -42.360  55.833 -53.411  1.00  0.00     0.171 HD
BRANCH  12  15
HETATM   15  C   UNL     1     -41.613  53.447 -53.967  1.00  0.00     0.035 A 
HETATM   16  C   UNL     1     -41.075  52.262 -54.481  1.00  0.00     0.041 A 
HETATM   17  C   UNL     1     -40.154  51.540 -53.720  1.00  0.00     0.036 A 
HETATM   18 CL   UNL     1     -39.504  50.075 -54.345  1.00  0.00    -0.084 Cl
HETATM   19  C   UNL     1     -39.761  51.987 -52.461  1.00  0.00     0.047 A 
HETATM   20  C   UNL     1     -40.285  53.178 -51.966  1.00  0.00     0.036 A 
HETATM   21 CL   UNL     1     -39.803  53.737 -50.412  1.00  0.00    -0.084 Cl
HETATM   22  C   UNL     1     -41.203  53.915 -52.711  1.00  0.00     0.041 A 
ENDBRANCH  12  15
ENDBRANCH   9  11
ENDBRANCH   7   9
ENDBRANCH   4   7
BRANCH   3  23
HETATM   23  C   UNL     1     -44.488  56.620 -59.019  1.00  0.00     0.254 C 
HETATM   24  N   UNL     1     -45.716  57.077 -59.441  1.00  0.00    -0.351 N 
HETATM   25  H   UNL     1     -45.878  58.078 -59.496  1.00  0.00     0.163 HD
HETATM   26  O   UNL     1     -44.126  55.456 -59.162  1.00  0.00    -0.268 OA
BRANCH  24  27
HETATM   27  C   UNL     1     -46.544  56.243 -60.279  1.00  0.00     0.187 C 
BRANCH  27  28
HETATM   28  C   UNL     1     -47.442  57.078 -61.113  1.00  0.00     0.070 A 
HETATM   29  O   UNL     1     -47.405  58.434 -60.930  1.00  0.00    -0.325 OA
HETATM   30  C   UNL     1     -48.285  58.976 -61.810  1.00  0.00     0.142 A 
HETATM   31  C   UNL     1     -48.885  57.993 -62.563  1.00  0.00     0.027 A 
HETATM   32  C   UNL     1     -48.339  56.767 -62.115  1.00  0.00     0.036 A 
ENDBRANCH  27  28
ENDBRANCH  24  27
ENDBRANCH   3  23
TORSDOF 7
ENDMDL
MODEL 10
REMARK VINA RESULT:      -7.4      2.007      3.525
REMARK  7 active torsions:
REMARK  status: ('A' for Active; 'I' for Inactive)
REMARK    1  A    between atoms: C_3  and  C_4 
REMARK       I    between atoms: C_4  and  N_5 
REMARK    2  A    between atoms: N_5  and  C_6 
REMARK    3  A    between atoms: C_6  and  C_7 
REMARK    4  A    between atoms: C_13  and  N_14 
REMARK    5  A    between atoms: N_14  and  C_15 
REMARK    6  A    between atoms: C_15  and  N_16 
REMARK       I    between atoms: N_16  and  C_17 
REMARK    7  A    between atoms: C_17  and  C_18 
ROOT
HETATM    1  C   UNL     1     -44.499  56.294 -60.245  1.00  0.00     0.001 A 
HETATM    2  C   UNL     1     -44.185  57.563 -59.765  1.00  0.00     0.019 A 
HETATM    3  C   UNL     1     -43.386  57.720 -58.616  1.00  0.00     0.058 A 
HETATM    4  C   UNL     1     -42.906  56.586 -57.931  1.00  0.00     0.050 A 
HETATM    5  C   UNL     1     -43.241  55.317 -58.430  1.00  0.00     0.030 A 
HETATM    6  C   UNL     1     -44.024  55.173 -59.579  1.00  0.00     0.002 A 
ENDROOT
BRANCH   4   7
HETATM    7  N   UNL     1     -42.225  56.717 -56.693  1.00  0.00    -0.332 N 
HETATM    8  H   UNL     1     -41.216  56.879 -56.761  1.00  0.00     0.168 HD
BRANCH   7   9
HETATM    9  C   UNL     1     -42.716  56.677 -55.412  1.00  0.00     0.179 C 
HETATM   10  S   UNL     1     -43.869  57.678 -54.725  1.00  0.00    -0.040 SA
BRANCH   9  11
HETATM   11  N   UNL     1     -42.209  55.680 -54.603  1.00  0.00    -0.299 N 
HETATM   12  C   UNL     1     -42.355  54.308 -54.741  1.00  0.00     0.257 C 
HETATM   13  O   UNL     1     -43.191  53.771 -55.459  1.00  0.00    -0.267 OA
HETATM   14  H   UNL     1     -41.503  56.032 -53.971  1.00  0.00     0.171 HD
BRANCH  12  15
HETATM   15  C   UNL     1     -41.405  53.473 -53.959  1.00  0.00     0.035 A 
HETATM   16  C   UNL     1     -40.898  52.264 -54.450  1.00  0.00     0.041 A 
HETATM   17  C   UNL     1     -40.047  51.502 -53.648  1.00  0.00     0.036 A 
HETATM   18 CL   UNL     1     -39.436  50.008 -54.245  1.00  0.00    -0.084 Cl
HETATM   19  C   UNL     1     -39.691  51.932 -52.372  1.00  0.00     0.047 A 
HETATM   20  C   UNL     1     -40.182  53.147 -51.901  1.00  0.00     0.036 A 
HETATM   21 CL   UNL     1     -39.747  53.685 -50.326  1.00  0.00    -0.084 Cl
HETATM   22  C   UNL     1     -41.031  53.923 -52.686  1.00  0.00     0.041 A 
ENDBRANCH  12  15
ENDBRANCH   9  11
ENDBRANCH   7   9
ENDBRANCH   4   7
BRANCH   3  23
HETATM   23  C   UNL     1     -43.049  59.128 -58.257  1.00  0.00     0.254 C 
HETATM   24  N   UNL     1     -41.813  59.587 -58.651  1.00  0.00    -0.351 N 
HETATM   25  H   UNL     1     -41.254  59.024 -59.284  1.00  0.00     0.163 HD
HETATM   26  O   UNL     1     -43.881  59.843 -57.709  1.00  0.00    -0.268 OA
BRANCH  24  27
HETATM   27  C   UNL     1     -41.534  61.004 -58.634  1.00  0.00     0.187 C 
BRANCH  27  28
HETATM   28  C   UNL     1     -41.747  61.588 -59.981  1.00  0.00     0.070 A 
HETATM   29  O   UNL     1     -42.067  62.916 -60.058  1.00  0.00    -0.325 OA
HETATM   30  C   UNL     1     -42.188  63.218 -61.376  1.00  0.00     0.142 A 
HETATM   31  C   UNL     1     -41.944  62.108 -62.151  1.00  0.00     0.027 A 
HETATM   32  C   UNL     1     -41.657  61.055 -61.251  1.00  0.00     0.036 A 
ENDBRANCH  27  28
ENDBRANCH  24  27
ENDBRANCH   3  23
TORSDOF 7
ENDMDL
