MODEL 1
REMARK VINA RESULT:      -9.1      0.000      0.000
REMARK  3 active torsions:
REMARK  status: ('A' for Active; 'I' for Inactive)
REMARK    1  A    between atoms: C_4  and  N_5 
REMARK       I    between atoms: N_5  and  C_6 
REMARK    2  A    between atoms: C_6  and  C_7 
REMARK    3  A    between atoms: C_7  and  C_8 
ROOT
HETATM    1  C   UNL     1     -42.684  56.602 -56.751  1.00  0.00     0.286 C 
HETATM    2  N   UNL     1     -42.222  56.964 -58.181  1.00  0.00    -0.056 N 
HETATM    3  H   UNL     1     -41.815  57.909 -58.103  1.00  0.00     0.278 HD
HETATM    4  H   UNL     1     -41.437  56.361 -58.464  1.00  0.00     0.278 HD
HETATM    5  C   UNL     1     -43.290  57.021 -59.259  1.00  0.00     0.209 C 
HETATM    6  C   UNL     1     -44.565  57.744 -58.737  1.00  0.00     0.115 C 
HETATM    7  N   UNL     1     -44.923  57.438 -57.353  1.00  0.00    -0.353 N 
HETATM    8  C   UNL     1     -43.956  57.374 -56.378  1.00  0.00     0.249 C 
HETATM    9  O   UNL     1     -44.165  57.857 -55.275  1.00  0.00    -0.271 OA
HETATM   10  C   UNL     1     -43.493  55.634 -59.880  1.00  0.00     0.035 C 
HETATM   11  C   UNL     1     -44.737  55.545 -60.755  1.00  0.00     0.002 C 
HETATM   12  C   UNL     1     -45.967  56.069 -60.026  1.00  0.00     0.002 C 
HETATM   13  C   UNL     1     -45.775  57.534 -59.651  1.00  0.00     0.027 C 
HETATM   14  H   UNL     1     -45.736  57.939 -56.993  1.00  0.00     0.163 HD
ENDROOT
BRANCH   1  15
HETATM   15  C   UNL     1     -42.937  55.100 -56.647  1.00  0.00     0.146 C 
BRANCH  15  16
HETATM   16  C   UNL     1     -42.662  54.604 -55.245  1.00  0.00     0.224 C 
HETATM   17  N   UNL     1     -41.317  54.345 -55.061  1.00  0.00    -0.327 N 
HETATM   18  H   UNL     1     -40.659  54.754 -55.712  1.00  0.00     0.169 HD
HETATM   19  O   UNL     1     -43.564  54.485 -54.431  1.00  0.00    -0.273 OA
BRANCH  17  20
HETATM   20  C   UNL     1     -40.734  53.529 -54.073  1.00  0.00     0.035 A 
HETATM   21  C   UNL     1     -40.596  53.910 -52.737  1.00  0.00     0.036 A 
HETATM   22  C   UNL     1     -40.103  53.000 -51.787  1.00  0.00    -0.059 A 
HETATM   23  C   UNL     1     -39.962  53.398 -50.347  1.00  0.00     0.048 C 
HETATM   24  C   UNL     1     -39.722  51.717 -52.197  1.00  0.00     0.013 A 
HETATM   25  C   UNL     1     -39.854  51.321 -53.531  1.00  0.00    -0.059 A 
HETATM   26  C   UNL     1     -40.355  52.237 -54.462  1.00  0.00     0.036 A 
HETATM   27  C   UNL     1     -39.430  49.944 -53.955  1.00  0.00     0.048 C 
ENDBRANCH  17  20
ENDBRANCH  15  16
ENDBRANCH   1  15
TORSDOF 3
ENDMDL
MODEL 2
REMARK VINA RESULT:      -8.4      1.050      2.102
REMARK  3 active torsions:
REMARK  status: ('A' for Active; 'I' for Inactive)
REMARK    1  A    between atoms: C_4  and  N_5 
REMARK       I    between atoms: N_5  and  C_6 
REMARK    2  A    between atoms: C_6  and  C_7 
REMARK    3  A    between atoms: C_7  and  C_8 
ROOT
HETATM    1  C   UNL     1     -43.469  57.369 -55.742  1.00  0.00     0.286 C 
HETATM    2  N   UNL     1     -42.561  57.531 -56.983  1.00  0.00    -0.056 N 
HETATM    3  H   UNL     1     -42.289  58.525 -56.990  1.00  0.00     0.278 HD
HETATM    4  H   UNL     1     -41.680  57.016 -56.848  1.00  0.00     0.278 HD
HETATM    5  C   UNL     1     -43.179  57.223 -58.336  1.00  0.00     0.209 C 
HETATM    6  C   UNL     1     -44.612  57.821 -58.440  1.00  0.00     0.115 C 
HETATM    7  N   UNL     1     -45.410  57.721 -57.219  1.00  0.00    -0.353 N 
HETATM    8  C   UNL     1     -44.850  57.989 -55.992  1.00  0.00     0.249 C 
HETATM    9  O   UNL     1     -45.476  58.627 -55.158  1.00  0.00    -0.271 OA
HETATM   10  C   UNL     1     -43.034  55.731 -58.659  1.00  0.00     0.035 C 
HETATM   11  C   UNL     1     -43.875  55.291 -59.851  1.00  0.00     0.002 C 
HETATM   12  C   UNL     1     -45.322  55.742 -59.705  1.00  0.00     0.002 C 
HETATM   13  C   UNL     1     -45.397  57.263 -59.628  1.00  0.00     0.027 C 
HETATM   14  H   UNL     1     -46.336  58.147 -57.269  1.00  0.00     0.163 HD
ENDROOT
BRANCH   1  15
HETATM   15  C   UNL     1     -43.617  55.890 -55.392  1.00  0.00     0.146 C 
BRANCH  15  16
HETATM   16  C   UNL     1     -42.287  55.298 -54.983  1.00  0.00     0.224 C 
HETATM   17  N   UNL     1     -42.396  53.942 -54.739  1.00  0.00    -0.327 N 
HETATM   18  H   UNL     1     -43.202  53.455 -55.109  1.00  0.00     0.169 HD
HETATM   19  O   UNL     1     -41.285  55.992 -54.911  1.00  0.00    -0.273 OA
BRANCH  17  20
HETATM   20  C   UNL     1     -41.518  53.139 -53.986  1.00  0.00     0.035 A 
HETATM   21  C   UNL     1     -40.937  51.966 -54.469  1.00  0.00     0.036 A 
HETATM   22  C   UNL     1     -39.986  51.275 -53.699  1.00  0.00    -0.059 A 
HETATM   23  C   UNL     1     -39.349  50.019 -54.215  1.00  0.00     0.048 C 
HETATM   24  C   UNL     1     -39.651  51.757 -52.427  1.00  0.00     0.013 A 
HETATM   25  C   UNL     1     -40.224  52.931 -51.930  1.00  0.00    -0.059 A 
HETATM   26  C   UNL     1     -41.163  53.610 -52.716  1.00  0.00     0.036 A 
HETATM   27  C   UNL     1     -39.861  53.427 -50.561  1.00  0.00     0.048 C 
ENDBRANCH  17  20
ENDBRANCH  15  16
ENDBRANCH   1  15
TORSDOF 3
ENDMDL
MODEL 3
REMARK VINA RESULT:      -8.0      1.492      2.323
REMARK  3 active torsions:
REMARK  status: ('A' for Active; 'I' for Inactive)
REMARK    1  A    between atoms: C_4  and  N_5 
REMARK       I    between atoms: N_5  and  C_6 
REMARK    2  A    between atoms: C_6  and  C_7 
REMARK    3  A    between atoms: C_7  and  C_8 
ROOT
HETATM    1  C   UNL     1     -43.347  56.332 -55.559  1.00  0.00     0.286 C 
HETATM    2  N   UNL     1     -44.196  57.393 -56.296  1.00  0.00    -0.056 N 
HETATM    3  H   UNL     1     -45.175  57.103 -56.151  1.00  0.00     0.278 HD
HETATM    4  H   UNL     1     -44.116  58.303 -55.822  1.00  0.00     0.278 HD
HETATM    5  C   UNL     1     -43.984  57.529 -57.794  1.00  0.00     0.209 C 
HETATM    6  C   UNL     1     -43.881  56.131 -58.469  1.00  0.00     0.115 C 
HETATM    7  N   UNL     1     -43.139  55.132 -57.702  1.00  0.00    -0.353 N 
HETATM    8  C   UNL     1     -43.321  55.014 -56.344  1.00  0.00     0.249 C 
HETATM    9  O   UNL     1     -43.385  53.908 -55.828  1.00  0.00    -0.271 OA
HETATM   10  C   UNL     1     -42.846  58.516 -58.081  1.00  0.00     0.035 C 
HETATM   11  C   UNL     1     -42.380  58.488 -59.532  1.00  0.00     0.002 C 
HETATM   12  C   UNL     1     -42.082  57.067 -59.992  1.00  0.00     0.002 C 
HETATM   13  C   UNL     1     -43.338  56.206 -59.897  1.00  0.00     0.027 C 
HETATM   14  H   UNL     1     -43.101  54.202 -58.121  1.00  0.00     0.163 HD
ENDROOT
BRANCH   1  15
HETATM   15  C   UNL     1     -41.924  56.847 -55.359  1.00  0.00     0.146 C 
BRANCH  15  16
HETATM   16  C   UNL     1     -41.256  56.144 -54.198  1.00  0.00     0.224 C 
HETATM   17  N   UNL     1     -40.755  54.914 -54.579  1.00  0.00    -0.327 N 
HETATM   18  H   UNL     1     -40.623  54.738 -55.567  1.00  0.00     0.169 HD
HETATM   19  O   UNL     1     -41.196  56.667 -53.097  1.00  0.00    -0.273 OA
BRANCH  17  20
HETATM   20  C   UNL     1     -40.432  53.830 -53.741  1.00  0.00     0.035 A 
HETATM   21  C   UNL     1     -40.492  53.885 -52.347  1.00  0.00     0.036 A 
HETATM   22  C   UNL     1     -40.259  52.731 -51.580  1.00  0.00    -0.059 A 
HETATM   23  C   UNL     1     -40.333  52.779 -50.083  1.00  0.00     0.048 C 
HETATM   24  C   UNL     1     -39.935  51.530 -52.225  1.00  0.00     0.013 A 
HETATM   25  C   UNL     1     -39.871  51.460 -53.620  1.00  0.00    -0.059 A 
HETATM   26  C   UNL     1     -40.115  52.618 -54.368  1.00  0.00     0.036 A 
HETATM   27  C   UNL     1     -39.511  50.168 -54.295  1.00  0.00     0.048 C 
ENDBRANCH  17  20
ENDBRANCH  15  16
ENDBRANCH   1  15
TORSDOF 3
ENDMDL
MODEL 4
REMARK VINA RESULT:      -8.0      2.222      7.350
REMARK  3 active torsions:
REMARK  status: ('A' for Active; 'I' for Inactive)
REMARK    1  A    between atoms: C_4  and  N_5 
REMARK       I    between atoms: N_5  and  C_6 
REMARK    2  A    between atoms: C_6  and  C_7 
REMARK    3  A    between atoms: C_7  and  C_8 
ROOT
HETATM    1  C   UNL     1     -42.736  56.598 -52.727  1.00  0.00     0.286 C 
HETATM    2  N   UNL     1     -43.501  55.268 -52.917  1.00  0.00    -0.056 N 
HETATM    3  H   UNL     1     -44.189  55.240 -52.149  1.00  0.00     0.278 HD
HETATM    4  H   UNL     1     -44.066  55.303 -53.776  1.00  0.00     0.278 HD
HETATM    5  C   UNL     1     -42.690  53.986 -52.842  1.00  0.00     0.209 C 
HETATM    6  C   UNL     1     -41.675  54.042 -51.663  1.00  0.00     0.115 C 
HETATM    7  N   UNL     1     -41.033  55.340 -51.465  1.00  0.00    -0.353 N 
HETATM    8  C   UNL     1     -41.763  56.502 -51.544  1.00  0.00     0.249 C 
HETATM    9  O   UNL     1     -41.570  57.404 -50.742  1.00  0.00    -0.271 OA
HETATM   10  C   UNL     1     -42.120  53.637 -54.222  1.00  0.00     0.035 C 
HETATM   11  C   UNL     1     -41.066  52.538 -54.174  1.00  0.00     0.002 C 
HETATM   12  C   UNL     1     -39.994  52.842 -53.136  1.00  0.00     0.002 C 
HETATM   13  C   UNL     1     -40.617  52.940 -51.747  1.00  0.00     0.027 C 
HETATM   14  H   UNL     1     -40.396  55.393 -50.670  1.00  0.00     0.163 HD
ENDROOT
BRANCH   1  15
HETATM   15  C   UNL     1     -41.973  56.949 -54.002  1.00  0.00     0.146 C 
BRANCH  15  16
HETATM   16  C   UNL     1     -42.887  56.900 -55.206  1.00  0.00     0.224 C 
HETATM   17  N   UNL     1     -42.191  56.552 -56.348  1.00  0.00    -0.327 N 
HETATM   18  H   UNL     1     -41.287  56.110 -56.240  1.00  0.00     0.169 HD
HETATM   19  O   UNL     1     -44.080  57.138 -55.101  1.00  0.00    -0.273 OA
BRANCH  17  20
HETATM   20  C   UNL     1     -42.579  56.776 -57.683  1.00  0.00     0.035 A 
HETATM   21  C   UNL     1     -42.177  57.884 -58.430  1.00  0.00     0.036 A 
HETATM   22  C   UNL     1     -42.516  57.985 -59.790  1.00  0.00    -0.059 A 
HETATM   23  C   UNL     1     -42.079  59.168 -60.602  1.00  0.00     0.048 C 
HETATM   24  C   UNL     1     -43.288  56.978 -60.382  1.00  0.00     0.013 A 
HETATM   25  C   UNL     1     -43.697  55.862 -59.647  1.00  0.00    -0.059 A 
HETATM   26  C   UNL     1     -43.343  55.774 -58.296  1.00  0.00     0.036 A 
HETATM   27  C   UNL     1     -44.534  54.797 -60.296  1.00  0.00     0.048 C 
ENDBRANCH  17  20
ENDBRANCH  15  16
ENDBRANCH   1  15
TORSDOF 3
ENDMDL
MODEL 5
REMARK VINA RESULT:      -7.9      1.888      3.393
REMARK  3 active torsions:
REMARK  status: ('A' for Active; 'I' for Inactive)
REMARK    1  A    between atoms: C_4  and  N_5 
REMARK       I    between atoms: N_5  and  C_6 
REMARK    2  A    between atoms: C_6  and  C_7 
REMARK    3  A    between atoms: C_7  and  C_8 
ROOT
HETATM    1  C   UNL     1     -43.494  55.969 -57.799  1.00  0.00     0.286 C 
HETATM    2  N   UNL     1     -44.298  57.053 -57.045  1.00  0.00    -0.056 N 
HETATM    3  H   UNL     1     -45.275  56.928 -57.354  1.00  0.00     0.278 HD
HETATM    4  H   UNL     1     -44.312  56.847 -56.037  1.00  0.00     0.278 HD
HETATM    5  C   UNL     1     -43.923  58.501 -57.308  1.00  0.00     0.209 C 
HETATM    6  C   UNL     1     -43.685  58.744 -58.827  1.00  0.00     0.115 C 
HETATM    7  N   UNL     1     -42.993  57.660 -59.522  1.00  0.00    -0.353 N 
HETATM    8  C   UNL     1     -43.323  56.348 -59.277  1.00  0.00     0.249 C 
HETATM    9  O   UNL     1     -43.398  55.551 -60.201  1.00  0.00    -0.271 OA
HETATM   10  C   UNL     1     -42.803  58.940 -56.359  1.00  0.00     0.035 C 
HETATM   11  C   UNL     1     -42.175  60.273 -56.749  1.00  0.00     0.002 C 
HETATM   12  C   UNL     1     -41.766  60.286 -58.216  1.00  0.00     0.002 C 
HETATM   13  C   UNL     1     -42.986  60.076 -59.106  1.00  0.00     0.027 C 
HETATM   14  H   UNL     1     -42.868  57.796 -60.525  1.00  0.00     0.163 HD
ENDROOT
BRANCH   1  15
HETATM   15  C   UNL     1     -42.126  55.784 -57.147  1.00  0.00     0.146 C 
BRANCH  15  16
HETATM   16  C   UNL     1     -42.248  55.008 -55.855  1.00  0.00     0.224 C 
HETATM   17  N   UNL     1     -41.004  54.723 -55.324  1.00  0.00    -0.327 N 
HETATM   18  H   UNL     1     -40.212  55.262 -55.649  1.00  0.00     0.169 HD
HETATM   19  O   UNL     1     -43.341  54.717 -55.396  1.00  0.00    -0.273 OA
BRANCH  17  20
HETATM   20  C   UNL     1     -40.688  53.721 -54.386  1.00  0.00     0.035 A 
HETATM   21  C   UNL     1     -40.377  52.406 -54.735  1.00  0.00     0.036 A 
HETATM   22  C   UNL     1     -39.966  51.489 -53.752  1.00  0.00    -0.059 A 
HETATM   23  C   UNL     1     -39.619  50.077 -54.120  1.00  0.00     0.048 C 
HETATM   24  C   UNL     1     -39.901  51.898 -52.414  1.00  0.00     0.013 A 
HETATM   25  C   UNL     1     -40.210  53.212 -52.050  1.00  0.00    -0.059 A 
HETATM   26  C   UNL     1     -40.609  54.114 -53.044  1.00  0.00     0.036 A 
HETATM   27  C   UNL     1     -40.146  53.631 -50.610  1.00  0.00     0.048 C 
ENDBRANCH  17  20
ENDBRANCH  15  16
ENDBRANCH   1  15
TORSDOF 3
ENDMDL
MODEL 6
REMARK VINA RESULT:      -7.6      2.678      7.814
REMARK  3 active torsions:
REMARK  status: ('A' for Active; 'I' for Inactive)
REMARK    1  A    between atoms: C_4  and  N_5 
REMARK       I    between atoms: N_5  and  C_6 
REMARK    2  A    between atoms: C_6  and  C_7 
REMARK    3  A    between atoms: C_7  and  C_8 
ROOT
HETATM    1  C   UNL     1     -43.157  57.172 -52.484  1.00  0.00     0.286 C 
HETATM    2  N   UNL     1     -43.786  55.828 -52.047  1.00  0.00    -0.056 N 
HETATM    3  H   UNL     1     -44.601  56.087 -51.471  1.00  0.00     0.278 HD
HETATM    4  H   UNL     1     -44.182  55.340 -52.861  1.00  0.00     0.278 HD
HETATM    5  C   UNL     1     -42.921  54.900 -51.213  1.00  0.00     0.209 C 
HETATM    6  C   UNL     1     -42.149  55.694 -50.119  1.00  0.00     0.115 C 
HETATM    7  N   UNL     1     -41.641  56.996 -50.549  1.00  0.00    -0.353 N 
HETATM    8  C   UNL     1     -42.418  57.833 -51.313  1.00  0.00     0.249 C 
HETATM    9  O   UNL     1     -42.436  59.034 -51.083  1.00  0.00    -0.271 OA
HETATM   10  C   UNL     1     -42.083  53.994 -52.123  1.00  0.00     0.035 C 
HETATM   11  C   UNL     1     -40.986  53.244 -51.376  1.00  0.00     0.002 C 
HETATM   12  C   UNL     1     -40.149  54.188 -50.524  1.00  0.00     0.002 C 
HETATM   13  C   UNL     1     -41.025  54.876 -49.482  1.00  0.00     0.027 C 
HETATM   14  H   UNL     1     -41.168  57.538 -49.825  1.00  0.00     0.163 HD
ENDROOT
BRANCH   1  15
HETATM   15  C   UNL     1     -42.194  56.945 -53.647  1.00  0.00     0.146 C 
BRANCH  15  16
HETATM   16  C   UNL     1     -42.948  56.562 -54.902  1.00  0.00     0.224 C 
HETATM   17  N   UNL     1     -42.111  56.544 -56.001  1.00  0.00    -0.327 N 
HETATM   18  H   UNL     1     -41.113  56.494 -55.840  1.00  0.00     0.169 HD
HETATM   19  O   UNL     1     -44.141  56.306 -54.866  1.00  0.00    -0.273 OA
BRANCH  17  20
HETATM   20  C   UNL     1     -42.484  56.623 -57.356  1.00  0.00     0.035 A 
HETATM   21  C   UNL     1     -43.184  55.618 -58.027  1.00  0.00     0.036 A 
HETATM   22  C   UNL     1     -43.616  55.814 -59.349  1.00  0.00    -0.059 A 
HETATM   23  C   UNL     1     -44.378  54.744 -60.073  1.00  0.00     0.048 C 
HETATM   24  C   UNL     1     -43.311  57.016 -60.001  1.00  0.00     0.013 A 
HETATM   25  C   UNL     1     -42.612  58.032 -59.342  1.00  0.00    -0.059 A 
HETATM   26  C   UNL     1     -42.197  57.822 -58.022  1.00  0.00     0.036 A 
HETATM   27  C   UNL     1     -42.284  59.309 -60.060  1.00  0.00     0.048 C 
ENDBRANCH  17  20
ENDBRANCH  15  16
ENDBRANCH   1  15
TORSDOF 3
ENDMDL
MODEL 7
REMARK VINA RESULT:      -7.5     14.437     17.779
REMARK  3 active torsions:
REMARK  status: ('A' for Active; 'I' for Inactive)
REMARK    1  A    between atoms: C_4  and  N_5 
REMARK       I    between atoms: N_5  and  C_6 
REMARK    2  A    between atoms: C_6  and  C_7 
REMARK    3  A    between atoms: C_7  and  C_8 
ROOT
HETATM    1  C   UNL     1     -35.320  40.507 -53.804  1.00  0.00     0.286 C 
HETATM    2  N   UNL     1     -35.311  39.132 -53.096  1.00  0.00    -0.056 N 
HETATM    3  H   UNL     1     -36.276  38.995 -52.760  1.00  0.00     0.278 HD
HETATM    4  H   UNL     1     -35.161  38.381 -53.784  1.00  0.00     0.278 HD
HETATM    5  C   UNL     1     -34.389  38.977 -51.899  1.00  0.00     0.209 C 
HETATM    6  C   UNL     1     -34.460  40.230 -50.980  1.00  0.00     0.115 C 
HETATM    7  N   UNL     1     -34.550  41.507 -51.686  1.00  0.00    -0.353 N 
HETATM    8  C   UNL     1     -35.375  41.647 -52.777  1.00  0.00     0.249 C 
HETATM    9  O   UNL     1     -36.042  42.662 -52.915  1.00  0.00    -0.271 OA
HETATM   10  C   UNL     1     -32.993  38.539 -52.357  1.00  0.00     0.035 C 
HETATM   11  C   UNL     1     -31.942  38.643 -51.258  1.00  0.00     0.002 C 
HETATM   12  C   UNL     1     -31.961  40.015 -50.599  1.00  0.00     0.002 C 
HETATM   13  C   UNL     1     -33.321  40.275 -49.959  1.00  0.00     0.027 C 
HETATM   14  H   UNL     1     -34.636  42.329 -51.088  1.00  0.00     0.163 HD
ENDROOT
BRANCH   1  15
HETATM   15  C   UNL     1     -34.079  40.654 -54.679  1.00  0.00     0.146 C 
BRANCH  15  16
HETATM   16  C   UNL     1     -34.462  40.994 -56.103  1.00  0.00     0.224 C 
HETATM   17  N   UNL     1     -35.832  41.120 -56.235  1.00  0.00    -0.327 N 
HETATM   18  H   UNL     1     -36.381  41.261 -55.397  1.00  0.00     0.169 HD
HETATM   19  O   UNL     1     -33.611  41.133 -56.967  1.00  0.00    -0.273 OA
BRANCH  17  20
HETATM   20  C   UNL     1     -36.583  41.038 -57.423  1.00  0.00     0.035 A 
HETATM   21  C   UNL     1     -36.656  42.066 -58.364  1.00  0.00     0.036 A 
HETATM   22  C   UNL     1     -37.338  41.871 -59.577  1.00  0.00    -0.059 A 
HETATM   23  C   UNL     1     -37.412  42.967 -60.599  1.00  0.00     0.048 C 
HETATM   24  C   UNL     1     -37.973  40.647 -59.819  1.00  0.00     0.013 A 
HETATM   25  C   UNL     1     -37.909  39.608 -58.886  1.00  0.00    -0.059 A 
HETATM   26  C   UNL     1     -37.217  39.818 -57.687  1.00  0.00     0.036 A 
HETATM   27  C   UNL     1     -38.605  38.306 -59.157  1.00  0.00     0.048 C 
ENDBRANCH  17  20
ENDBRANCH  15  16
ENDBRANCH   1  15
TORSDOF 3
ENDMDL
MODEL 8
REMARK VINA RESULT:      -7.4     14.229     17.435
REMARK  3 active torsions:
REMARK  status: ('A' for Active; 'I' for Inactive)
REMARK    1  A    between atoms: C_4  and  N_5 
REMARK       I    between atoms: N_5  and  C_6 
REMARK    2  A    between atoms: C_6  and  C_7 
REMARK    3  A    between atoms: C_7  and  C_8 
ROOT
HETATM    1  C   UNL     1     -36.492  40.388 -53.557  1.00  0.00     0.286 C 
HETATM    2  N   UNL     1     -35.321  39.395 -53.742  1.00  0.00    -0.056 N 
HETATM    3  H   UNL     1     -35.762  38.464 -53.790  1.00  0.00     0.278 HD
HETATM    4  H   UNL     1     -34.885  39.528 -54.664  1.00  0.00     0.278 HD
HETATM    5  C   UNL     1     -34.278  39.343 -52.639  1.00  0.00     0.209 C 
HETATM    6  C   UNL     1     -34.953  39.369 -51.237  1.00  0.00     0.115 C 
HETATM    7  N   UNL     1     -36.107  40.259 -51.126  1.00  0.00    -0.353 N 
HETATM    8  C   UNL     1     -37.046  40.316 -52.128  1.00  0.00     0.249 C 
HETATM    9  O   UNL     1     -38.236  40.373 -51.851  1.00  0.00    -0.271 OA
HETATM   10  C   UNL     1     -33.184  40.387 -52.894  1.00  0.00     0.035 C 
HETATM   11  C   UNL     1     -32.266  40.597 -51.696  1.00  0.00     0.002 C 
HETATM   12  C   UNL     1     -33.063  40.852 -50.423  1.00  0.00     0.002 C 
HETATM   13  C   UNL     1     -33.957  39.657 -50.111  1.00  0.00     0.027 C 
HETATM   14  H   UNL     1     -36.577  40.251 -50.220  1.00  0.00     0.163 HD
ENDROOT
BRANCH   1  15
HETATM   15  C   UNL     1     -36.026  41.809 -53.864  1.00  0.00     0.146 C 
BRANCH  15  16
HETATM   16  C   UNL     1     -35.813  41.995 -55.351  1.00  0.00     0.224 C 
HETATM   17  N   UNL     1     -36.918  41.582 -56.070  1.00  0.00    -0.327 N 
HETATM   18  H   UNL     1     -37.798  41.485 -55.580  1.00  0.00     0.169 HD
HETATM   19  O   UNL     1     -34.773  42.467 -55.783  1.00  0.00    -0.273 OA
BRANCH  17  20
HETATM   20  C   UNL     1     -36.964  41.233 -57.433  1.00  0.00     0.035 A 
HETATM   21  C   UNL     1     -36.946  39.916 -57.896  1.00  0.00     0.036 A 
HETATM   22  C   UNL     1     -37.105  39.642 -59.265  1.00  0.00    -0.059 A 
HETATM   23  C   UNL     1     -37.097  38.229 -59.769  1.00  0.00     0.048 C 
HETATM   24  C   UNL     1     -37.250  40.704 -60.166  1.00  0.00     0.013 A 
HETATM   25  C   UNL     1     -37.271  42.028 -59.718  1.00  0.00    -0.059 A 
HETATM   26  C   UNL     1     -37.120  42.281 -58.349  1.00  0.00     0.036 A 
HETATM   27  C   UNL     1     -37.416  43.155 -60.699  1.00  0.00     0.048 C 
ENDBRANCH  17  20
ENDBRANCH  15  16
ENDBRANCH   1  15
TORSDOF 3
ENDMDL
MODEL 9
REMARK VINA RESULT:      -7.0     15.285     18.387
REMARK  3 active torsions:
REMARK  status: ('A' for Active; 'I' for Inactive)
REMARK    1  A    between atoms: C_4  and  N_5 
REMARK       I    between atoms: N_5  and  C_6 
REMARK    2  A    between atoms: C_6  and  C_7 
REMARK    3  A    between atoms: C_7  and  C_8 
ROOT
HETATM    1  C   UNL     1     -33.671  40.235 -54.493  1.00  0.00     0.286 C 
HETATM    2  N   UNL     1     -34.423  41.228 -53.576  1.00  0.00    -0.056 N 
HETATM    3  H   UNL     1     -34.049  42.157 -53.822  1.00  0.00     0.278 HD
HETATM    4  H   UNL     1     -35.418  41.266 -53.837  1.00  0.00     0.278 HD
HETATM    5  C   UNL     1     -34.250  41.052 -52.078  1.00  0.00     0.209 C 
HETATM    6  C   UNL     1     -32.762  40.770 -51.721  1.00  0.00     0.115 C 
HETATM    7  N   UNL     1     -32.062  39.891 -52.657  1.00  0.00    -0.353 N 
HETATM    8  C   UNL     1     -32.226  40.040 -54.014  1.00  0.00     0.249 C 
HETATM    9  O   UNL     1     -31.263  39.949 -54.762  1.00  0.00    -0.271 OA
HETATM   10  C   UNL     1     -35.286  40.061 -51.536  1.00  0.00     0.035 C 
HETATM   11  C   UNL     1     -34.998  39.613 -50.108  1.00  0.00     0.002 C 
HETATM   12  C   UNL     1     -33.561  39.131 -49.958  1.00  0.00     0.002 C 
HETATM   13  C   UNL     1     -32.588  40.258 -50.290  1.00  0.00     0.027 C 
HETATM   14  H   UNL     1     -31.076  39.733 -52.450  1.00  0.00     0.163 HD
ENDROOT
BRANCH   1  15
HETATM   15  C   UNL     1     -34.397  38.892 -54.517  1.00  0.00     0.146 C 
BRANCH  15  16
HETATM   16  C   UNL     1     -35.737  39.018 -55.207  1.00  0.00     0.224 C 
HETATM   17  N   UNL     1     -35.609  38.880 -56.576  1.00  0.00    -0.327 N 
HETATM   18  H   UNL     1     -34.766  38.449 -56.935  1.00  0.00     0.169 HD
HETATM   19  O   UNL     1     -36.759  39.206 -54.567  1.00  0.00    -0.273 OA
BRANCH  17  20
HETATM   20  C   UNL     1     -36.515  39.310 -57.564  1.00  0.00     0.035 A 
HETATM   21  C   UNL     1     -36.478  40.576 -58.149  1.00  0.00     0.036 A 
HETATM   22  C   UNL     1     -37.348  40.896 -59.205  1.00  0.00    -0.059 A 
HETATM   23  C   UNL     1     -37.307  42.251 -59.847  1.00  0.00     0.048 C 
HETATM   24  C   UNL     1     -38.275  39.943 -59.645  1.00  0.00     0.013 A 
HETATM   25  C   UNL     1     -38.323  38.670 -59.069  1.00  0.00    -0.059 A 
HETATM   26  C   UNL     1     -37.444  38.367 -58.024  1.00  0.00     0.036 A 
HETATM   27  C   UNL     1     -39.331  37.665 -59.546  1.00  0.00     0.048 C 
ENDBRANCH  17  20
ENDBRANCH  15  16
ENDBRANCH   1  15
TORSDOF 3
ENDMDL
MODEL 10
REMARK VINA RESULT:      -6.9     15.616     18.775
REMARK  3 active torsions:
REMARK  status: ('A' for Active; 'I' for Inactive)
REMARK    1  A    between atoms: C_4  and  N_5 
REMARK       I    between atoms: N_5  and  C_6 
REMARK    2  A    between atoms: C_6  and  C_7 
REMARK    3  A    between atoms: C_7  and  C_8 
ROOT
HETATM    1  C   UNL     1     -32.431  39.365 -53.699  1.00  0.00     0.286 C 
HETATM    2  N   UNL     1     -33.837  38.737 -53.560  1.00  0.00    -0.056 N 
HETATM    3  H   UNL     1     -33.897  38.040 -54.318  1.00  0.00     0.278 HD
HETATM    4  H   UNL     1     -33.897  38.189 -52.691  1.00  0.00     0.278 HD
HETATM    5  C   UNL     1     -35.028  39.667 -53.709  1.00  0.00     0.209 C 
HETATM    6  C   UNL     1     -34.820  40.648 -54.900  1.00  0.00     0.115 C 
HETATM    7  N   UNL     1     -33.457  41.156 -55.046  1.00  0.00    -0.353 N 
HETATM    8  C   UNL     1     -32.377  40.319 -54.900  1.00  0.00     0.249 C 
HETATM    9  O   UNL     1     -31.425  40.407 -55.661  1.00  0.00    -0.271 OA
HETATM   10  C   UNL     1     -35.383  40.296 -52.357  1.00  0.00     0.035 C 
HETATM   11  C   UNL     1     -36.370  41.451 -52.474  1.00  0.00     0.002 C 
HETATM   12  C   UNL     1     -35.916  42.467 -53.513  1.00  0.00     0.002 C 
HETATM   13  C   UNL     1     -35.815  41.809 -54.886  1.00  0.00     0.027 C 
HETATM   14  H   UNL     1     -33.306  41.769 -55.847  1.00  0.00     0.163 HD
ENDROOT
BRANCH   1  15
HETATM   15  C   UNL     1     -32.066  40.117 -52.421  1.00  0.00     0.146 C 
BRANCH  15  16
HETATM   16  C   UNL     1     -32.024  39.175 -51.237  1.00  0.00     0.224 C 
HETATM   17  N   UNL     1     -32.512  39.784 -50.097  1.00  0.00    -0.327 N 
HETATM   18  H   UNL     1     -33.077  40.617 -50.205  1.00  0.00     0.169 HD
HETATM   19  O   UNL     1     -31.609  38.034 -51.356  1.00  0.00    -0.273 OA
BRANCH  17  20
HETATM   20  C   UNL     1     -32.282  39.400 -48.762  1.00  0.00     0.035 A 
HETATM   21  C   UNL     1     -32.990  38.384 -48.117  1.00  0.00     0.036 A 
HETATM   22  C   UNL     1     -32.631  37.983 -46.819  1.00  0.00    -0.059 A 
HETATM   23  C   UNL     1     -33.379  36.886 -46.122  1.00  0.00     0.048 C 
HETATM   24  C   UNL     1     -31.577  38.634 -46.165  1.00  0.00     0.013 A 
HETATM   25  C   UNL     1     -30.859  39.652 -46.798  1.00  0.00    -0.059 A 
HETATM   26  C   UNL     1     -31.225  40.033 -48.095  1.00  0.00     0.036 A 
HETATM   27  C   UNL     1     -29.740  40.346 -46.078  1.00  0.00     0.048 C 
ENDBRANCH  17  20
ENDBRANCH  15  16
ENDBRANCH   1  15
TORSDOF 3
ENDMDL
