MODEL 1
REMARK VINA RESULT:     -10.0      0.000      0.000
REMARK  5 active torsions:
REMARK  status: ('A' for Active; 'I' for Inactive)
REMARK    1  A    between atoms: C_4  and  C_5 
REMARK    2  A    between atoms: C_5  and  N_6 
REMARK       I    between atoms: N_6  and  C_7 
REMARK    3  A    between atoms: C_7  and  C_8 
REMARK    4  A    between atoms: C_20  and  N_21 
REMARK       I    between atoms: N_21  and  C_22 
REMARK    5  A    between atoms: C_22  and  C_23 
ROOT
HETATM    1  C   UNL     1     -42.433  57.658 -55.439  1.00  0.00     0.079 A 
HETATM    2  C   UNL     1     -42.452  58.545 -54.432  1.00  0.00     0.131 A 
HETATM    3  N   UNL     1     -42.156  58.121 -53.131  1.00  0.00    -0.259 N 
HETATM    4  C   UNL     1     -42.331  59.231 -52.274  1.00  0.00     0.071 A 
HETATM    5  C   UNL     1     -42.748  60.308 -53.092  1.00  0.00     0.061 A 
HETATM    6  C   UNL     1     -42.979  61.555 -52.561  1.00  0.00     0.032 A 
HETATM    7  C   UNL     1     -42.833  61.705 -51.177  1.00  0.00     0.002 A 
HETATM    8  C   UNL     1     -42.445  60.621 -50.362  1.00  0.00     0.002 A 
HETATM    9  C   UNL     1     -42.186  59.360 -50.910  1.00  0.00     0.032 A 
HETATM   10  N   UNL     1     -42.730  59.904 -54.437  1.00  0.00    -0.339 N 
HETATM   11  C   UNL     1     -41.796  56.839 -52.780  1.00  0.00     0.281 A 
HETATM   12  O   UNL     1     -41.514  56.434 -51.651  1.00  0.00    -0.265 OA
HETATM   13  C   UNL     1     -41.760  55.848 -53.932  1.00  0.00     0.105 A 
HETATM   14  C   UNL     1     -42.103  56.271 -55.159  1.00  0.00     0.056 A 
HETATM   15  H   UNL     1     -43.381  60.263 -55.128  1.00  0.00     0.167 HD
ENDROOT
BRANCH   1  16
HETATM   16  C   UNL     1     -42.736  58.128 -56.820  1.00  0.00     0.255 C 
HETATM   17  N   UNL     1     -42.117  57.392 -57.798  1.00  0.00    -0.353 N 
HETATM   18  H   UNL     1     -41.493  56.635 -57.549  1.00  0.00     0.163 HD
HETATM   19  O   UNL     1     -43.453  59.099 -57.035  1.00  0.00    -0.268 OA
BRANCH  17  20
HETATM   20  C   UNL     1     -42.346  57.633 -59.202  1.00  0.00     0.161 C 
BRANCH  20  21
HETATM   21  C   UNL     1     -43.551  56.865 -59.675  1.00  0.00    -0.041 A 
HETATM   22  C   UNL     1     -44.739  57.537 -60.006  1.00  0.00     0.009 A 
HETATM   23  C   UNL     1     -45.873  56.822 -60.394  1.00  0.00     0.001 A 
HETATM   24  C   UNL     1     -45.831  55.431 -60.462  1.00  0.00     0.000 A 
HETATM   25  C   UNL     1     -44.657  54.753 -60.138  1.00  0.00     0.001 A 
HETATM   26  C   UNL     1     -43.523  55.466 -59.742  1.00  0.00     0.009 A 
ENDBRANCH  20  21
ENDBRANCH  17  20
ENDBRANCH   1  16
BRANCH  13  27
HETATM   27  N   UNL     1     -41.367  54.564 -53.593  1.00  0.00    -0.318 N 
HETATM   28  C   UNL     1     -40.466  53.752 -54.253  1.00  0.00     0.256 C 
HETATM   29  O   UNL     1     -39.865  54.051 -55.280  1.00  0.00    -0.267 OA
HETATM   30  H   UNL     1     -41.737  54.265 -52.694  1.00  0.00     0.169 HD
BRANCH  28  31
HETATM   31  C   UNL     1     -40.174  52.435 -53.615  1.00  0.00     0.032 A 
HETATM   32  C   UNL     1     -39.870  52.303 -52.252  1.00  0.00     0.020 A 
HETATM   33  C   UNL     1     -39.595  51.039 -51.719  1.00  0.00     0.043 A 
HETATM   34  C   UNL     1     -39.636  49.918 -52.541  1.00  0.00     0.116 A 
HETATM   35  F   UNL     1     -39.371  48.711 -52.025  1.00  0.00    -0.206 F 
HETATM   36  C   UNL     1     -39.954  50.030 -53.889  1.00  0.00     0.043 A 
HETATM   37  C   UNL     1     -40.227  51.289 -54.426  1.00  0.00     0.020 A 
ENDBRANCH  28  31
ENDBRANCH  13  27
TORSDOF 5
ENDMDL
MODEL 2
REMARK VINA RESULT:      -9.7      2.080      2.309
REMARK  5 active torsions:
REMARK  status: ('A' for Active; 'I' for Inactive)
REMARK    1  A    between atoms: C_4  and  C_5 
REMARK    2  A    between atoms: C_5  and  N_6 
REMARK       I    between atoms: N_6  and  C_7 
REMARK    3  A    between atoms: C_7  and  C_8 
REMARK    4  A    between atoms: C_20  and  N_21 
REMARK       I    between atoms: N_21  and  C_22 
REMARK    5  A    between atoms: C_22  and  C_23 
ROOT
HETATM    1  C   UNL     1     -44.667  57.746 -55.009  1.00  0.00     0.079 A 
HETATM    2  C   UNL     1     -44.975  58.594 -54.015  1.00  0.00     0.131 A 
HETATM    3  N   UNL     1     -44.571  58.301 -52.707  1.00  0.00    -0.259 N 
HETATM    4  C   UNL     1     -45.096  59.309 -51.868  1.00  0.00     0.071 A 
HETATM    5  C   UNL     1     -45.826  60.188 -52.703  1.00  0.00     0.061 A 
HETATM    6  C   UNL     1     -46.444  61.305 -52.190  1.00  0.00     0.032 A 
HETATM    7  C   UNL     1     -46.365  61.511 -50.808  1.00  0.00     0.002 A 
HETATM    8  C   UNL     1     -45.660  60.615 -49.976  1.00  0.00     0.002 A 
HETATM    9  C   UNL     1     -45.010  59.495 -50.505  1.00  0.00     0.032 A 
HETATM   10  N   UNL     1     -45.669  59.795 -54.042  1.00  0.00    -0.339 N 
HETATM   11  C   UNL     1     -43.826  57.205 -52.336  1.00  0.00     0.281 A 
HETATM   12  O   UNL     1     -43.441  56.923 -51.201  1.00  0.00    -0.265 OA
HETATM   13  C   UNL     1     -43.469  56.262 -53.474  1.00  0.00     0.105 A 
HETATM   14  C   UNL     1     -43.917  56.539 -54.709  1.00  0.00     0.056 A 
HETATM   15  H   UNL     1     -46.394  59.920 -54.740  1.00  0.00     0.167 HD
ENDROOT
BRANCH   1  16
HETATM   16  C   UNL     1     -45.092  58.079 -56.399  1.00  0.00     0.255 C 
HETATM   17  N   UNL     1     -44.050  58.162 -57.286  1.00  0.00    -0.353 N 
HETATM   18  H   UNL     1     -43.097  58.036 -56.967  1.00  0.00     0.163 HD
HETATM   19  O   UNL     1     -46.266  58.281 -56.691  1.00  0.00    -0.268 OA
BRANCH  17  20
HETATM   20  C   UNL     1     -44.256  58.391 -58.695  1.00  0.00     0.161 C 
BRANCH  20  21
HETATM   21  C   UNL     1     -44.614  57.104 -59.388  1.00  0.00    -0.041 A 
HETATM   22  C   UNL     1     -43.795  55.971 -59.255  1.00  0.00     0.009 A 
HETATM   23  C   UNL     1     -44.098  54.792 -59.938  1.00  0.00     0.001 A 
HETATM   24  C   UNL     1     -45.224  54.732 -60.757  1.00  0.00     0.000 A 
HETATM   25  C   UNL     1     -46.046  55.848 -60.895  1.00  0.00     0.001 A 
HETATM   26  C   UNL     1     -45.741  57.031 -60.218  1.00  0.00     0.009 A 
ENDBRANCH  20  21
ENDBRANCH  17  20
ENDBRANCH   1  16
BRANCH  13  27
HETATM   27  N   UNL     1     -42.692  55.172 -53.115  1.00  0.00    -0.318 N 
HETATM   28  C   UNL     1     -41.345  54.980 -53.346  1.00  0.00     0.256 C 
HETATM   29  O   UNL     1     -40.608  55.766 -53.934  1.00  0.00    -0.267 OA
HETATM   30  H   UNL     1     -43.194  54.508 -52.530  1.00  0.00     0.169 HD
BRANCH  28  31
HETATM   31  C   UNL     1     -40.749  53.736 -52.776  1.00  0.00     0.032 A 
HETATM   32  C   UNL     1     -40.609  53.525 -51.396  1.00  0.00     0.020 A 
HETATM   33  C   UNL     1     -40.030  52.341 -50.928  1.00  0.00     0.043 A 
HETATM   34  C   UNL     1     -39.606  51.373 -51.833  1.00  0.00     0.116 A 
HETATM   35  F   UNL     1     -39.053  50.242 -51.378  1.00  0.00    -0.206 F 
HETATM   36  C   UNL     1     -39.755  51.559 -53.202  1.00  0.00     0.043 A 
HETATM   37  C   UNL     1     -40.330  52.740 -53.675  1.00  0.00     0.020 A 
ENDBRANCH  28  31
ENDBRANCH  13  27
TORSDOF 5
ENDMDL
MODEL 3
REMARK VINA RESULT:      -9.6      1.793      2.273
REMARK  5 active torsions:
REMARK  status: ('A' for Active; 'I' for Inactive)
REMARK    1  A    between atoms: C_4  and  C_5 
REMARK    2  A    between atoms: C_5  and  N_6 
REMARK       I    between atoms: N_6  and  C_7 
REMARK    3  A    between atoms: C_7  and  C_8 
REMARK    4  A    between atoms: C_20  and  N_21 
REMARK       I    between atoms: N_21  and  C_22 
REMARK    5  A    between atoms: C_22  and  C_23 
ROOT
HETATM    1  C   UNL     1     -43.027  56.458 -56.385  1.00  0.00     0.079 A 
HETATM    2  C   UNL     1     -43.593  57.377 -55.587  1.00  0.00     0.131 A 
HETATM    3  N   UNL     1     -43.634  57.160 -54.204  1.00  0.00    -0.259 N 
HETATM    4  C   UNL     1     -44.350  58.234 -53.630  1.00  0.00     0.071 A 
HETATM    5  C   UNL     1     -44.740  59.075 -54.699  1.00  0.00     0.061 A 
HETATM    6  C   UNL     1     -45.437  60.238 -54.470  1.00  0.00     0.032 A 
HETATM    7  C   UNL     1     -45.787  60.532 -53.147  1.00  0.00     0.002 A 
HETATM    8  C   UNL     1     -45.420  59.675 -52.087  1.00  0.00     0.002 A 
HETATM    9  C   UNL     1     -44.689  58.506 -52.322  1.00  0.00     0.032 A 
HETATM   10  N   UNL     1     -44.189  58.591 -55.897  1.00  0.00    -0.339 N 
HETATM   11  C   UNL     1     -43.093  56.071 -53.558  1.00  0.00     0.281 A 
HETATM   12  O   UNL     1     -43.097  55.855 -52.345  1.00  0.00    -0.265 OA
HETATM   13  C   UNL     1     -42.440  55.047 -54.471  1.00  0.00     0.105 A 
HETATM   14  C   UNL     1     -42.465  55.254 -55.798  1.00  0.00     0.056 A 
HETATM   15  H   UNL     1     -44.651  58.689 -56.794  1.00  0.00     0.167 HD
ENDROOT
BRANCH   1  16
HETATM   16  C   UNL     1     -42.979  56.710 -57.853  1.00  0.00     0.255 C 
HETATM   17  N   UNL     1     -43.702  55.806 -58.589  1.00  0.00    -0.353 N 
HETATM   18  H   UNL     1     -44.174  55.037 -58.131  1.00  0.00     0.163 HD
HETATM   19  O   UNL     1     -42.327  57.630 -58.336  1.00  0.00    -0.268 OA
BRANCH  17  20
HETATM   20  C   UNL     1     -43.851  55.923 -60.019  1.00  0.00     0.161 C 
BRANCH  20  21
HETATM   21  C   UNL     1     -45.152  56.604 -60.355  1.00  0.00    -0.041 A 
HETATM   22  C   UNL     1     -45.289  57.993 -60.201  1.00  0.00     0.009 A 
HETATM   23  C   UNL     1     -46.509  58.618 -60.462  1.00  0.00     0.001 A 
HETATM   24  C   UNL     1     -47.602  57.863 -60.886  1.00  0.00     0.000 A 
HETATM   25  C   UNL     1     -47.477  56.485 -61.045  1.00  0.00     0.001 A 
HETATM   26  C   UNL     1     -46.259  55.856 -60.777  1.00  0.00     0.009 A 
ENDBRANCH  20  21
ENDBRANCH  17  20
ENDBRANCH   1  16
BRANCH  13  27
HETATM   27  N   UNL     1     -41.865  53.964 -53.827  1.00  0.00    -0.318 N 
HETATM   28  C   UNL     1     -40.668  53.341 -54.121  1.00  0.00     0.256 C 
HETATM   29  O   UNL     1     -39.913  53.656 -55.035  1.00  0.00    -0.267 OA
HETATM   30  H   UNL     1     -42.371  53.693 -52.987  1.00  0.00     0.169 HD
BRANCH  28  31
HETATM   31  C   UNL     1     -40.257  52.237 -53.204  1.00  0.00     0.032 A 
HETATM   32  C   UNL     1     -39.905  50.960 -53.666  1.00  0.00     0.020 A 
HETATM   33  C   UNL     1     -39.540  49.966 -52.752  1.00  0.00     0.043 A 
HETATM   34  C   UNL     1     -39.516  50.253 -51.390  1.00  0.00     0.116 A 
HETATM   35  F   UNL     1     -39.165  49.296 -50.521  1.00  0.00    -0.206 F 
HETATM   36  C   UNL     1     -39.843  51.518 -50.919  1.00  0.00     0.043 A 
HETATM   37  C   UNL     1     -40.211  52.513 -51.827  1.00  0.00     0.020 A 
ENDBRANCH  28  31
ENDBRANCH  13  27
TORSDOF 5
ENDMDL
MODEL 4
REMARK VINA RESULT:      -9.5      1.196      1.732
REMARK  5 active torsions:
REMARK  status: ('A' for Active; 'I' for Inactive)
REMARK    1  A    between atoms: C_4  and  C_5 
REMARK    2  A    between atoms: C_5  and  N_6 
REMARK       I    between atoms: N_6  and  C_7 
REMARK    3  A    between atoms: C_7  and  C_8 
REMARK    4  A    between atoms: C_20  and  N_21 
REMARK       I    between atoms: N_21  and  C_22 
REMARK    5  A    between atoms: C_22  and  C_23 
ROOT
HETATM    1  C   UNL     1     -42.026  58.659 -55.157  1.00  0.00     0.079 A 
HETATM    2  C   UNL     1     -42.248  59.581 -54.207  1.00  0.00     0.131 A 
HETATM    3  N   UNL     1     -42.120  59.228 -52.859  1.00  0.00    -0.259 N 
HETATM    4  C   UNL     1     -42.487  60.355 -52.090  1.00  0.00     0.071 A 
HETATM    5  C   UNL     1     -42.846  61.369 -53.010  1.00  0.00     0.061 A 
HETATM    6  C   UNL     1     -43.229  62.618 -52.578  1.00  0.00     0.032 A 
HETATM    7  C   UNL     1     -43.297  62.830 -51.196  1.00  0.00     0.002 A 
HETATM    8  C   UNL     1     -42.965  61.807 -50.283  1.00  0.00     0.002 A 
HETATM    9  C   UNL     1     -42.551  60.547 -50.727  1.00  0.00     0.032 A 
HETATM   10  N   UNL     1     -42.606  60.917 -54.318  1.00  0.00    -0.339 N 
HETATM   11  C   UNL     1     -41.736  57.989 -52.399  1.00  0.00     0.281 A 
HETATM   12  O   UNL     1     -41.598  57.647 -51.223  1.00  0.00    -0.265 OA
HETATM   13  C   UNL     1     -41.470  56.959 -53.484  1.00  0.00     0.105 A 
HETATM   14  C   UNL     1     -41.655  57.310 -54.767  1.00  0.00     0.056 A 
HETATM   15  H   UNL     1     -43.170  61.203 -55.111  1.00  0.00     0.167 HD
ENDROOT
BRANCH   1  16
HETATM   16  C   UNL     1     -42.153  59.055 -56.589  1.00  0.00     0.255 C 
HETATM   17  N   UNL     1     -42.819  58.133 -57.356  1.00  0.00    -0.353 N 
HETATM   18  H   UNL     1     -43.140  57.265 -56.945  1.00  0.00     0.163 HD
HETATM   19  O   UNL     1     -41.676  60.098 -57.022  1.00  0.00    -0.268 OA
BRANCH  17  20
HETATM   20  C   UNL     1     -43.119  58.363 -58.747  1.00  0.00     0.161 C 
BRANCH  20  21
HETATM   21  C   UNL     1     -43.992  57.260 -59.284  1.00  0.00    -0.041 A 
HETATM   22  C   UNL     1     -43.433  56.025 -59.651  1.00  0.00     0.009 A 
HETATM   23  C   UNL     1     -44.232  55.020 -60.198  1.00  0.00     0.001 A 
HETATM   24  C   UNL     1     -45.597  55.236 -60.378  1.00  0.00     0.000 A 
HETATM   25  C   UNL     1     -46.163  56.456 -60.016  1.00  0.00     0.001 A 
HETATM   26  C   UNL     1     -45.364  57.466 -59.476  1.00  0.00     0.009 A 
ENDBRANCH  20  21
ENDBRANCH  17  20
ENDBRANCH   1  16
BRANCH  13  27
HETATM   27  N   UNL     1     -41.052  55.719 -53.032  1.00  0.00    -0.318 N 
HETATM   28  C   UNL     1     -41.576  54.481 -53.347  1.00  0.00     0.256 C 
HETATM   29  O   UNL     1     -42.532  54.286 -54.091  1.00  0.00    -0.267 OA
HETATM   30  H   UNL     1     -40.195  55.769 -52.485  1.00  0.00     0.169 HD
BRANCH  28  31
HETATM   31  C   UNL     1     -40.872  53.299 -52.768  1.00  0.00     0.032 A 
HETATM   32  C   UNL     1     -40.299  52.294 -53.562  1.00  0.00     0.020 A 
HETATM   33  C   UNL     1     -39.663  51.206 -52.955  1.00  0.00     0.043 A 
HETATM   34  C   UNL     1     -39.592  51.132 -51.568  1.00  0.00     0.116 A 
HETATM   35  F   UNL     1     -38.982  50.087 -50.994  1.00  0.00    -0.206 F 
HETATM   36  C   UNL     1     -40.138  52.128 -50.768  1.00  0.00     0.043 A 
HETATM   37  C   UNL     1     -40.776  53.215 -51.369  1.00  0.00     0.020 A 
ENDBRANCH  28  31
ENDBRANCH  13  27
TORSDOF 5
ENDMDL
MODEL 5
REMARK VINA RESULT:      -9.3      3.166      7.009
REMARK  5 active torsions:
REMARK  status: ('A' for Active; 'I' for Inactive)
REMARK    1  A    between atoms: C_4  and  C_5 
REMARK    2  A    between atoms: C_5  and  N_6 
REMARK       I    between atoms: N_6  and  C_7 
REMARK    3  A    between atoms: C_7  and  C_8 
REMARK    4  A    between atoms: C_20  and  N_21 
REMARK       I    between atoms: N_21  and  C_22 
REMARK    5  A    between atoms: C_22  and  C_23 
ROOT
HETATM    1  C   UNL     1     -42.435  55.905 -55.218  1.00  0.00     0.079 A 
HETATM    2  C   UNL     1     -41.817  54.907 -54.567  1.00  0.00     0.131 A 
HETATM    3  N   UNL     1     -41.532  55.045 -53.203  1.00  0.00    -0.259 N 
HETATM    4  C   UNL     1     -40.815  53.895 -52.804  1.00  0.00     0.071 A 
HETATM    5  C   UNL     1     -40.673  53.089 -53.958  1.00  0.00     0.061 A 
HETATM    6  C   UNL     1     -40.039  51.869 -53.900  1.00  0.00     0.032 A 
HETATM    7  C   UNL     1     -39.499  51.480 -52.669  1.00  0.00     0.002 A 
HETATM    8  C   UNL     1     -39.618  52.301 -51.527  1.00  0.00     0.002 A 
HETATM    9  C   UNL     1     -40.287  53.528 -51.585  1.00  0.00     0.032 A 
HETATM   10  N   UNL     1     -41.376  53.674 -55.024  1.00  0.00    -0.339 N 
HETATM   11  C   UNL     1     -41.873  56.131 -52.429  1.00  0.00     0.281 A 
HETATM   12  O   UNL     1     -41.652  56.280 -51.226  1.00  0.00    -0.265 OA
HETATM   13  C   UNL     1     -42.588  57.246 -53.174  1.00  0.00     0.105 A 
HETATM   14  C   UNL     1     -42.799  57.111 -54.494  1.00  0.00     0.056 A 
HETATM   15  H   UNL     1     -41.077  53.594 -55.990  1.00  0.00     0.167 HD
ENDROOT
BRANCH   1  16
HETATM   16  C   UNL     1     -42.745  55.738 -56.667  1.00  0.00     0.255 C 
HETATM   17  N   UNL     1     -42.526  56.871 -57.408  1.00  0.00    -0.353 N 
HETATM   18  H   UNL     1     -42.218  57.723 -56.958  1.00  0.00     0.163 HD
HETATM   19  O   UNL     1     -43.178  54.686 -57.123  1.00  0.00    -0.268 OA
BRANCH  17  20
HETATM   20  C   UNL     1     -42.685  56.893 -58.842  1.00  0.00     0.161 C 
BRANCH  20  21
HETATM   21  C   UNL     1     -44.145  56.845 -59.207  1.00  0.00    -0.041 A 
HETATM   22  C   UNL     1     -45.065  57.701 -58.578  1.00  0.00     0.009 A 
HETATM   23  C   UNL     1     -46.426  57.622 -58.878  1.00  0.00     0.001 A 
HETATM   24  C   UNL     1     -46.881  56.692 -59.811  1.00  0.00     0.000 A 
HETATM   25  C   UNL     1     -45.978  55.839 -60.442  1.00  0.00     0.001 A 
HETATM   26  C   UNL     1     -44.616  55.912 -60.139  1.00  0.00     0.009 A 
ENDBRANCH  20  21
ENDBRANCH  17  20
ENDBRANCH   1  16
BRANCH  13  27
HETATM   27  N   UNL     1     -42.963  58.329 -52.397  1.00  0.00    -0.318 N 
HETATM   28  C   UNL     1     -44.147  58.509 -51.710  1.00  0.00     0.256 C 
HETATM   29  O   UNL     1     -45.083  57.715 -51.693  1.00  0.00    -0.267 OA
HETATM   30  H   UNL     1     -42.208  58.999 -52.267  1.00  0.00     0.169 HD
BRANCH  28  31
HETATM   31  C   UNL     1     -44.250  59.749 -50.885  1.00  0.00     0.032 A 
HETATM   32  C   UNL     1     -45.375  60.048 -50.102  1.00  0.00     0.020 A 
HETATM   33  C   UNL     1     -45.412  61.233 -49.361  1.00  0.00     0.043 A 
HETATM   34  C   UNL     1     -44.328  62.105 -49.395  1.00  0.00     0.116 A 
HETATM   35  F   UNL     1     -44.370  63.239 -48.684  1.00  0.00    -0.206 F 
HETATM   36  C   UNL     1     -43.199  61.815 -50.151  1.00  0.00     0.043 A 
HETATM   37  C   UNL     1     -43.158  60.633 -50.894  1.00  0.00     0.020 A 
ENDBRANCH  28  31
ENDBRANCH  13  27
TORSDOF 5
ENDMDL
MODEL 6
REMARK VINA RESULT:      -9.2      3.379      7.315
REMARK  5 active torsions:
REMARK  status: ('A' for Active; 'I' for Inactive)
REMARK    1  A    between atoms: C_4  and  C_5 
REMARK    2  A    between atoms: C_5  and  N_6 
REMARK       I    between atoms: N_6  and  C_7 
REMARK    3  A    between atoms: C_7  and  C_8 
REMARK    4  A    between atoms: C_20  and  N_21 
REMARK       I    between atoms: N_21  and  C_22 
REMARK    5  A    between atoms: C_22  and  C_23 
ROOT
HETATM    1  C   UNL     1     -42.342  56.099 -55.171  1.00  0.00     0.079 A 
HETATM    2  C   UNL     1     -41.750  55.073 -54.539  1.00  0.00     0.131 A 
HETATM    3  N   UNL     1     -41.496  55.161 -53.165  1.00  0.00    -0.259 N 
HETATM    4  C   UNL     1     -40.800  53.991 -52.788  1.00  0.00     0.071 A 
HETATM    5  C   UNL     1     -40.637  53.224 -53.966  1.00  0.00     0.061 A 
HETATM    6  C   UNL     1     -40.015  51.997 -53.935  1.00  0.00     0.032 A 
HETATM    7  C   UNL     1     -39.508  51.561 -52.705  1.00  0.00     0.002 A 
HETATM    8  C   UNL     1     -39.649  52.343 -51.538  1.00  0.00     0.002 A 
HETATM    9  C   UNL     1     -40.305  53.578 -51.570  1.00  0.00     0.032 A 
HETATM   10  N   UNL     1     -41.307  53.852 -55.028  1.00  0.00    -0.339 N 
HETATM   11  C   UNL     1     -41.847  56.224 -52.363  1.00  0.00     0.281 A 
HETATM   12  O   UNL     1     -41.655  56.329 -51.151  1.00  0.00    -0.265 OA
HETATM   13  C   UNL     1     -42.534  57.370 -53.087  1.00  0.00     0.105 A 
HETATM   14  C   UNL     1     -42.713  57.282 -54.415  1.00  0.00     0.056 A 
HETATM   15  H   UNL     1     -40.986  53.802 -55.989  1.00  0.00     0.167 HD
ENDROOT
BRANCH   1  16
HETATM   16  C   UNL     1     -42.618  55.984 -56.631  1.00  0.00     0.255 C 
HETATM   17  N   UNL     1     -42.256  57.097 -57.347  1.00  0.00    -0.353 N 
HETATM   18  H   UNL     1     -41.877  57.907 -56.872  1.00  0.00     0.163 HD
HETATM   19  O   UNL     1     -43.142  54.989 -57.120  1.00  0.00    -0.268 OA
BRANCH  17  20
HETATM   20  C   UNL     1     -42.362  57.155 -58.784  1.00  0.00     0.161 C 
BRANCH  20  21
HETATM   21  C   UNL     1     -42.154  58.566 -59.268  1.00  0.00    -0.041 A 
HETATM   22  C   UNL     1     -42.131  58.851 -60.643  1.00  0.00     0.009 A 
HETATM   23  C   UNL     1     -41.887  60.149 -61.093  1.00  0.00     0.001 A 
HETATM   24  C   UNL     1     -41.669  61.176 -60.176  1.00  0.00     0.000 A 
HETATM   25  C   UNL     1     -41.692  60.905 -58.809  1.00  0.00     0.001 A 
HETATM   26  C   UNL     1     -41.929  59.605 -58.356  1.00  0.00     0.009 A 
ENDBRANCH  20  21
ENDBRANCH  17  20
ENDBRANCH   1  16
BRANCH  13  27
HETATM   27  N   UNL     1     -42.919  58.429 -52.282  1.00  0.00    -0.318 N 
HETATM   28  C   UNL     1     -44.157  58.655 -51.713  1.00  0.00     0.256 C 
HETATM   29  O   UNL     1     -45.140  57.934 -51.850  1.00  0.00    -0.267 OA
HETATM   30  H   UNL     1     -42.140  59.033 -52.027  1.00  0.00     0.169 HD
BRANCH  28  31
HETATM   31  C   UNL     1     -44.266  59.847 -50.822  1.00  0.00     0.032 A 
HETATM   32  C   UNL     1     -45.365  60.064 -49.977  1.00  0.00     0.020 A 
HETATM   33  C   UNL     1     -45.411  61.209 -49.175  1.00  0.00     0.043 A 
HETATM   34  C   UNL     1     -44.361  62.122 -49.211  1.00  0.00     0.116 A 
HETATM   35  F   UNL     1     -44.411  63.216 -48.440  1.00  0.00    -0.206 F 
HETATM   36  C   UNL     1     -43.257  61.912 -50.028  1.00  0.00     0.043 A 
HETATM   37  C   UNL     1     -43.208  60.772 -50.833  1.00  0.00     0.020 A 
ENDBRANCH  28  31
ENDBRANCH  13  27
TORSDOF 5
ENDMDL
MODEL 7
REMARK VINA RESULT:      -9.0      3.035      8.573
REMARK  5 active torsions:
REMARK  status: ('A' for Active; 'I' for Inactive)
REMARK    1  A    between atoms: C_4  and  C_5 
REMARK    2  A    between atoms: C_5  and  N_6 
REMARK       I    between atoms: N_6  and  C_7 
REMARK    3  A    between atoms: C_7  and  C_8 
REMARK    4  A    between atoms: C_20  and  N_21 
REMARK       I    between atoms: N_21  and  C_22 
REMARK    5  A    between atoms: C_22  and  C_23 
ROOT
HETATM    1  C   UNL     1     -42.108  56.379 -52.580  1.00  0.00     0.079 A 
HETATM    2  C   UNL     1     -41.495  55.188 -52.667  1.00  0.00     0.131 A 
HETATM    3  N   UNL     1     -41.730  54.369 -53.777  1.00  0.00    -0.259 N 
HETATM    4  C   UNL     1     -41.031  53.160 -53.566  1.00  0.00     0.071 A 
HETATM    5  C   UNL     1     -40.394  53.279 -52.308  1.00  0.00     0.061 A 
HETATM    6  C   UNL     1     -39.599  52.269 -51.816  1.00  0.00     0.032 A 
HETATM    7  C   UNL     1     -39.485  51.105 -52.584  1.00  0.00     0.002 A 
HETATM    8  C   UNL     1     -40.144  50.980 -53.826  1.00  0.00     0.002 A 
HETATM    9  C   UNL     1     -40.930  52.020 -54.334  1.00  0.00     0.032 A 
HETATM   10  N   UNL     1     -40.607  54.570 -51.798  1.00  0.00    -0.339 N 
HETATM   11  C   UNL     1     -42.530  54.700 -54.848  1.00  0.00     0.281 A 
HETATM   12  O   UNL     1     -42.748  54.013 -55.847  1.00  0.00    -0.265 OA
HETATM   13  C   UNL     1     -43.204  56.058 -54.746  1.00  0.00     0.105 A 
HETATM   14  C   UNL     1     -43.004  56.798 -53.644  1.00  0.00     0.056 A 
HETATM   15  H   UNL     1     -40.685  54.764 -50.806  1.00  0.00     0.167 HD
ENDROOT
BRANCH   1  16
HETATM   16  C   UNL     1     -41.836  57.245 -51.397  1.00  0.00     0.255 C 
HETATM   17  N   UNL     1     -41.890  58.587 -51.677  1.00  0.00    -0.353 N 
HETATM   18  H   UNL     1     -42.064  58.904 -52.622  1.00  0.00     0.163 HD
HETATM   19  O   UNL     1     -41.568  56.779 -50.296  1.00  0.00    -0.268 OA
BRANCH  17  20
HETATM   20  C   UNL     1     -41.738  59.592 -50.653  1.00  0.00     0.161 C 
BRANCH  20  21
HETATM   21  C   UNL     1     -42.964  60.464 -50.590  1.00  0.00    -0.041 A 
HETATM   22  C   UNL     1     -42.859  61.814 -50.218  1.00  0.00     0.009 A 
HETATM   23  C   UNL     1     -44.000  62.610 -50.109  1.00  0.00     0.001 A 
HETATM   24  C   UNL     1     -45.256  62.067 -50.375  1.00  0.00     0.000 A 
HETATM   25  C   UNL     1     -45.372  60.730 -50.748  1.00  0.00     0.001 A 
HETATM   26  C   UNL     1     -44.232  59.930 -50.851  1.00  0.00     0.009 A 
ENDBRANCH  20  21
ENDBRANCH  17  20
ENDBRANCH   1  16
BRANCH  13  27
HETATM   27  N   UNL     1     -43.985  56.413 -55.834  1.00  0.00    -0.318 N 
HETATM   28  C   UNL     1     -43.600  57.107 -56.963  1.00  0.00     0.256 C 
HETATM   29  O   UNL     1     -42.471  57.542 -57.176  1.00  0.00    -0.267 OA
HETATM   30  H   UNL     1     -44.917  56.007 -55.796  1.00  0.00     0.169 HD
BRANCH  28  31
HETATM   31  C   UNL     1     -44.641  57.282 -58.018  1.00  0.00     0.032 A 
HETATM   32  C   UNL     1     -45.746  58.132 -57.859  1.00  0.00     0.020 A 
HETATM   33  C   UNL     1     -46.692  58.242 -58.883  1.00  0.00     0.043 A 
HETATM   34  C   UNL     1     -46.527  57.515 -60.059  1.00  0.00     0.116 A 
HETATM   35  F   UNL     1     -47.438  57.625 -61.035  1.00  0.00    -0.206 F 
HETATM   36  C   UNL     1     -45.429  56.684 -60.238  1.00  0.00     0.043 A 
HETATM   37  C   UNL     1     -44.482  56.569 -59.218  1.00  0.00     0.020 A 
ENDBRANCH  28  31
ENDBRANCH  13  27
TORSDOF 5
ENDMDL
MODEL 8
REMARK VINA RESULT:      -8.9      3.457      7.758
REMARK  5 active torsions:
REMARK  status: ('A' for Active; 'I' for Inactive)
REMARK    1  A    between atoms: C_4  and  C_5 
REMARK    2  A    between atoms: C_5  and  N_6 
REMARK       I    between atoms: N_6  and  C_7 
REMARK    3  A    between atoms: C_7  and  C_8 
REMARK    4  A    between atoms: C_20  and  N_21 
REMARK       I    between atoms: N_21  and  C_22 
REMARK    5  A    between atoms: C_22  and  C_23 
ROOT
HETATM    1  C   UNL     1     -43.468  57.827 -52.190  1.00  0.00     0.079 A 
HETATM    2  C   UNL     1     -42.654  56.884 -51.690  1.00  0.00     0.131 A 
HETATM    3  N   UNL     1     -42.294  55.790 -52.484  1.00  0.00    -0.259 N 
HETATM    4  C   UNL     1     -41.510  54.928 -51.685  1.00  0.00     0.071 A 
HETATM    5  C   UNL     1     -41.429  55.528 -50.406  1.00  0.00     0.061 A 
HETATM    6  C   UNL     1     -40.702  54.947 -49.393  1.00  0.00     0.032 A 
HETATM    7  C   UNL     1     -40.088  53.718 -49.661  1.00  0.00     0.002 A 
HETATM    8  C   UNL     1     -40.196  53.109 -50.930  1.00  0.00     0.002 A 
HETATM    9  C   UNL     1     -40.914  53.717 -51.965  1.00  0.00     0.032 A 
HETATM   10  N   UNL     1     -42.058  56.783 -50.441  1.00  0.00    -0.339 N 
HETATM   11  C   UNL     1     -42.678  55.602 -53.793  1.00  0.00     0.281 A 
HETATM   12  O   UNL     1     -42.369  54.661 -54.526  1.00  0.00    -0.265 OA
HETATM   13  C   UNL     1     -43.585  56.685 -54.353  1.00  0.00     0.105 A 
HETATM   14  C   UNL     1     -43.959  57.694 -53.551  1.00  0.00     0.056 A 
HETATM   15  H   UNL     1     -42.540  57.180 -49.641  1.00  0.00     0.167 HD
ENDROOT
BRANCH   1  16
HETATM   16  C   UNL     1     -43.831  58.994 -51.336  1.00  0.00     0.255 C 
HETATM   17  N   UNL     1     -45.178  59.105 -51.103  1.00  0.00    -0.353 N 
HETATM   18  H   UNL     1     -45.824  58.450 -51.526  1.00  0.00     0.163 HD
HETATM   19  O   UNL     1     -42.990  59.780 -50.915  1.00  0.00    -0.268 OA
BRANCH  17  20
HETATM   20  C   UNL     1     -45.727  60.116 -50.234  1.00  0.00     0.161 C 
BRANCH  20  21
HETATM   21  C   UNL     1     -46.208  61.294 -51.039  1.00  0.00    -0.041 A 
HETATM   22  C   UNL     1     -46.972  61.097 -52.201  1.00  0.00     0.009 A 
HETATM   23  C   UNL     1     -47.375  62.185 -52.977  1.00  0.00     0.001 A 
HETATM   24  C   UNL     1     -47.024  63.479 -52.598  1.00  0.00     0.000 A 
HETATM   25  C   UNL     1     -46.269  63.687 -51.446  1.00  0.00     0.001 A 
HETATM   26  C   UNL     1     -45.858  62.599 -50.671  1.00  0.00     0.009 A 
ENDBRANCH  20  21
ENDBRANCH  17  20
ENDBRANCH   1  16
BRANCH  13  27
HETATM   27  N   UNL     1     -43.950  56.521 -55.679  1.00  0.00    -0.318 N 
HETATM   28  C   UNL     1     -43.332  57.039 -56.799  1.00  0.00     0.256 C 
HETATM   29  O   UNL     1     -42.338  57.760 -56.789  1.00  0.00    -0.267 OA
HETATM   30  H   UNL     1     -44.709  55.853 -55.797  1.00  0.00     0.169 HD
BRANCH  28  31
HETATM   31  C   UNL     1     -43.903  56.632 -58.117  1.00  0.00     0.032 A 
HETATM   32  C   UNL     1     -44.847  57.407 -58.806  1.00  0.00     0.020 A 
HETATM   33  C   UNL     1     -45.351  56.962 -60.032  1.00  0.00     0.043 A 
HETATM   34  C   UNL     1     -44.905  55.758 -60.568  1.00  0.00     0.116 A 
HETATM   35  F   UNL     1     -45.393  55.338 -61.742  1.00  0.00    -0.206 F 
HETATM   36  C   UNL     1     -43.957  54.988 -59.906  1.00  0.00     0.043 A 
HETATM   37  C   UNL     1     -43.452  55.427 -58.681  1.00  0.00     0.020 A 
ENDBRANCH  28  31
ENDBRANCH  13  27
TORSDOF 5
ENDMDL
MODEL 9
REMARK VINA RESULT:      -8.8      1.685      6.251
REMARK  5 active torsions:
REMARK  status: ('A' for Active; 'I' for Inactive)
REMARK    1  A    between atoms: C_4  and  C_5 
REMARK    2  A    between atoms: C_5  and  N_6 
REMARK       I    between atoms: N_6  and  C_7 
REMARK    3  A    between atoms: C_7  and  C_8 
REMARK    4  A    between atoms: C_20  and  N_21 
REMARK       I    between atoms: N_21  and  C_22 
REMARK    5  A    between atoms: C_22  and  C_23 
ROOT
HETATM    1  C   UNL     1     -42.015  58.352 -54.090  1.00  0.00     0.079 A 
HETATM    2  C   UNL     1     -42.710  58.461 -55.233  1.00  0.00     0.131 A 
HETATM    3  N   UNL     1     -42.825  57.352 -56.080  1.00  0.00    -0.259 N 
HETATM    4  C   UNL     1     -43.529  57.771 -57.231  1.00  0.00     0.071 A 
HETATM    5  C   UNL     1     -43.812  59.145 -57.050  1.00  0.00     0.061 A 
HETATM    6  C   UNL     1     -44.522  59.854 -57.992  1.00  0.00     0.032 A 
HETATM    7  C   UNL     1     -44.910  59.176 -59.154  1.00  0.00     0.002 A 
HETATM    8  C   UNL     1     -44.600  57.812 -59.341  1.00  0.00     0.002 A 
HETATM    9  C   UNL     1     -43.901  57.089 -58.369  1.00  0.00     0.032 A 
HETATM   10  N   UNL     1     -43.387  59.545 -55.773  1.00  0.00    -0.339 N 
HETATM   11  C   UNL     1     -42.306  56.103 -55.822  1.00  0.00     0.281 A 
HETATM   12  O   UNL     1     -42.400  55.103 -56.535  1.00  0.00    -0.265 OA
HETATM   13  C   UNL     1     -41.536  55.989 -54.516  1.00  0.00     0.105 A 
HETATM   14  C   UNL     1     -41.395  57.083 -53.751  1.00  0.00     0.056 A 
HETATM   15  H   UNL     1     -43.044  60.478 -55.574  1.00  0.00     0.167 HD
ENDROOT
BRANCH   1  16
HETATM   16  C   UNL     1     -41.914  59.538 -53.192  1.00  0.00     0.255 C 
HETATM   17  N   UNL     1     -42.010  59.227 -51.859  1.00  0.00    -0.353 N 
HETATM   18  H   UNL     1     -42.172  58.271 -51.570  1.00  0.00     0.163 HD
HETATM   19  O   UNL     1     -41.783  60.677 -53.628  1.00  0.00    -0.268 OA
BRANCH  17  20
HETATM   20  C   UNL     1     -41.854  60.220 -50.825  1.00  0.00     0.161 C 
BRANCH  20  21
HETATM   21  C   UNL     1     -43.178  60.865 -50.515  1.00  0.00    -0.041 A 
HETATM   22  C   UNL     1     -44.362  60.110 -50.541  1.00  0.00     0.009 A 
HETATM   23  C   UNL     1     -45.596  60.717 -50.305  1.00  0.00     0.001 A 
HETATM   24  C   UNL     1     -45.660  62.083 -50.035  1.00  0.00     0.000 A 
HETATM   25  C   UNL     1     -44.492  62.842 -50.004  1.00  0.00     0.001 A 
HETATM   26  C   UNL     1     -43.256  62.238 -50.247  1.00  0.00     0.009 A 
ENDBRANCH  20  21
ENDBRANCH  17  20
ENDBRANCH   1  16
BRANCH  13  27
HETATM   27  N   UNL     1     -41.038  54.728 -54.234  1.00  0.00    -0.318 N 
HETATM   28  C   UNL     1     -41.250  53.967 -53.101  1.00  0.00     0.256 C 
HETATM   29  O   UNL     1     -41.925  54.310 -52.135  1.00  0.00    -0.267 OA
HETATM   30  H   UNL     1     -40.545  54.315 -55.023  1.00  0.00     0.169 HD
BRANCH  28  31
HETATM   31  C   UNL     1     -40.646  52.602 -53.100  1.00  0.00     0.032 A 
HETATM   32  C   UNL     1     -40.632  51.778 -54.235  1.00  0.00     0.020 A 
HETATM   33  C   UNL     1     -40.059  50.504 -54.163  1.00  0.00     0.043 A 
HETATM   34  C   UNL     1     -39.496  50.065 -52.968  1.00  0.00     0.116 A 
HETATM   35  F   UNL     1     -38.950  48.844 -52.906  1.00  0.00    -0.206 F 
HETATM   36  C   UNL     1     -39.486  50.876 -51.841  1.00  0.00     0.043 A 
HETATM   37  C   UNL     1     -40.058  52.148 -51.907  1.00  0.00     0.020 A 
ENDBRANCH  28  31
ENDBRANCH  13  27
TORSDOF 5
ENDMDL
MODEL 10
REMARK VINA RESULT:      -8.8      2.259      6.440
REMARK  5 active torsions:
REMARK  status: ('A' for Active; 'I' for Inactive)
REMARK    1  A    between atoms: C_4  and  C_5 
REMARK    2  A    between atoms: C_5  and  N_6 
REMARK       I    between atoms: N_6  and  C_7 
REMARK    3  A    between atoms: C_7  and  C_8 
REMARK    4  A    between atoms: C_20  and  N_21 
REMARK       I    between atoms: N_21  and  C_22 
REMARK    5  A    between atoms: C_22  and  C_23 
ROOT
HETATM    1  C   UNL     1     -44.305  57.743 -52.650  1.00  0.00     0.079 A 
HETATM    2  C   UNL     1     -44.671  58.123 -53.885  1.00  0.00     0.131 A 
HETATM    3  N   UNL     1     -44.274  57.359 -54.989  1.00  0.00    -0.259 N 
HETATM    4  C   UNL     1     -44.723  58.029 -56.149  1.00  0.00     0.071 A 
HETATM    5  C   UNL     1     -45.376  59.204 -55.707  1.00  0.00     0.061 A 
HETATM    6  C   UNL     1     -45.958  60.073 -56.601  1.00  0.00     0.032 A 
HETATM    7  C   UNL     1     -45.838  59.774 -57.963  1.00  0.00     0.002 A 
HETATM    8  C   UNL     1     -45.161  58.615 -58.400  1.00  0.00     0.002 A 
HETATM    9  C   UNL     1     -44.594  57.721 -57.486  1.00  0.00     0.032 A 
HETATM   10  N   UNL     1     -45.423  59.211 -54.303  1.00  0.00    -0.339 N 
HETATM   11  C   UNL     1     -43.551  56.189 -54.922  1.00  0.00     0.281 A 
HETATM   12  O   UNL     1     -43.199  55.484 -55.869  1.00  0.00    -0.265 OA
HETATM   13  C   UNL     1     -43.159  55.760 -53.518  1.00  0.00     0.105 A 
HETATM   14  C   UNL     1     -43.505  56.542 -52.483  1.00  0.00     0.056 A 
HETATM   15  H   UNL     1     -45.389  60.064 -53.756  1.00  0.00     0.167 HD
ENDROOT
BRANCH   1  16
HETATM   16  C   UNL     1     -44.747  58.560 -51.484  1.00  0.00     0.255 C 
HETATM   17  N   UNL     1     -43.931  59.631 -51.224  1.00  0.00    -0.353 N 
HETATM   18  H   UNL     1     -43.099  59.785 -51.780  1.00  0.00     0.163 HD
HETATM   19  O   UNL     1     -45.735  58.267 -50.820  1.00  0.00    -0.268 OA
BRANCH  17  20
HETATM   20  C   UNL     1     -44.229  60.592 -50.191  1.00  0.00     0.161 C 
BRANCH  20  21
HETATM   21  C   UNL     1     -43.856  61.979 -50.642  1.00  0.00    -0.041 A 
HETATM   22  C   UNL     1     -43.749  62.279 -52.010  1.00  0.00     0.009 A 
HETATM   23  C   UNL     1     -43.353  63.549 -52.429  1.00  0.00     0.001 A 
HETATM   24  C   UNL     1     -43.064  64.535 -51.487  1.00  0.00     0.000 A 
HETATM   25  C   UNL     1     -43.169  64.250 -50.127  1.00  0.00     0.001 A 
HETATM   26  C   UNL     1     -43.558  62.977 -49.705  1.00  0.00     0.009 A 
ENDBRANCH  20  21
ENDBRANCH  17  20
ENDBRANCH   1  16
BRANCH  13  27
HETATM   27  N   UNL     1     -42.459  54.568 -53.439  1.00  0.00    -0.318 N 
HETATM   28  C   UNL     1     -41.122  54.351 -53.707  1.00  0.00     0.256 C 
HETATM   29  O   UNL     1     -40.327  55.209 -54.080  1.00  0.00    -0.267 OA
HETATM   30  H   UNL     1     -43.013  53.813 -53.039  1.00  0.00     0.169 HD
BRANCH  28  31
HETATM   31  C   UNL     1     -40.616  52.968 -53.462  1.00  0.00     0.032 A 
HETATM   32  C   UNL     1     -40.582  51.985 -54.462  1.00  0.00     0.020 A 
HETATM   33  C   UNL     1     -40.105  50.705 -54.163  1.00  0.00     0.043 A 
HETATM   34  C   UNL     1     -39.657  50.415 -52.878  1.00  0.00     0.116 A 
HETATM   35  F   UNL     1     -39.203  49.187 -52.599  1.00  0.00    -0.206 F 
HETATM   36  C   UNL     1     -39.667  51.383 -51.882  1.00  0.00     0.043 A 
HETATM   37  C   UNL     1     -40.144  52.663 -52.174  1.00  0.00     0.020 A 
ENDBRANCH  28  31
ENDBRANCH  13  27
TORSDOF 5
ENDMDL
