MODEL 1
REMARK VINA RESULT:      -7.2      0.000      0.000
REMARK  6 active torsions:
REMARK  status: ('A' for Active; 'I' for Inactive)
REMARK    1  A    between atoms: C_2  and  O_3 
REMARK    2  A    between atoms: O_3  and  C_4 
REMARK    3  A    between atoms: C_4  and  C_5 
REMARK    4  A    between atoms: C_6  and  O_7 
REMARK    5  A    between atoms: C_12  and  O_13 
REMARK    6  A    between atoms: C_17  and  C_18 
ROOT
HETATM    1  C   UNL     1     -41.319  55.202 -51.844  1.00  0.00     0.133 C 
HETATM    2  C   UNL     1     -41.922  55.454 -50.420  1.00  0.00     0.073 C 
HETATM    3  C   UNL     1     -41.776  54.219 -49.515  1.00  0.00     0.047 C 
HETATM    4  C   UNL     1     -41.212  56.652 -49.710  1.00  0.00     0.097 C 
HETATM    5  C   UNL     1     -40.951  57.752 -50.673  1.00  0.00     0.042 A 
HETATM    6  C   UNL     1     -40.961  57.682 -52.050  1.00  0.00     0.030 A 
HETATM    7  C   UNL     1     -40.619  58.985 -52.442  1.00  0.00     0.190 A 
HETATM    8  N   UNL     1     -40.400  59.809 -51.425  1.00  0.00    -0.149 NA
HETATM    9  N   UNL     1     -40.635  59.040 -50.347  1.00  0.00    -0.279 N 
HETATM   10  H   UNL     1     -40.548  59.461 -49.428  1.00  0.00     0.189 HD
HETATM   11  C   UNL     1     -41.254  56.427 -52.801  1.00  0.00     0.075 C 
ENDROOT
BRANCH  11  12
HETATM   12  C   UNL     1     -42.468  56.709 -53.673  1.00  0.00    -0.045 A 
HETATM   13  C   UNL     1     -42.497  56.484 -55.059  1.00  0.00     0.050 A 
HETATM   14  C   UNL     1     -43.640  56.776 -55.799  1.00  0.00     0.117 A 
HETATM   15  F   UNL     1     -43.644  56.560 -57.120  1.00  0.00    -0.206 F 
HETATM   16  C   UNL     1     -44.777  57.291 -55.190  1.00  0.00     0.042 A 
HETATM   17  C   UNL     1     -44.772  57.522 -53.818  1.00  0.00     0.004 A 
HETATM   18  C   UNL     1     -43.626  57.238 -53.068  1.00  0.00     0.008 A 
ENDBRANCH  11  12
BRANCH   1  19
HETATM   19  C   UNL     1     -41.885  54.016 -52.593  1.00  0.00     0.267 C 
HETATM   20  O   UNL     1     -43.082  53.884 -52.824  1.00  0.00    -0.265 OA
BRANCH  19  21
HETATM   21  O   UNL     1     -40.925  53.113 -52.927  1.00  0.00    -0.316 OA
BRANCH  21  22
HETATM   22  C   UNL     1     -40.920  52.645 -54.290  1.00  0.00     0.123 C 
HETATM   23  C   UNL     1     -40.244  51.282 -54.364  1.00  0.00     0.040 C 
HETATM   24  C   UNL     1     -40.146  53.674 -55.106  1.00  0.00     0.040 C 
ENDBRANCH  21  22
ENDBRANCH  19  21
ENDBRANCH   1  19
BRANCH   2  25
HETATM   25  O   UNL     1     -43.319  55.768 -50.471  1.00  0.00    -0.389 OA
HETATM   26  H   UNL     1     -43.799  55.089 -49.957  1.00  0.00     0.210 HD
ENDBRANCH   2  25
BRANCH   7  27
HETATM   27  O   UNL     1     -40.496  59.502 -53.667  1.00  0.00    -0.343 OA
HETATM   28  H   UNL     1     -41.299  59.317 -54.175  1.00  0.00     0.219 HD
ENDBRANCH   7  27
TORSDOF 6
ENDMDL
MODEL 2
REMARK VINA RESULT:      -7.2      2.929      4.650
REMARK  6 active torsions:
REMARK  status: ('A' for Active; 'I' for Inactive)
REMARK    1  A    between atoms: C_2  and  O_3 
REMARK    2  A    between atoms: O_3  and  C_4 
REMARK    3  A    between atoms: C_4  and  C_5 
REMARK    4  A    between atoms: C_6  and  O_7 
REMARK    5  A    between atoms: C_12  and  O_13 
REMARK    6  A    between atoms: C_17  and  C_18 
ROOT
HETATM    1  C   UNL     1     -42.707  54.224 -53.325  1.00  0.00     0.133 C 
HETATM    2  C   UNL     1     -41.266  54.064 -53.920  1.00  0.00     0.073 C 
HETATM    3  C   UNL     1     -40.638  52.715 -53.531  1.00  0.00     0.047 C 
HETATM    4  C   UNL     1     -41.287  54.149 -55.479  1.00  0.00     0.097 C 
HETATM    5  C   UNL     1     -42.226  55.205 -55.936  1.00  0.00     0.042 A 
HETATM    6  C   UNL     1     -43.227  55.810 -55.204  1.00  0.00     0.030 A 
HETATM    7  C   UNL     1     -43.813  56.691 -56.126  1.00  0.00     0.190 A 
HETATM    8  N   UNL     1     -43.257  56.652 -57.330  1.00  0.00    -0.149 NA
HETATM    9  N   UNL     1     -42.267  55.753 -57.186  1.00  0.00    -0.279 N 
HETATM   10  H   UNL     1     -41.673  55.559 -57.985  1.00  0.00     0.189 HD
HETATM   11  C   UNL     1     -43.515  55.472 -53.780  1.00  0.00     0.075 C 
ENDROOT
BRANCH  11  12
HETATM   12  C   UNL     1     -43.348  56.755 -52.980  1.00  0.00    -0.045 A 
HETATM   13  C   UNL     1     -42.219  57.585 -53.071  1.00  0.00     0.050 A 
HETATM   14  C   UNL     1     -42.128  58.740 -52.299  1.00  0.00     0.117 A 
HETATM   15  F   UNL     1     -41.039  59.514 -52.396  1.00  0.00    -0.206 F 
HETATM   16  C   UNL     1     -43.145  59.103 -51.426  1.00  0.00     0.042 A 
HETATM   17  C   UNL     1     -44.273  58.297 -51.319  1.00  0.00     0.004 A 
HETATM   18  C   UNL     1     -44.371  57.131 -52.086  1.00  0.00     0.008 A 
ENDBRANCH  11  12
BRANCH   1  19
HETATM   19  C   UNL     1     -42.813  54.085 -51.822  1.00  0.00     0.267 C 
HETATM   20  O   UNL     1     -43.854  53.777 -51.254  1.00  0.00    -0.265 OA
BRANCH  19  21
HETATM   21  O   UNL     1     -41.645  54.387 -51.193  1.00  0.00    -0.316 OA
BRANCH  21  22
HETATM   22  C   UNL     1     -41.744  54.872 -49.840  1.00  0.00     0.123 C 
HETATM   23  C   UNL     1     -41.242  56.309 -49.771  1.00  0.00     0.040 C 
HETATM   24  C   UNL     1     -40.879  53.959 -48.979  1.00  0.00     0.040 C 
ENDBRANCH  21  22
ENDBRANCH  19  21
ENDBRANCH   1  19
BRANCH   2  25
HETATM   25  O   UNL     1     -40.374  55.086 -53.458  1.00  0.00    -0.389 OA
HETATM   26  H   UNL     1     -39.529  54.987 -53.940  1.00  0.00     0.210 HD
ENDBRANCH   2  25
BRANCH   7  27
HETATM   27  O   UNL     1     -44.822  57.550 -55.962  1.00  0.00    -0.343 OA
HETATM   28  H   UNL     1     -44.815  57.882 -55.052  1.00  0.00     0.219 HD
ENDBRANCH   7  27
TORSDOF 6
ENDMDL
MODEL 3
REMARK VINA RESULT:      -6.9      3.293      5.400
REMARK  6 active torsions:
REMARK  status: ('A' for Active; 'I' for Inactive)
REMARK    1  A    between atoms: C_2  and  O_3 
REMARK    2  A    between atoms: O_3  and  C_4 
REMARK    3  A    between atoms: C_4  and  C_5 
REMARK    4  A    between atoms: C_6  and  O_7 
REMARK    5  A    between atoms: C_12  and  O_13 
REMARK    6  A    between atoms: C_17  and  C_18 
ROOT
HETATM    1  C   UNL     1     -42.686  58.049 -54.370  1.00  0.00     0.133 C 
HETATM    2  C   UNL     1     -44.218  58.140 -54.056  1.00  0.00     0.073 C 
HETATM    3  C   UNL     1     -44.518  59.216 -52.998  1.00  0.00     0.047 C 
HETATM    4  C   UNL     1     -45.037  58.491 -55.339  1.00  0.00     0.097 C 
HETATM    5  C   UNL     1     -44.506  57.761 -56.518  1.00  0.00     0.042 A 
HETATM    6  C   UNL     1     -43.279  57.142 -56.638  1.00  0.00     0.030 A 
HETATM    7  C   UNL     1     -43.293  56.651 -57.952  1.00  0.00     0.190 A 
HETATM    8  N   UNL     1     -44.407  56.933 -58.616  1.00  0.00    -0.149 NA
HETATM    9  N   UNL     1     -45.150  57.591 -57.710  1.00  0.00    -0.279 N 
HETATM   10  H   UNL     1     -46.077  57.902 -57.982  1.00  0.00     0.189 HD
HETATM   11  C   UNL     1     -42.267  57.116 -55.542  1.00  0.00     0.075 C 
ENDROOT
BRANCH  11  12
HETATM   12  C   UNL     1     -42.001  55.653 -55.222  1.00  0.00    -0.045 A 
HETATM   13  C   UNL     1     -40.715  55.124 -55.027  1.00  0.00     0.050 A 
HETATM   14  C   UNL     1     -40.544  53.770 -54.748  1.00  0.00     0.117 A 
HETATM   15  F   UNL     1     -39.309  53.284 -54.572  1.00  0.00    -0.206 F 
HETATM   16  C   UNL     1     -41.632  52.913 -54.652  1.00  0.00     0.042 A 
HETATM   17  C   UNL     1     -42.916  53.415 -54.842  1.00  0.00     0.004 A 
HETATM   18  C   UNL     1     -43.097  54.772 -55.130  1.00  0.00     0.008 A 
ENDBRANCH  11  12
BRANCH   1  19
HETATM   19  C   UNL     1     -41.788  57.785 -53.181  1.00  0.00     0.267 C 
HETATM   20  O   UNL     1     -40.627  58.172 -53.124  1.00  0.00    -0.265 OA
BRANCH  19  21
HETATM   21  O   UNL     1     -42.406  57.038 -52.227  1.00  0.00    -0.316 OA
BRANCH  21  22
HETATM   22  C   UNL     1     -41.607  56.033 -51.572  1.00  0.00     0.123 C 
HETATM   23  C   UNL     1     -42.400  54.738 -51.458  1.00  0.00     0.040 C 
HETATM   24  C   UNL     1     -41.261  56.575 -50.190  1.00  0.00     0.040 C 
ENDBRANCH  21  22
ENDBRANCH  19  21
ENDBRANCH   1  19
BRANCH   2  25
HETATM   25  O   UNL     1     -44.741  56.905 -53.552  1.00  0.00    -0.389 OA
HETATM   26  H   UNL     1     -45.703  56.893 -53.724  1.00  0.00     0.210 HD
ENDBRANCH   2  25
BRANCH   7  27
HETATM   27  O   UNL     1     -42.367  55.948 -58.609  1.00  0.00    -0.343 OA
HETATM   28  H   UNL     1     -41.487  56.243 -58.335  1.00  0.00     0.219 HD
ENDBRANCH   7  27
TORSDOF 6
ENDMDL
MODEL 4
REMARK VINA RESULT:      -6.9      3.256      5.658
REMARK  6 active torsions:
REMARK  status: ('A' for Active; 'I' for Inactive)
REMARK    1  A    between atoms: C_2  and  O_3 
REMARK    2  A    between atoms: O_3  and  C_4 
REMARK    3  A    between atoms: C_4  and  C_5 
REMARK    4  A    between atoms: C_6  and  O_7 
REMARK    5  A    between atoms: C_12  and  O_13 
REMARK    6  A    between atoms: C_17  and  C_18 
ROOT
HETATM    1  C   UNL     1     -42.050  58.847 -54.341  1.00  0.00     0.133 C 
HETATM    2  C   UNL     1     -43.510  59.282 -53.978  1.00  0.00     0.073 C 
HETATM    3  C   UNL     1     -43.539  60.660 -53.297  1.00  0.00     0.047 C 
HETATM    4  C   UNL     1     -44.409  59.360 -55.253  1.00  0.00     0.097 C 
HETATM    5  C   UNL     1     -44.118  58.231 -56.172  1.00  0.00     0.042 A 
HETATM    6  C   UNL     1     -43.009  57.409 -56.166  1.00  0.00     0.030 A 
HETATM    7  C   UNL     1     -43.236  56.554 -57.255  1.00  0.00     0.190 A 
HETATM    8  N   UNL     1     -44.366  56.803 -57.904  1.00  0.00    -0.149 NA
HETATM    9  N   UNL     1     -44.907  57.819 -57.208  1.00  0.00    -0.279 N 
HETATM   10  H   UNL     1     -45.806  58.183 -57.507  1.00  0.00     0.189 HD
HETATM   11  C   UNL     1     -41.897  57.548 -55.183  1.00  0.00     0.075 C 
ENDROOT
BRANCH  11  12
HETATM   12  C   UNL     1     -41.803  56.226 -54.435  1.00  0.00    -0.045 A 
HETATM   13  C   UNL     1     -42.861  55.678 -53.692  1.00  0.00     0.050 A 
HETATM   14  C   UNL     1     -42.700  54.468 -53.021  1.00  0.00     0.117 A 
HETATM   15  F   UNL     1     -43.720  53.967 -52.313  1.00  0.00    -0.206 F 
HETATM   16  C   UNL     1     -41.500  53.773 -53.071  1.00  0.00     0.042 A 
HETATM   17  C   UNL     1     -40.438  54.296 -53.802  1.00  0.00     0.004 A 
HETATM   18  C   UNL     1     -40.587  55.514 -54.473  1.00  0.00     0.008 A 
ENDBRANCH  11  12
BRANCH   1  19
HETATM   19  C   UNL     1     -41.072  58.808 -53.187  1.00  0.00     0.267 C 
HETATM   20  O   UNL     1     -39.883  59.078 -53.312  1.00  0.00    -0.265 OA
BRANCH  19  21
HETATM   21  O   UNL     1     -41.658  58.397 -52.030  1.00  0.00    -0.316 OA
BRANCH  21  22
HETATM   22  C   UNL     1     -40.777  58.044 -50.947  1.00  0.00     0.123 C 
HETATM   23  C   UNL     1     -41.247  56.745 -50.304  1.00  0.00     0.040 C 
HETATM   24  C   UNL     1     -40.828  59.190 -49.944  1.00  0.00     0.040 C 
ENDBRANCH  21  22
ENDBRANCH  19  21
ENDBRANCH   1  19
BRANCH   2  25
HETATM   25  O   UNL     1     -44.141  58.361 -53.079  1.00  0.00    -0.389 OA
HETATM   26  H   UNL     1     -45.067  58.242 -53.371  1.00  0.00     0.210 HD
ENDBRANCH   2  25
BRANCH   7  27
HETATM   27  O   UNL     1     -42.496  55.542 -57.713  1.00  0.00    -0.343 OA
HETATM   28  H   UNL     1     -42.609  54.774 -57.134  1.00  0.00     0.219 HD
ENDBRANCH   7  27
TORSDOF 6
ENDMDL
MODEL 5
REMARK VINA RESULT:      -6.8      3.257      5.664
REMARK  6 active torsions:
REMARK  status: ('A' for Active; 'I' for Inactive)
REMARK    1  A    between atoms: C_2  and  O_3 
REMARK    2  A    between atoms: O_3  and  C_4 
REMARK    3  A    between atoms: C_4  and  C_5 
REMARK    4  A    between atoms: C_6  and  O_7 
REMARK    5  A    between atoms: C_12  and  O_13 
REMARK    6  A    between atoms: C_17  and  C_18 
ROOT
HETATM    1  C   UNL     1     -42.916  58.292 -53.471  1.00  0.00     0.133 C 
HETATM    2  C   UNL     1     -44.439  58.341 -53.833  1.00  0.00     0.073 C 
HETATM    3  C   UNL     1     -45.053  59.716 -53.520  1.00  0.00     0.047 C 
HETATM    4  C   UNL     1     -44.668  58.051 -55.351  1.00  0.00     0.097 C 
HETATM    5  C   UNL     1     -43.771  56.964 -55.819  1.00  0.00     0.042 A 
HETATM    6  C   UNL     1     -42.640  56.483 -55.194  1.00  0.00     0.030 A 
HETATM    7  C   UNL     1     -42.174  55.500 -56.081  1.00  0.00     0.190 A 
HETATM    8  N   UNL     1     -42.919  55.369 -57.171  1.00  0.00    -0.149 NA
HETATM    9  N   UNL     1     -43.910  56.257 -56.979  1.00  0.00    -0.279 N 
HETATM   10  H   UNL     1     -44.634  56.331 -57.686  1.00  0.00     0.189 HD
HETATM   11  C   UNL     1     -42.139  57.012 -53.893  1.00  0.00     0.075 C 
ENDROOT
BRANCH  11  12
HETATM   12  C   UNL     1     -42.119  55.843 -52.919  1.00  0.00    -0.045 A 
HETATM   13  C   UNL     1     -43.266  55.125 -52.545  1.00  0.00     0.050 A 
HETATM   14  C   UNL     1     -43.176  54.072 -51.639  1.00  0.00     0.117 A 
HETATM   15  F   UNL     1     -44.283  53.405 -51.290  1.00  0.00    -0.206 F 
HETATM   16  C   UNL     1     -41.957  53.702 -51.087  1.00  0.00     0.042 A 
HETATM   17  C   UNL     1     -40.806  54.399 -51.443  1.00  0.00     0.004 A 
HETATM   18  C   UNL     1     -40.888  55.462 -52.347  1.00  0.00     0.008 A 
ENDBRANCH  11  12
BRANCH   1  19
HETATM   19  C   UNL     1     -42.573  58.631 -52.036  1.00  0.00     0.267 C 
HETATM   20  O   UNL     1     -43.224  58.223 -51.082  1.00  0.00    -0.265 OA
BRANCH  19  21
HETATM   21  O   UNL     1     -41.504  59.467 -51.947  1.00  0.00    -0.316 OA
BRANCH  21  22
HETATM   22  C   UNL     1     -40.277  58.900 -51.449  1.00  0.00     0.123 C 
HETATM   23  C   UNL     1     -39.769  59.724 -50.273  1.00  0.00     0.040 C 
HETATM   24  C   UNL     1     -39.277  58.931 -52.599  1.00  0.00     0.040 C 
ENDBRANCH  21  22
ENDBRANCH  19  21
ENDBRANCH   1  19
BRANCH   2  25
HETATM   25  O   UNL     1     -45.200  57.371 -53.103  1.00  0.00    -0.389 OA
HETATM   26  H   UNL     1     -44.611  56.618 -52.899  1.00  0.00     0.210 HD
ENDBRANCH   2  25
BRANCH   7  27
HETATM   27  O   UNL     1     -41.116  54.693 -55.980  1.00  0.00    -0.343 OA
HETATM   28  H   UNL     1     -40.331  55.149 -56.317  1.00  0.00     0.219 HD
ENDBRANCH   7  27
TORSDOF 6
ENDMDL
MODEL 6
REMARK VINA RESULT:      -6.7      3.050      4.704
REMARK  6 active torsions:
REMARK  status: ('A' for Active; 'I' for Inactive)
REMARK    1  A    between atoms: C_2  and  O_3 
REMARK    2  A    between atoms: O_3  and  C_4 
REMARK    3  A    between atoms: C_4  and  C_5 
REMARK    4  A    between atoms: C_6  and  O_7 
REMARK    5  A    between atoms: C_12  and  O_13 
REMARK    6  A    between atoms: C_17  and  C_18 
ROOT
HETATM    1  C   UNL     1     -42.809  54.773 -53.228  1.00  0.00     0.133 C 
HETATM    2  C   UNL     1     -41.882  54.233 -54.369  1.00  0.00     0.073 C 
HETATM    3  C   UNL     1     -41.630  52.722 -54.227  1.00  0.00     0.047 C 
HETATM    4  C   UNL     1     -42.514  54.481 -55.776  1.00  0.00     0.097 C 
HETATM    5  C   UNL     1     -43.154  55.820 -55.835  1.00  0.00     0.042 A 
HETATM    6  C   UNL     1     -43.506  56.629 -54.774  1.00  0.00     0.030 A 
HETATM    7  C   UNL     1     -44.095  57.740 -55.397  1.00  0.00     0.190 A 
HETATM    8  N   UNL     1     -44.131  57.653 -56.721  1.00  0.00    -0.149 NA
HETATM    9  N   UNL     1     -43.524  56.479 -56.972  1.00  0.00    -0.279 N 
HETATM   10  H   UNL     1     -43.411  56.193 -57.939  1.00  0.00     0.189 HD
HETATM   11  C   UNL     1     -43.275  56.252 -53.349  1.00  0.00     0.075 C 
ENDROOT
BRANCH  11  12
HETATM   12  C   UNL     1     -42.383  57.328 -52.748  1.00  0.00    -0.045 A 
HETATM   13  C   UNL     1     -42.705  58.040 -51.581  1.00  0.00     0.050 A 
HETATM   14  C   UNL     1     -41.846  59.021 -51.093  1.00  0.00     0.117 A 
HETATM   15  F   UNL     1     -42.175  59.693 -49.983  1.00  0.00    -0.206 F 
HETATM   16  C   UNL     1     -40.653  59.317 -51.739  1.00  0.00     0.042 A 
HETATM   17  C   UNL     1     -40.313  58.624 -52.896  1.00  0.00     0.004 A 
HETATM   18  C   UNL     1     -41.173  57.643 -53.398  1.00  0.00     0.008 A 
ENDBRANCH  11  12
BRANCH   1  19
HETATM   19  C   UNL     1     -42.326  54.520 -51.816  1.00  0.00     0.267 C 
HETATM   20  O   UNL     1     -43.082  54.471 -50.853  1.00  0.00    -0.265 OA
BRANCH  19  21
HETATM   21  O   UNL     1     -40.972  54.405 -51.749  1.00  0.00    -0.316 OA
BRANCH  21  22
HETATM   22  C   UNL     1     -40.445  53.559 -50.709  1.00  0.00     0.123 C 
HETATM   23  C   UNL     1     -39.620  54.393 -49.737  1.00  0.00     0.040 C 
HETATM   24  C   UNL     1     -39.574  52.511 -51.391  1.00  0.00     0.040 C 
ENDBRANCH  21  22
ENDBRANCH  19  21
ENDBRANCH   1  19
BRANCH   2  25
HETATM   25  O   UNL     1     -40.598  54.869 -54.370  1.00  0.00    -0.389 OA
HETATM   26  H   UNL     1     -40.687  55.725 -54.834  1.00  0.00     0.210 HD
ENDBRANCH   2  25
BRANCH   7  27
HETATM   27  O   UNL     1     -44.604  58.849 -54.857  1.00  0.00    -0.343 OA
HETATM   28  H   UNL     1     -43.919  59.534 -54.827  1.00  0.00     0.219 HD
ENDBRANCH   7  27
TORSDOF 6
ENDMDL
MODEL 7
REMARK VINA RESULT:      -6.7      2.672      4.671
REMARK  6 active torsions:
REMARK  status: ('A' for Active; 'I' for Inactive)
REMARK    1  A    between atoms: C_2  and  O_3 
REMARK    2  A    between atoms: O_3  and  C_4 
REMARK    3  A    between atoms: C_4  and  C_5 
REMARK    4  A    between atoms: C_6  and  O_7 
REMARK    5  A    between atoms: C_12  and  O_13 
REMARK    6  A    between atoms: C_17  and  C_18 
ROOT
HETATM    1  C   UNL     1     -43.926  56.742 -54.173  1.00  0.00     0.133 C 
HETATM    2  C   UNL     1     -43.164  57.913 -54.880  1.00  0.00     0.073 C 
HETATM    3  C   UNL     1     -43.029  57.671 -56.393  1.00  0.00     0.047 C 
HETATM    4  C   UNL     1     -43.905  59.274 -54.679  1.00  0.00     0.097 C 
HETATM    5  C   UNL     1     -44.432  59.385 -53.295  1.00  0.00     0.042 A 
HETATM    6  C   UNL     1     -44.609  58.367 -52.381  1.00  0.00     0.030 A 
HETATM    7  C   UNL     1     -45.159  59.024 -51.270  1.00  0.00     0.190 A 
HETATM    8  N   UNL     1     -45.330  60.328 -51.451  1.00  0.00    -0.149 NA
HETATM    9  N   UNL     1     -44.853  60.535 -52.691  1.00  0.00    -0.279 N 
HETATM   10  H   UNL     1     -44.859  61.481 -53.057  1.00  0.00     0.189 HD
HETATM   11  C   UNL     1     -44.275  56.943 -52.670  1.00  0.00     0.075 C 
ENDROOT
BRANCH  11  12
HETATM   12  C   UNL     1     -43.240  56.515 -51.640  1.00  0.00    -0.045 A 
HETATM   13  C   UNL     1     -42.035  57.201 -51.420  1.00  0.00     0.050 A 
HETATM   14  C   UNL     1     -41.127  56.745 -50.467  1.00  0.00     0.117 A 
HETATM   15  F   UNL     1     -39.981  57.410 -50.278  1.00  0.00    -0.206 F 
HETATM   16  C   UNL     1     -41.388  55.610 -49.712  1.00  0.00     0.042 A 
HETATM   17  C   UNL     1     -42.576  54.914 -49.912  1.00  0.00     0.004 A 
HETATM   18  C   UNL     1     -43.491  55.360 -50.872  1.00  0.00     0.008 A 
ENDBRANCH  11  12
BRANCH   1  19
HETATM   19  C   UNL     1     -43.333  55.364 -54.365  1.00  0.00     0.267 C 
HETATM   20  O   UNL     1     -44.017  54.352 -54.458  1.00  0.00    -0.265 OA
BRANCH  19  21
HETATM   21  O   UNL     1     -41.973  55.386 -54.371  1.00  0.00    -0.316 OA
BRANCH  21  22
HETATM   22  C   UNL     1     -41.303  54.112 -54.310  1.00  0.00     0.123 C 
HETATM   23  C   UNL     1     -40.788  53.869 -52.897  1.00  0.00     0.040 C 
HETATM   24  C   UNL     1     -40.147  54.171 -55.301  1.00  0.00     0.040 C 
ENDBRANCH  21  22
ENDBRANCH  19  21
ENDBRANCH   1  19
BRANCH   2  25
HETATM   25  O   UNL     1     -41.836  58.082 -54.367  1.00  0.00    -0.389 OA
HETATM   26  H   UNL     1     -41.361  58.698 -54.960  1.00  0.00     0.210 HD
ENDBRANCH   2  25
BRANCH   7  27
HETATM   27  O   UNL     1     -45.517  58.534 -50.081  1.00  0.00    -0.343 OA
HETATM   28  H   UNL     1     -45.907  59.242 -49.547  1.00  0.00     0.219 HD
ENDBRANCH   7  27
TORSDOF 6
ENDMDL
MODEL 8
REMARK VINA RESULT:      -6.6      1.989      2.653
REMARK  6 active torsions:
REMARK  status: ('A' for Active; 'I' for Inactive)
REMARK    1  A    between atoms: C_2  and  O_3 
REMARK    2  A    between atoms: O_3  and  C_4 
REMARK    3  A    between atoms: C_4  and  C_5 
REMARK    4  A    between atoms: C_6  and  O_7 
REMARK    5  A    between atoms: C_12  and  O_13 
REMARK    6  A    between atoms: C_17  and  C_18 
ROOT
HETATM    1  C   UNL     1     -42.374  56.251 -53.417  1.00  0.00     0.133 C 
HETATM    2  C   UNL     1     -43.416  56.526 -52.280  1.00  0.00     0.073 C 
HETATM    3  C   UNL     1     -43.420  55.403 -51.229  1.00  0.00     0.047 C 
HETATM    4  C   UNL     1     -43.106  57.868 -51.543  1.00  0.00     0.097 C 
HETATM    5  C   UNL     1     -42.684  58.914 -52.510  1.00  0.00     0.042 A 
HETATM    6  C   UNL     1     -42.255  58.731 -53.808  1.00  0.00     0.030 A 
HETATM    7  C   UNL     1     -41.958  60.034 -54.236  1.00  0.00     0.190 A 
HETATM    8  N   UNL     1     -42.164  60.961 -53.309  1.00  0.00    -0.149 NA
HETATM    9  N   UNL     1     -42.635  60.256 -52.265  1.00  0.00    -0.279 N 
HETATM   10  H   UNL     1     -42.888  60.758 -51.420  1.00  0.00     0.189 HD
HETATM   11  C   UNL     1     -42.153  57.390 -54.453  1.00  0.00     0.075 C 
ENDROOT
BRANCH  11  12
HETATM   12  C   UNL     1     -43.058  57.420 -55.676  1.00  0.00    -0.045 A 
HETATM   13  C   UNL     1     -44.390  57.862 -55.646  1.00  0.00     0.050 A 
HETATM   14  C   UNL     1     -45.164  57.851 -56.803  1.00  0.00     0.117 A 
HETATM   15  F   UNL     1     -46.434  58.271 -56.751  1.00  0.00    -0.206 F 
HETATM   16  C   UNL     1     -44.643  57.409 -58.012  1.00  0.00     0.042 A 
HETATM   17  C   UNL     1     -43.326  56.966 -58.066  1.00  0.00     0.004 A 
HETATM   18  C   UNL     1     -42.542  56.967 -56.908  1.00  0.00     0.008 A 
ENDBRANCH  11  12
BRANCH   1  19
HETATM   19  C   UNL     1     -42.538  54.937 -54.151  1.00  0.00     0.267 C 
HETATM   20  O   UNL     1     -43.625  54.517 -54.528  1.00  0.00    -0.265 OA
BRANCH  19  21
HETATM   21  O   UNL     1     -41.358  54.276 -54.290  1.00  0.00    -0.316 OA
BRANCH  21  22
HETATM   22  C   UNL     1     -41.184  53.086 -53.495  1.00  0.00     0.123 C 
HETATM   23  C   UNL     1     -40.447  53.431 -52.207  1.00  0.00     0.040 C 
HETATM   24  C   UNL     1     -40.371  52.108 -54.335  1.00  0.00     0.040 C 
ENDBRANCH  21  22
ENDBRANCH  19  21
ENDBRANCH   1  19
BRANCH   2  25
HETATM   25  O   UNL     1     -44.753  56.627 -52.785  1.00  0.00    -0.389 OA
HETATM   26  H   UNL     1     -44.977  57.576 -52.856  1.00  0.00     0.210 HD
ENDBRANCH   2  25
BRANCH   7  27
HETATM   27  O   UNL     1     -41.518  60.463 -55.421  1.00  0.00    -0.343 OA
HETATM   28  H   UNL     1     -40.834  59.859 -55.746  1.00  0.00     0.219 HD
ENDBRANCH   7  27
TORSDOF 6
ENDMDL
MODEL 9
REMARK VINA RESULT:      -6.6      2.263      4.635
REMARK  6 active torsions:
REMARK  status: ('A' for Active; 'I' for Inactive)
REMARK    1  A    between atoms: C_2  and  O_3 
REMARK    2  A    between atoms: O_3  and  C_4 
REMARK    3  A    between atoms: C_4  and  C_5 
REMARK    4  A    between atoms: C_6  and  O_7 
REMARK    5  A    between atoms: C_12  and  O_13 
REMARK    6  A    between atoms: C_17  and  C_18 
ROOT
HETATM    1  C   UNL     1     -43.355  58.488 -53.341  1.00  0.00     0.133 C 
HETATM    2  C   UNL     1     -42.146  59.477 -53.220  1.00  0.00     0.073 C 
HETATM    3  C   UNL     1     -42.523  60.894 -53.684  1.00  0.00     0.047 C 
HETATM    4  C   UNL     1     -41.642  59.576 -51.745  1.00  0.00     0.097 C 
HETATM    5  C   UNL     1     -41.649  58.239 -51.097  1.00  0.00     0.042 A 
HETATM    6  C   UNL     1     -42.313  57.106 -51.519  1.00  0.00     0.030 A 
HETATM    7  C   UNL     1     -42.001  56.162 -50.529  1.00  0.00     0.190 A 
HETATM    8  N   UNL     1     -41.226  56.638 -49.562  1.00  0.00    -0.149 NA
HETATM    9  N   UNL     1     -40.999  57.907 -49.942  1.00  0.00    -0.279 N 
HETATM   10  H   UNL     1     -40.403  58.485 -49.360  1.00  0.00     0.189 HD
HETATM   11  C   UNL     1     -43.155  57.064 -52.749  1.00  0.00     0.075 C 
ENDROOT
BRANCH  11  12
HETATM   12  C   UNL     1     -42.558  55.998 -53.656  1.00  0.00    -0.045 A 
HETATM   13  C   UNL     1     -41.196  55.941 -53.994  1.00  0.00     0.050 A 
HETATM   14  C   UNL     1     -40.720  54.943 -54.840  1.00  0.00     0.117 A 
HETATM   15  F   UNL     1     -39.419  54.911 -55.156  1.00  0.00    -0.206 F 
HETATM   16  C   UNL     1     -41.571  53.981 -55.367  1.00  0.00     0.042 A 
HETATM   17  C   UNL     1     -42.925  54.017 -55.046  1.00  0.00     0.004 A 
HETATM   18  C   UNL     1     -43.413  55.020 -54.202  1.00  0.00     0.008 A 
ENDBRANCH  11  12
BRANCH   1  19
HETATM   19  C   UNL     1     -43.970  58.372 -54.719  1.00  0.00     0.267 C 
HETATM   20  O   UNL     1     -45.175  58.239 -54.900  1.00  0.00    -0.265 OA
BRANCH  19  21
HETATM   21  O   UNL     1     -43.032  58.382 -55.703  1.00  0.00    -0.316 OA
BRANCH  21  22
HETATM   22  C   UNL     1     -43.490  58.089 -57.037  1.00  0.00     0.123 C 
HETATM   23  C   UNL     1     -42.844  56.800 -57.531  1.00  0.00     0.040 C 
HETATM   24  C   UNL     1     -43.079  59.266 -57.914  1.00  0.00     0.040 C 
ENDBRANCH  21  22
ENDBRANCH  19  21
ENDBRANCH   1  19
BRANCH   2  25
HETATM   25  O   UNL     1     -41.028  59.063 -54.016  1.00  0.00    -0.389 OA
HETATM   26  H   UNL     1     -40.849  58.123 -53.817  1.00  0.00     0.210 HD
ENDBRANCH   2  25
BRANCH   7  27
HETATM   27  O   UNL     1     -42.358  54.879 -50.431  1.00  0.00    -0.343 OA
HETATM   28  H   UNL     1     -41.571  54.321 -50.503  1.00  0.00     0.219 HD
ENDBRANCH   7  27
TORSDOF 6
ENDMDL
MODEL 10
REMARK VINA RESULT:      -6.4      2.720      4.703
REMARK  6 active torsions:
REMARK  status: ('A' for Active; 'I' for Inactive)
REMARK    1  A    between atoms: C_2  and  O_3 
REMARK    2  A    between atoms: O_3  and  C_4 
REMARK    3  A    between atoms: C_4  and  C_5 
REMARK    4  A    between atoms: C_6  and  O_7 
REMARK    5  A    between atoms: C_12  and  O_13 
REMARK    6  A    between atoms: C_17  and  C_18 
ROOT
HETATM    1  C   UNL     1     -42.223  54.445 -52.859  1.00  0.00     0.133 C 
HETATM    2  C   UNL     1     -41.899  54.319 -54.386  1.00  0.00     0.073 C 
HETATM    3  C   UNL     1     -41.496  52.883 -54.764  1.00  0.00     0.047 C 
HETATM    4  C   UNL     1     -43.132  54.714 -55.260  1.00  0.00     0.097 C 
HETATM    5  C   UNL     1     -43.826  55.895 -54.686  1.00  0.00     0.042 A 
HETATM    6  C   UNL     1     -43.701  56.402 -53.409  1.00  0.00     0.030 A 
HETATM    7  C   UNL     1     -44.595  57.484 -53.403  1.00  0.00     0.190 A 
HETATM    8  N   UNL     1     -45.239  57.651 -54.551  1.00  0.00    -0.149 NA
HETATM    9  N   UNL     1     -44.734  56.683 -55.335  1.00  0.00    -0.279 N 
HETATM   10  H   UNL     1     -45.064  56.616 -56.292  1.00  0.00     0.189 HD
HETATM   11  C   UNL     1     -42.803  55.806 -52.379  1.00  0.00     0.075 C 
ENDROOT
BRANCH  11  12
HETATM   12  C   UNL     1     -41.818  56.891 -51.971  1.00  0.00    -0.045 A 
HETATM   13  C   UNL     1     -40.915  57.494 -52.861  1.00  0.00     0.050 A 
HETATM   14  C   UNL     1     -40.032  58.474 -52.416  1.00  0.00     0.117 A 
HETATM   15  F   UNL     1     -39.174  59.031 -53.280  1.00  0.00    -0.206 F 
HETATM   16  C   UNL     1     -40.022  58.883 -51.089  1.00  0.00     0.042 A 
HETATM   17  C   UNL     1     -40.908  58.300 -50.188  1.00  0.00     0.004 A 
HETATM   18  C   UNL     1     -41.794  57.310 -50.625  1.00  0.00     0.008 A 
ENDBRANCH  11  12
BRANCH   1  19
HETATM   19  C   UNL     1     -41.119  54.016 -51.918  1.00  0.00     0.267 C 
HETATM   20  O   UNL     1     -39.956  53.872 -52.278  1.00  0.00    -0.265 OA
BRANCH  19  21
HETATM   21  O   UNL     1     -41.580  53.769 -50.663  1.00  0.00    -0.316 OA
BRANCH  21  22
HETATM   22  C   UNL     1     -40.589  53.580 -49.633  1.00  0.00     0.123 C 
HETATM   23  C   UNL     1     -40.620  52.137 -49.148  1.00  0.00     0.040 C 
HETATM   24  C   UNL     1     -40.941  54.537 -48.500  1.00  0.00     0.040 C 
ENDBRANCH  21  22
ENDBRANCH  19  21
ENDBRANCH   1  19
BRANCH   2  25
HETATM   25  O   UNL     1     -40.817  55.171 -54.782  1.00  0.00    -0.389 OA
HETATM   26  H   UNL     1     -40.947  56.040 -54.353  1.00  0.00     0.210 HD
ENDBRANCH   2  25
BRANCH   7  27
HETATM   27  O   UNL     1     -44.875  58.353 -52.429  1.00  0.00    -0.343 OA
HETATM   28  H   UNL     1     -45.768  58.183 -52.095  1.00  0.00     0.219 HD
ENDBRANCH   7  27
TORSDOF 6
ENDMDL
