MODEL 1
REMARK VINA RESULT:      -9.3      0.000      0.000
REMARK  5 active torsions:
REMARK  status: ('A' for Active; 'I' for Inactive)
REMARK    1  A    between atoms: C_2  and  C_3 
REMARK    2  A    between atoms: C_2  and  C_9 
REMARK    3  A    between atoms: C_9  and  C_10 
REMARK       I    between atoms: C_10  and  N_11 
REMARK    4  A    between atoms: N_11  and  C_12 
REMARK    5  A    between atoms: C_19  and  C_20 
REMARK       I    between atoms: C_20  and  N_21 
ROOT
HETATM    1  C   UNL     1     -42.602  56.382 -56.931  1.00  0.00     0.035 A 
HETATM    2  C   UNL     1     -43.203  55.733 -58.019  1.00  0.00     0.046 A 
HETATM    3  C   UNL     1     -44.211  56.394 -58.756  1.00  0.00     0.030 A 
HETATM    4  C   UNL     1     -44.585  57.678 -58.380  1.00  0.00     0.063 A 
HETATM    5  N   UNL     1     -45.563  58.044 -59.261  1.00  0.00    -0.277 N 
HETATM    6  H   UNL     1     -46.070  58.921 -59.285  1.00  0.00     0.189 HD
HETATM    7  N   UNL     1     -45.861  57.113 -60.181  1.00  0.00    -0.168 NA
HETATM    8  C   UNL     1     -45.031  56.086 -59.884  1.00  0.00     0.156 A 
HETATM    9  C   UNL     1     -44.007  58.355 -57.305  1.00  0.00     0.034 A 
HETATM   10  C   UNL     1     -43.008  57.680 -56.592  1.00  0.00     0.032 A 
ENDROOT
BRANCH   1  11
HETATM   11  N   UNL     1     -41.588  55.805 -56.135  1.00  0.00    -0.327 N 
HETATM   12  C   UNL     1     -41.638  54.608 -55.437  1.00  0.00     0.222 C 
HETATM   13  O   UNL     1     -42.593  53.843 -55.374  1.00  0.00    -0.273 OA
HETATM   14  H   UNL     1     -40.734  56.341 -56.047  1.00  0.00     0.169 HD
BRANCH  12  15
HETATM   15  C   UNL     1     -40.333  54.338 -54.703  1.00  0.00     0.112 C 
BRANCH  15  16
HETATM   16  C   UNL     1     -40.538  53.877 -53.250  1.00  0.00     0.023 C 
HETATM   17  C   UNL     1     -41.959  54.170 -52.752  1.00  0.00     0.015 C 
BRANCH  16  18
HETATM   18  C   UNL     1     -40.207  52.397 -53.113  1.00  0.00    -0.054 A 
HETATM   19  C   UNL     1     -39.804  51.836 -51.892  1.00  0.00     0.007 A 
HETATM   20  C   UNL     1     -39.511  50.473 -51.796  1.00  0.00     0.001 A 
HETATM   21  C   UNL     1     -39.621  49.654 -52.917  1.00  0.00     0.000 A 
HETATM   22  C   UNL     1     -40.025  50.196 -54.135  1.00  0.00     0.001 A 
HETATM   23  C   UNL     1     -40.317  51.558 -54.233  1.00  0.00     0.007 A 
ENDBRANCH  16  18
ENDBRANCH  15  16
ENDBRANCH  12  15
ENDBRANCH   1  11
BRANCH   8  24
HETATM   24  C   UNL     1     -45.041  54.848 -60.675  1.00  0.00     0.270 C 
HETATM   25  N   UNL     1     -45.180  53.709 -59.927  1.00  0.00    -0.365 N 
HETATM   26  H   UNL     1     -45.265  53.797 -58.922  1.00  0.00     0.159 HD
HETATM   27  H   UNL     1     -45.200  52.812 -60.385  1.00  0.00     0.159 HD
HETATM   28  O   UNL     1     -44.939  54.794 -61.895  1.00  0.00    -0.266 OA
ENDBRANCH   8  24
TORSDOF 5
ENDMDL
MODEL 2
REMARK VINA RESULT:      -9.3      1.355      1.777
REMARK  5 active torsions:
REMARK  status: ('A' for Active; 'I' for Inactive)
REMARK    1  A    between atoms: C_2  and  C_3 
REMARK    2  A    between atoms: C_2  and  C_9 
REMARK    3  A    between atoms: C_9  and  C_10 
REMARK       I    between atoms: C_10  and  N_11 
REMARK    4  A    between atoms: N_11  and  C_12 
REMARK    5  A    between atoms: C_19  and  C_20 
REMARK       I    between atoms: C_20  and  N_21 
ROOT
HETATM    1  C   UNL     1     -42.696  55.767 -56.386  1.00  0.00     0.035 A 
HETATM    2  C   UNL     1     -43.331  55.274 -57.534  1.00  0.00     0.046 A 
HETATM    3  C   UNL     1     -43.450  56.100 -58.675  1.00  0.00     0.030 A 
HETATM    4  C   UNL     1     -42.931  57.387 -58.628  1.00  0.00     0.063 A 
HETATM    5  N   UNL     1     -43.197  57.930 -59.854  1.00  0.00    -0.277 N 
HETATM    6  H   UNL     1     -42.962  58.862 -60.176  1.00  0.00     0.189 HD
HETATM    7  N   UNL     1     -43.841  57.110 -60.699  1.00  0.00    -0.168 NA
HETATM    8  C   UNL     1     -44.004  55.972 -59.985  1.00  0.00     0.156 A 
HETATM    9  C   UNL     1     -42.290  57.910 -57.504  1.00  0.00     0.034 A 
HETATM   10  C   UNL     1     -42.183  57.071 -56.387  1.00  0.00     0.032 A 
ENDROOT
BRANCH   1  11
HETATM   11  N   UNL     1     -42.529  55.021 -55.198  1.00  0.00    -0.327 N 
HETATM   12  C   UNL     1     -43.189  55.193 -53.991  1.00  0.00     0.222 C 
HETATM   13  O   UNL     1     -44.027  56.050 -53.737  1.00  0.00    -0.273 OA
HETATM   14  H   UNL     1     -41.830  54.289 -55.229  1.00  0.00     0.169 HD
BRANCH  12  15
HETATM   15  C   UNL     1     -42.726  54.178 -52.956  1.00  0.00     0.112 C 
BRANCH  15  16
HETATM   16  C   UNL     1     -41.203  54.182 -52.739  1.00  0.00     0.023 C 
HETATM   17  C   UNL     1     -40.823  54.735 -51.360  1.00  0.00     0.015 C 
BRANCH  16  18
HETATM   18  C   UNL     1     -40.637  52.782 -52.940  1.00  0.00    -0.054 A 
HETATM   19  C   UNL     1     -40.721  52.118 -54.173  1.00  0.00     0.007 A 
HETATM   20  C   UNL     1     -40.188  50.836 -54.329  1.00  0.00     0.001 A 
HETATM   21  C   UNL     1     -39.563  50.204 -53.257  1.00  0.00     0.000 A 
HETATM   22  C   UNL     1     -39.469  50.852 -52.028  1.00  0.00     0.001 A 
HETATM   23  C   UNL     1     -40.001  52.134 -51.870  1.00  0.00     0.007 A 
ENDBRANCH  16  18
ENDBRANCH  15  16
ENDBRANCH  12  15
ENDBRANCH   1  11
BRANCH   8  24
HETATM   24  C   UNL     1     -44.678  54.801 -60.563  1.00  0.00     0.270 C 
HETATM   25  N   UNL     1     -45.043  53.856 -59.643  1.00  0.00    -0.365 N 
HETATM   26  H   UNL     1     -44.833  54.023 -58.666  1.00  0.00     0.159 HD
HETATM   27  H   UNL     1     -45.514  53.019 -59.948  1.00  0.00     0.159 HD
HETATM   28  O   UNL     1     -44.914  54.646 -61.756  1.00  0.00    -0.266 OA
ENDBRANCH   8  24
TORSDOF 5
ENDMDL
MODEL 3
REMARK VINA RESULT:      -9.3      1.274      2.415
REMARK  5 active torsions:
REMARK  status: ('A' for Active; 'I' for Inactive)
REMARK    1  A    between atoms: C_2  and  C_3 
REMARK    2  A    between atoms: C_2  and  C_9 
REMARK    3  A    between atoms: C_9  and  C_10 
REMARK       I    between atoms: C_10  and  N_11 
REMARK    4  A    between atoms: N_11  and  C_12 
REMARK    5  A    between atoms: C_19  and  C_20 
REMARK       I    between atoms: C_20  and  N_21 
ROOT
HETATM    1  C   UNL     1     -42.511  56.269 -56.790  1.00  0.00     0.035 A 
HETATM    2  C   UNL     1     -43.146  55.651 -57.876  1.00  0.00     0.046 A 
HETATM    3  C   UNL     1     -44.033  56.398 -58.683  1.00  0.00     0.030 A 
HETATM    4  C   UNL     1     -44.255  57.734 -58.377  1.00  0.00     0.063 A 
HETATM    5  N   UNL     1     -45.145  58.178 -59.315  1.00  0.00    -0.277 N 
HETATM    6  H   UNL     1     -45.535  59.110 -59.398  1.00  0.00     0.189 HD
HETATM    7  N   UNL     1     -45.522  57.250 -60.208  1.00  0.00    -0.168 NA
HETATM    8  C   UNL     1     -44.842  56.143 -59.833  1.00  0.00     0.156 A 
HETATM    9  C   UNL     1     -43.638  58.383 -57.307  1.00  0.00     0.034 A 
HETATM   10  C   UNL     1     -42.761  57.622 -56.523  1.00  0.00     0.032 A 
ENDROOT
BRANCH   1  11
HETATM   11  N   UNL     1     -41.609  55.608 -55.927  1.00  0.00    -0.327 N 
HETATM   12  C   UNL     1     -41.863  54.511 -55.118  1.00  0.00     0.222 C 
HETATM   13  O   UNL     1     -42.935  53.931 -54.996  1.00  0.00    -0.273 OA
HETATM   14  H   UNL     1     -40.676  55.996 -55.878  1.00  0.00     0.169 HD
BRANCH  12  15
HETATM   15  C   UNL     1     -40.622  54.095 -54.341  1.00  0.00     0.112 C 
BRANCH  15  16
HETATM   16  C   UNL     1     -40.887  52.960 -53.336  1.00  0.00     0.023 C 
HETATM   17  C   UNL     1     -39.822  51.859 -53.423  1.00  0.00     0.015 C 
BRANCH  16  18
HETATM   18  C   UNL     1     -40.980  53.518 -51.923  1.00  0.00    -0.054 A 
HETATM   19  C   UNL     1     -42.158  54.102 -51.432  1.00  0.00     0.007 A 
HETATM   20  C   UNL     1     -42.215  54.602 -50.128  1.00  0.00     0.001 A 
HETATM   21  C   UNL     1     -41.099  54.520 -49.299  1.00  0.00     0.000 A 
HETATM   22  C   UNL     1     -39.925  53.939 -49.770  1.00  0.00     0.001 A 
HETATM   23  C   UNL     1     -39.865  53.439 -51.073  1.00  0.00     0.007 A 
ENDBRANCH  16  18
ENDBRANCH  15  16
ENDBRANCH  12  15
ENDBRANCH   1  11
BRANCH   8  24
HETATM   24  C   UNL     1     -44.978  54.880 -60.571  1.00  0.00     0.270 C 
HETATM   25  N   UNL     1     -45.195  53.788 -59.775  1.00  0.00    -0.365 N 
HETATM   26  H   UNL     1     -45.247  53.922 -58.772  1.00  0.00     0.159 HD
HETATM   27  H   UNL     1     -45.303  52.878 -60.195  1.00  0.00     0.159 HD
HETATM   28  O   UNL     1     -44.911  54.770 -61.791  1.00  0.00    -0.266 OA
ENDBRANCH   8  24
TORSDOF 5
ENDMDL
MODEL 4
REMARK VINA RESULT:      -8.9      1.913      2.123
REMARK  5 active torsions:
REMARK  status: ('A' for Active; 'I' for Inactive)
REMARK    1  A    between atoms: C_2  and  C_3 
REMARK    2  A    between atoms: C_2  and  C_9 
REMARK    3  A    between atoms: C_9  and  C_10 
REMARK       I    between atoms: C_10  and  N_11 
REMARK    4  A    between atoms: N_11  and  C_12 
REMARK    5  A    between atoms: C_19  and  C_20 
REMARK       I    between atoms: C_20  and  N_21 
ROOT
HETATM    1  C   UNL     1     -43.399  56.402 -55.297  1.00  0.00     0.035 A 
HETATM    2  C   UNL     1     -43.088  56.309 -56.660  1.00  0.00     0.046 A 
HETATM    3  C   UNL     1     -43.491  57.339 -57.540  1.00  0.00     0.030 A 
HETATM    4  C   UNL     1     -44.192  58.423 -57.028  1.00  0.00     0.063 A 
HETATM    5  N   UNL     1     -44.441  59.233 -58.100  1.00  0.00    -0.277 N 
HETATM    6  H   UNL     1     -44.936  60.117 -58.099  1.00  0.00     0.189 HD
HETATM    7  N   UNL     1     -43.963  58.775 -59.268  1.00  0.00    -0.168 NA
HETATM    8  C   UNL     1     -43.371  57.604 -58.938  1.00  0.00     0.156 A 
HETATM    9  C   UNL     1     -44.516  58.551 -55.676  1.00  0.00     0.034 A 
HETATM   10  C   UNL     1     -44.103  57.518 -54.824  1.00  0.00     0.032 A 
ENDROOT
BRANCH   1  11
HETATM   11  N   UNL     1     -43.041  55.427 -54.340  1.00  0.00    -0.327 N 
HETATM   12  C   UNL     1     -41.778  55.164 -53.831  1.00  0.00     0.222 C 
HETATM   13  O   UNL     1     -40.736  55.727 -54.146  1.00  0.00    -0.273 OA
HETATM   14  H   UNL     1     -43.792  54.838 -54.004  1.00  0.00     0.169 HD
BRANCH  12  15
HETATM   15  C   UNL     1     -41.813  54.034 -52.813  1.00  0.00     0.112 C 
BRANCH  15  16
HETATM   16  C   UNL     1     -40.420  53.644 -52.290  1.00  0.00     0.023 C 
HETATM   17  C   UNL     1     -40.285  53.888 -50.781  1.00  0.00     0.015 C 
BRANCH  16  18
HETATM   18  C   UNL     1     -40.113  52.193 -52.637  1.00  0.00    -0.054 A 
HETATM   19  C   UNL     1     -39.726  51.263 -51.660  1.00  0.00     0.007 A 
HETATM   20  C   UNL     1     -39.456  49.937 -52.008  1.00  0.00     0.001 A 
HETATM   21  C   UNL     1     -39.572  49.524 -53.333  1.00  0.00     0.000 A 
HETATM   22  C   UNL     1     -39.960  50.435 -54.312  1.00  0.00     0.001 A 
HETATM   23  C   UNL     1     -40.230  51.761 -53.967  1.00  0.00     0.007 A 
ENDBRANCH  16  18
ENDBRANCH  15  16
ENDBRANCH  12  15
ENDBRANCH   1  11
BRANCH   8  24
HETATM   24  C   UNL     1     -42.711  56.773 -59.955  1.00  0.00     0.270 C 
HETATM   25  N   UNL     1     -41.379  57.044 -60.119  1.00  0.00    -0.365 N 
HETATM   26  H   UNL     1     -40.958  57.768 -59.550  1.00  0.00     0.159 HD
HETATM   27  H   UNL     1     -40.844  56.521 -60.794  1.00  0.00     0.159 HD
HETATM   28  O   UNL     1     -43.265  55.903 -60.618  1.00  0.00    -0.266 OA
ENDBRANCH   8  24
TORSDOF 5
ENDMDL
MODEL 5
REMARK VINA RESULT:      -8.6      2.560      3.770
REMARK  5 active torsions:
REMARK  status: ('A' for Active; 'I' for Inactive)
REMARK    1  A    between atoms: C_2  and  C_3 
REMARK    2  A    between atoms: C_2  and  C_9 
REMARK    3  A    between atoms: C_9  and  C_10 
REMARK       I    between atoms: C_10  and  N_11 
REMARK    4  A    between atoms: N_11  and  C_12 
REMARK    5  A    between atoms: C_19  and  C_20 
REMARK       I    between atoms: C_20  and  N_21 
ROOT
HETATM    1  C   UNL     1     -42.802  56.279 -57.627  1.00  0.00     0.035 A 
HETATM    2  C   UNL     1     -42.327  57.585 -57.446  1.00  0.00     0.046 A 
HETATM    3  C   UNL     1     -42.659  58.585 -58.387  1.00  0.00     0.030 A 
HETATM    4  C   UNL     1     -43.452  58.246 -59.476  1.00  0.00     0.063 A 
HETATM    5  N   UNL     1     -43.594  59.399 -60.195  1.00  0.00    -0.277 N 
HETATM    6  H   UNL     1     -44.111  59.524 -61.058  1.00  0.00     0.189 HD
HETATM    7  N   UNL     1     -42.966  60.464 -59.671  1.00  0.00    -0.168 NA
HETATM    8  C   UNL     1     -42.384  59.977 -58.550  1.00  0.00     0.156 A 
HETATM    9  C   UNL     1     -43.945  56.957 -59.686  1.00  0.00     0.034 A 
HETATM   10  C   UNL     1     -43.603  55.984 -58.738  1.00  0.00     0.032 A 
ENDROOT
BRANCH   1  11
HETATM   11  N   UNL     1     -42.525  55.212 -56.743  1.00  0.00    -0.327 N 
HETATM   12  C   UNL     1     -42.888  55.101 -55.410  1.00  0.00     0.222 C 
HETATM   13  O   UNL     1     -43.503  55.933 -54.753  1.00  0.00    -0.273 OA
HETATM   14  H   UNL     1     -41.978  54.451 -57.125  1.00  0.00     0.169 HD
BRANCH  12  15
HETATM   15  C   UNL     1     -42.402  53.791 -54.809  1.00  0.00     0.112 C 
BRANCH  15  16
HETATM   16  C   UNL     1     -40.878  53.603 -54.914  1.00  0.00     0.023 C 
HETATM   17  C   UNL     1     -40.125  54.927 -54.728  1.00  0.00     0.015 C 
BRANCH  16  18
HETATM   18  C   UNL     1     -40.404  52.561 -53.910  1.00  0.00    -0.054 A 
HETATM   19  C   UNL     1     -40.118  51.241 -54.290  1.00  0.00     0.007 A 
HETATM   20  C   UNL     1     -39.680  50.307 -53.348  1.00  0.00     0.001 A 
HETATM   21  C   UNL     1     -39.519  50.681 -52.016  1.00  0.00     0.000 A 
HETATM   22  C   UNL     1     -39.795  51.989 -51.625  1.00  0.00     0.001 A 
HETATM   23  C   UNL     1     -40.234  52.924 -52.565  1.00  0.00     0.007 A 
ENDBRANCH  16  18
ENDBRANCH  15  16
ENDBRANCH  12  15
ENDBRANCH   1  11
BRANCH   8  24
HETATM   24  C   UNL     1     -41.586  60.844 -57.671  1.00  0.00     0.270 C 
HETATM   25  N   UNL     1     -42.138  61.042 -56.434  1.00  0.00    -0.365 N 
HETATM   26  H   UNL     1     -43.021  60.595 -56.219  1.00  0.00     0.159 HD
HETATM   27  H   UNL     1     -41.659  61.621 -55.762  1.00  0.00     0.159 HD
HETATM   28  O   UNL     1     -40.517  61.360 -57.977  1.00  0.00    -0.266 OA
ENDBRANCH   8  24
TORSDOF 5
ENDMDL
MODEL 6
REMARK VINA RESULT:      -8.6      4.421      6.114
REMARK  5 active torsions:
REMARK  status: ('A' for Active; 'I' for Inactive)
REMARK    1  A    between atoms: C_2  and  C_3 
REMARK    2  A    between atoms: C_2  and  C_9 
REMARK    3  A    between atoms: C_9  and  C_10 
REMARK       I    between atoms: C_10  and  N_11 
REMARK    4  A    between atoms: N_11  and  C_12 
REMARK    5  A    between atoms: C_19  and  C_20 
REMARK       I    between atoms: C_20  and  N_21 
ROOT
HETATM    1  C   UNL     1     -43.669  57.105 -53.095  1.00  0.00     0.035 A 
HETATM    2  C   UNL     1     -44.178  57.910 -52.067  1.00  0.00     0.046 A 
HETATM    3  C   UNL     1     -45.007  59.009 -52.387  1.00  0.00     0.030 A 
HETATM    4  C   UNL     1     -45.298  59.264 -53.721  1.00  0.00     0.063 A 
HETATM    5  N   UNL     1     -46.102  60.369 -53.712  1.00  0.00    -0.277 N 
HETATM    6  H   UNL     1     -46.506  60.841 -54.513  1.00  0.00     0.189 HD
HETATM    7  N   UNL     1     -46.365  60.858 -52.489  1.00  0.00    -0.168 NA
HETATM    8  C   UNL     1     -45.696  60.026 -51.657  1.00  0.00     0.156 A 
HETATM    9  C   UNL     1     -44.812  58.482 -54.770  1.00  0.00     0.034 A 
HETATM   10  C   UNL     1     -43.994  57.398 -54.427  1.00  0.00     0.032 A 
ENDROOT
BRANCH   1  11
HETATM   11  N   UNL     1     -42.833  55.988 -52.877  1.00  0.00    -0.327 N 
HETATM   12  C   UNL     1     -41.465  55.986 -52.646  1.00  0.00     0.222 C 
HETATM   13  O   UNL     1     -40.733  56.967 -52.614  1.00  0.00    -0.273 OA
HETATM   14  H   UNL     1     -43.283  55.082 -52.915  1.00  0.00     0.169 HD
BRANCH  12  15
HETATM   15  C   UNL     1     -40.937  54.572 -52.454  1.00  0.00     0.112 C 
BRANCH  15  16
HETATM   16  C   UNL     1     -40.934  53.743 -53.750  1.00  0.00     0.023 C 
HETATM   17  C   UNL     1     -40.085  54.398 -54.847  1.00  0.00     0.015 C 
BRANCH  16  18
HETATM   18  C   UNL     1     -40.459  52.324 -53.468  1.00  0.00    -0.054 A 
HETATM   19  C   UNL     1     -40.565  51.302 -54.425  1.00  0.00     0.007 A 
HETATM   20  C   UNL     1     -40.116  50.011 -54.139  1.00  0.00     0.001 A 
HETATM   21  C   UNL     1     -39.553  49.725 -52.898  1.00  0.00     0.000 A 
HETATM   22  C   UNL     1     -39.436  50.729 -51.941  1.00  0.00     0.001 A 
HETATM   23  C   UNL     1     -39.885  52.021 -52.224  1.00  0.00     0.007 A 
ENDBRANCH  16  18
ENDBRANCH  15  16
ENDBRANCH  12  15
ENDBRANCH   1  11
BRANCH   8  24
HETATM   24  C   UNL     1     -45.728  60.219 -50.201  1.00  0.00     0.270 C 
HETATM   25  N   UNL     1     -45.351  61.470 -49.795  1.00  0.00    -0.365 N 
HETATM   26  H   UNL     1     -45.088  62.150 -50.499  1.00  0.00     0.159 HD
HETATM   27  H   UNL     1     -45.346  61.695 -48.813  1.00  0.00     0.159 HD
HETATM   28  O   UNL     1     -46.060  59.363 -49.387  1.00  0.00    -0.266 OA
ENDBRANCH   8  24
TORSDOF 5
ENDMDL
MODEL 7
REMARK VINA RESULT:      -8.6      4.597      6.641
REMARK  5 active torsions:
REMARK  status: ('A' for Active; 'I' for Inactive)
REMARK    1  A    between atoms: C_2  and  C_3 
REMARK    2  A    between atoms: C_2  and  C_9 
REMARK    3  A    between atoms: C_9  and  C_10 
REMARK       I    between atoms: C_10  and  N_11 
REMARK    4  A    between atoms: N_11  and  C_12 
REMARK    5  A    between atoms: C_19  and  C_20 
REMARK       I    between atoms: C_20  and  N_21 
ROOT
HETATM    1  C   UNL     1     -42.245  57.073 -52.205  1.00  0.00     0.035 A 
HETATM    2  C   UNL     1     -43.389  57.756 -51.773  1.00  0.00     0.046 A 
HETATM    3  C   UNL     1     -43.264  59.055 -51.231  1.00  0.00     0.030 A 
HETATM    4  C   UNL     1     -42.001  59.624 -51.139  1.00  0.00     0.063 A 
HETATM    5  N   UNL     1     -42.198  60.857 -50.583  1.00  0.00    -0.277 N 
HETATM    6  H   UNL     1     -41.494  61.552 -50.365  1.00  0.00     0.189 HD
HETATM    7  N   UNL     1     -43.480  61.144 -50.305  1.00  0.00    -0.168 NA
HETATM    8  C   UNL     1     -44.153  60.039 -50.702  1.00  0.00     0.156 A 
HETATM    9  C   UNL     1     -40.840  58.975 -51.562  1.00  0.00     0.034 A 
HETATM   10  C   UNL     1     -40.991  57.690 -52.098  1.00  0.00     0.032 A 
ENDROOT
BRANCH   1  11
HETATM   11  N   UNL     1     -42.266  55.773 -52.759  1.00  0.00    -0.327 N 
HETATM   12  C   UNL     1     -42.548  55.417 -54.069  1.00  0.00     0.222 C 
HETATM   13  O   UNL     1     -42.854  56.178 -54.980  1.00  0.00    -0.273 OA
HETATM   14  H   UNL     1     -42.074  55.014 -52.118  1.00  0.00     0.169 HD
BRANCH  12  15
HETATM   15  C   UNL     1     -42.461  53.910 -54.266  1.00  0.00     0.112 C 
BRANCH  15  16
HETATM   16  C   UNL     1     -41.088  53.443 -54.778  1.00  0.00     0.023 C 
HETATM   17  C   UNL     1     -40.108  54.613 -54.936  1.00  0.00     0.015 C 
BRANCH  16  18
HETATM   18  C   UNL     1     -40.516  52.375 -53.855  1.00  0.00    -0.054 A 
HETATM   19  C   UNL     1     -40.240  51.075 -54.306  1.00  0.00     0.007 A 
HETATM   20  C   UNL     1     -39.711  50.118 -53.438  1.00  0.00     0.001 A 
HETATM   21  C   UNL     1     -39.447  50.447 -52.111  1.00  0.00     0.000 A 
HETATM   22  C   UNL     1     -39.711  51.734 -51.650  1.00  0.00     0.001 A 
HETATM   23  C   UNL     1     -40.240  52.693 -52.516  1.00  0.00     0.007 A 
ENDBRANCH  16  18
ENDBRANCH  15  16
ENDBRANCH  12  15
ENDBRANCH   1  11
BRANCH   8  24
HETATM   24  C   UNL     1     -45.614  59.950 -50.568  1.00  0.00     0.270 C 
HETATM   25  N   UNL     1     -46.284  61.059 -51.010  1.00  0.00    -0.365 N 
HETATM   26  H   UNL     1     -45.747  61.832 -51.385  1.00  0.00     0.159 HD
HETATM   27  H   UNL     1     -47.290  61.086 -50.959  1.00  0.00     0.159 HD
HETATM   28  O   UNL     1     -46.218  58.987 -50.110  1.00  0.00    -0.266 OA
ENDBRANCH   8  24
TORSDOF 5
ENDMDL
MODEL 8
REMARK VINA RESULT:      -8.6      2.629      3.708
REMARK  5 active torsions:
REMARK  status: ('A' for Active; 'I' for Inactive)
REMARK    1  A    between atoms: C_2  and  C_3 
REMARK    2  A    between atoms: C_2  and  C_9 
REMARK    3  A    between atoms: C_9  and  C_10 
REMARK       I    between atoms: C_10  and  N_11 
REMARK    4  A    between atoms: N_11  and  C_12 
REMARK    5  A    between atoms: C_19  and  C_20 
REMARK       I    between atoms: C_20  and  N_21 
ROOT
HETATM    1  C   UNL     1     -41.601  56.875 -53.515  1.00  0.00     0.035 A 
HETATM    2  C   UNL     1     -42.192  56.960 -54.783  1.00  0.00     0.046 A 
HETATM    3  C   UNL     1     -42.276  58.213 -55.431  1.00  0.00     0.030 A 
HETATM    4  C   UNL     1     -41.769  59.336 -54.789  1.00  0.00     0.063 A 
HETATM    5  N   UNL     1     -41.995  60.376 -55.646  1.00  0.00    -0.277 N 
HETATM    6  H   UNL     1     -41.756  61.351 -55.504  1.00  0.00     0.189 HD
HETATM    7  N   UNL     1     -42.603  60.033 -56.792  1.00  0.00    -0.168 NA
HETATM    8  C   UNL     1     -42.783  58.696 -56.676  1.00  0.00     0.156 A 
HETATM    9  C   UNL     1     -41.171  59.288 -53.529  1.00  0.00     0.034 A 
HETATM   10  C   UNL     1     -41.098  58.034 -52.908  1.00  0.00     0.032 A 
ENDROOT
BRANCH   1  11
HETATM   11  N   UNL     1     -41.471  55.671 -52.788  1.00  0.00    -0.327 N 
HETATM   12  C   UNL     1     -42.397  55.095 -51.931  1.00  0.00     0.222 C 
HETATM   13  O   UNL     1     -43.495  55.551 -51.636  1.00  0.00    -0.273 OA
HETATM   14  H   UNL     1     -40.589  55.184 -52.890  1.00  0.00     0.169 HD
BRANCH  12  15
HETATM   15  C   UNL     1     -41.876  53.791 -51.346  1.00  0.00     0.112 C 
BRANCH  15  16
HETATM   16  C   UNL     1     -40.368  53.584 -51.571  1.00  0.00     0.023 C 
HETATM   17  C   UNL     1     -39.578  53.664 -50.258  1.00  0.00     0.015 C 
BRANCH  16  18
HETATM   18  C   UNL     1     -40.116  52.259 -52.278  1.00  0.00    -0.054 A 
HETATM   19  C   UNL     1     -39.709  51.111 -51.581  1.00  0.00     0.007 A 
HETATM   20  C   UNL     1     -39.490  49.908 -52.256  1.00  0.00     0.001 A 
HETATM   21  C   UNL     1     -39.679  49.835 -53.634  1.00  0.00     0.000 A 
HETATM   22  C   UNL     1     -40.088  50.965 -54.338  1.00  0.00     0.001 A 
HETATM   23  C   UNL     1     -40.307  52.169 -53.666  1.00  0.00     0.007 A 
ENDBRANCH  16  18
ENDBRANCH  15  16
ENDBRANCH  12  15
ENDBRANCH   1  11
BRANCH   8  24
HETATM   24  C   UNL     1     -43.427  57.920 -57.744  1.00  0.00     0.270 C 
HETATM   25  N   UNL     1     -44.676  57.460 -57.424  1.00  0.00    -0.365 N 
HETATM   26  H   UNL     1     -45.054  57.679 -56.510  1.00  0.00     0.159 HD
HETATM   27  H   UNL     1     -45.196  56.919 -58.097  1.00  0.00     0.159 HD
HETATM   28  O   UNL     1     -42.928  57.684 -58.839  1.00  0.00    -0.266 OA
ENDBRANCH   8  24
TORSDOF 5
ENDMDL
MODEL 9
REMARK VINA RESULT:      -8.5      2.918      8.504
REMARK  5 active torsions:
REMARK  status: ('A' for Active; 'I' for Inactive)
REMARK    1  A    between atoms: C_2  and  C_3 
REMARK    2  A    between atoms: C_2  and  C_9 
REMARK    3  A    between atoms: C_9  and  C_10 
REMARK       I    between atoms: C_10  and  N_11 
REMARK    4  A    between atoms: N_11  and  C_12 
REMARK    5  A    between atoms: C_19  and  C_20 
REMARK       I    between atoms: C_20  and  N_21 
ROOT
HETATM    1  C   UNL     1     -41.087  54.370 -54.654  1.00  0.00     0.035 A 
HETATM    2  C   UNL     1     -40.664  53.047 -54.470  1.00  0.00     0.046 A 
HETATM    3  C   UNL     1     -40.311  52.600 -53.177  1.00  0.00     0.030 A 
HETATM    4  C   UNL     1     -40.392  53.490 -52.114  1.00  0.00     0.063 A 
HETATM    5  N   UNL     1     -39.991  52.781 -51.017  1.00  0.00    -0.277 N 
HETATM    6  H   UNL     1     -39.923  53.115 -50.062  1.00  0.00     0.189 HD
HETATM    7  N   UNL     1     -39.657  51.505 -51.268  1.00  0.00    -0.168 NA
HETATM    8  C   UNL     1     -39.851  51.376 -52.601  1.00  0.00     0.156 A 
HETATM    9  C   UNL     1     -40.812  54.813 -52.259  1.00  0.00     0.034 A 
HETATM   10  C   UNL     1     -41.158  55.232 -53.550  1.00  0.00     0.032 A 
ENDROOT
BRANCH   1  11
HETATM   11  N   UNL     1     -41.460  54.911 -55.905  1.00  0.00    -0.327 N 
HETATM   12  C   UNL     1     -42.653  55.534 -56.235  1.00  0.00     0.222 C 
HETATM   13  O   UNL     1     -43.613  55.706 -55.493  1.00  0.00    -0.273 OA
HETATM   14  H   UNL     1     -40.783  54.811 -56.650  1.00  0.00     0.169 HD
BRANCH  12  15
HETATM   15  C   UNL     1     -42.661  55.982 -57.690  1.00  0.00     0.112 C 
BRANCH  15  16
HETATM   16  C   UNL     1     -43.637  57.140 -57.963  1.00  0.00     0.023 C 
HETATM   17  C   UNL     1     -42.903  58.420 -58.383  1.00  0.00     0.015 C 
BRANCH  16  18
HETATM   18  C   UNL     1     -44.662  56.730 -59.012  1.00  0.00    -0.054 A 
HETATM   19  C   UNL     1     -45.934  57.320 -59.076  1.00  0.00     0.007 A 
HETATM   20  C   UNL     1     -46.852  56.926 -60.053  1.00  0.00     0.001 A 
HETATM   21  C   UNL     1     -46.510  55.944 -60.979  1.00  0.00     0.000 A 
HETATM   22  C   UNL     1     -45.250  55.354 -60.930  1.00  0.00     0.001 A 
HETATM   23  C   UNL     1     -44.331  55.745 -59.954  1.00  0.00     0.007 A 
ENDBRANCH  16  18
ENDBRANCH  15  16
ENDBRANCH  12  15
ENDBRANCH   1  11
BRANCH   8  24
HETATM   24  C   UNL     1     -39.596  50.102 -53.287  1.00  0.00     0.270 C 
HETATM   25  N   UNL     1     -39.443  49.035 -52.443  1.00  0.00    -0.365 N 
HETATM   26  H   UNL     1     -39.514  49.192 -51.445  1.00  0.00     0.159 HD
HETATM   27  H   UNL     1     -39.267  48.119 -52.825  1.00  0.00     0.159 HD
HETATM   28  O   UNL     1     -39.522  49.962 -54.503  1.00  0.00    -0.266 OA
ENDBRANCH   8  24
TORSDOF 5
ENDMDL
MODEL 10
REMARK VINA RESULT:      -8.3      3.009      8.731
REMARK  5 active torsions:
REMARK  status: ('A' for Active; 'I' for Inactive)
REMARK    1  A    between atoms: C_2  and  C_3 
REMARK    2  A    between atoms: C_2  and  C_9 
REMARK    3  A    between atoms: C_9  and  C_10 
REMARK       I    between atoms: C_10  and  N_11 
REMARK    4  A    between atoms: N_11  and  C_12 
REMARK    5  A    between atoms: C_19  and  C_20 
REMARK       I    between atoms: C_20  and  N_21 
ROOT
HETATM    1  C   UNL     1     -40.866  54.377 -54.375  1.00  0.00     0.035 A 
HETATM    2  C   UNL     1     -41.124  54.663 -53.027  1.00  0.00     0.046 A 
HETATM    3  C   UNL     1     -40.760  53.727 -52.034  1.00  0.00     0.030 A 
HETATM    4  C   UNL     1     -40.152  52.540 -52.421  1.00  0.00     0.063 A 
HETATM    5  N   UNL     1     -39.926  51.853 -51.261  1.00  0.00    -0.277 N 
HETATM    6  H   UNL     1     -39.497  50.939 -51.163  1.00  0.00     0.189 HD
HETATM    7  N   UNL     1     -40.331  52.487 -50.150  1.00  0.00    -0.168 NA
HETATM    8  C   UNL     1     -40.848  53.650 -50.610  1.00  0.00     0.156 A 
HETATM    9  C   UNL     1     -39.877  52.224 -53.752  1.00  0.00     0.034 A 
HETATM   10  C   UNL     1     -40.246  53.169 -54.718  1.00  0.00     0.032 A 
ENDROOT
BRANCH   1  11
HETATM   11  N   UNL     1     -41.193  55.247 -55.439  1.00  0.00    -0.327 N 
HETATM   12  C   UNL     1     -42.419  55.385 -56.074  1.00  0.00     0.222 C 
HETATM   13  O   UNL     1     -43.438  54.749 -55.831  1.00  0.00    -0.273 OA
HETATM   14  H   UNL     1     -40.438  55.821 -55.792  1.00  0.00     0.169 HD
BRANCH  12  15
HETATM   15  C   UNL     1     -42.360  56.436 -57.172  1.00  0.00     0.112 C 
BRANCH  15  16
HETATM   16  C   UNL     1     -43.695  57.175 -57.377  1.00  0.00     0.023 C 
HETATM   17  C   UNL     1     -43.499  58.693 -57.476  1.00  0.00     0.015 C 
BRANCH  16  18
HETATM   18  C   UNL     1     -44.413  56.636 -58.607  1.00  0.00    -0.054 A 
HETATM   19  C   UNL     1     -45.619  57.190 -59.064  1.00  0.00     0.007 A 
HETATM   20  C   UNL     1     -46.252  56.678 -60.198  1.00  0.00     0.001 A 
HETATM   21  C   UNL     1     -45.689  55.610 -60.892  1.00  0.00     0.000 A 
HETATM   22  C   UNL     1     -44.490  55.053 -60.453  1.00  0.00     0.001 A 
HETATM   23  C   UNL     1     -43.855  55.563 -59.319  1.00  0.00     0.007 A 
ENDBRANCH  16  18
ENDBRANCH  15  16
ENDBRANCH  12  15
ENDBRANCH   1  11
BRANCH   8  24
HETATM   24  C   UNL     1     -41.408  54.650 -49.691  1.00  0.00     0.270 C 
HETATM   25  N   UNL     1     -40.853  54.631 -48.440  1.00  0.00    -0.365 N 
HETATM   26  H   UNL     1     -40.122  53.958 -48.244  1.00  0.00     0.159 HD
HETATM   27  H   UNL     1     -41.173  55.284 -47.743  1.00  0.00     0.159 HD
HETATM   28  O   UNL     1     -42.293  55.449 -49.978  1.00  0.00    -0.266 OA
ENDBRANCH   8  24
TORSDOF 5
ENDMDL
