MODEL 1
REMARK VINA RESULT:      -7.8      0.000      0.000
REMARK  3 active torsions:
REMARK  status: ('A' for Active; 'I' for Inactive)
REMARK    1  A    between atoms: C_5  and  N_6 
REMARK       I    between atoms: N_6  and  C_7 
REMARK    2  A    between atoms: C_7  and  C_8 
REMARK    3  A    between atoms: C_8  and  C_9 
ROOT
HETATM    1  C   UNL     1     -41.464  57.078 -51.347  1.00  0.00     0.286 C 
HETATM    2  N   UNL     1     -42.713  56.769 -52.188  1.00  0.00    -0.056 N 
HETATM    3  H   UNL     1     -42.391  56.578 -53.145  1.00  0.00     0.278 HD
HETATM    4  H   UNL     1     -43.107  55.849 -51.890  1.00  0.00     0.278 HD
HETATM    5  C   UNL     1     -43.793  57.805 -52.256  1.00  0.00     0.209 C 
HETATM    6  C   UNL     1     -43.161  59.205 -52.428  1.00  0.00     0.115 C 
HETATM    7  N   UNL     1     -42.146  59.471 -51.416  1.00  0.00    -0.353 N 
HETATM    8  C   UNL     1     -41.256  58.543 -50.955  1.00  0.00     0.249 C 
HETATM    9  O   UNL     1     -40.316  58.895 -50.247  1.00  0.00    -0.271 OA
HETATM   10  C   UNL     1     -44.700  57.698 -51.032  1.00  0.00     0.035 C 
HETATM   11  C   UNL     1     -45.763  58.796 -51.047  1.00  0.00     0.002 C 
HETATM   12  C   UNL     1     -45.139  60.184 -51.171  1.00  0.00     0.002 C 
HETATM   13  C   UNL     1     -44.241  60.290 -52.405  1.00  0.00     0.027 C 
HETATM   14  H   UNL     1     -41.888  60.433 -51.204  1.00  0.00     0.163 HD
ENDROOT
BRANCH   1  15
HETATM   15  C   UNL     1     -41.396  56.183 -50.105  1.00  0.00     0.146 C 
BRANCH  15  16
HETATM   16  C   UNL     1     -41.503  54.772 -50.613  1.00  0.00     0.224 C 
HETATM   17  N   UNL     1     -40.363  54.301 -51.215  1.00  0.00    -0.327 N 
HETATM   18  H   UNL     1     -39.491  54.801 -51.063  1.00  0.00     0.169 HD
HETATM   19  O   UNL     1     -42.628  54.274 -50.629  1.00  0.00    -0.273 OA
BRANCH  17  20
HETATM   20  C   UNL     1     -40.269  53.195 -52.089  1.00  0.00     0.034 A 
HETATM   21  C   UNL     1     -40.634  53.233 -53.435  1.00  0.00     0.030 A 
HETATM   22  C   UNL     1     -40.449  52.114 -54.254  1.00  0.00     0.009 A 
HETATM   23  C   UNL     1     -39.900  50.937 -53.738  1.00  0.00    -0.062 A 
HETATM   24  C   UNL     1     -39.675  49.743 -54.616  1.00  0.00     0.048 C 
HETATM   25  C   UNL     1     -39.540  50.896 -52.388  1.00  0.00     0.009 A 
HETATM   26  C   UNL     1     -39.731  52.012 -51.569  1.00  0.00     0.030 A 
ENDBRANCH  17  20
ENDBRANCH  15  16
ENDBRANCH   1  15
TORSDOF 3
ENDMDL
MODEL 2
REMARK VINA RESULT:      -7.8      0.115      1.030
REMARK  3 active torsions:
REMARK  status: ('A' for Active; 'I' for Inactive)
REMARK    1  A    between atoms: C_5  and  N_6 
REMARK       I    between atoms: N_6  and  C_7 
REMARK    2  A    between atoms: C_7  and  C_8 
REMARK    3  A    between atoms: C_8  and  C_9 
ROOT
HETATM    1  C   UNL     1     -41.537  57.011 -51.388  1.00  0.00     0.286 C 
HETATM    2  N   UNL     1     -42.798  56.728 -52.219  1.00  0.00    -0.056 N 
HETATM    3  H   UNL     1     -42.486  56.518 -53.176  1.00  0.00     0.278 HD
HETATM    4  H   UNL     1     -43.216  55.822 -51.910  1.00  0.00     0.278 HD
HETATM    5  C   UNL     1     -43.850  57.792 -52.293  1.00  0.00     0.209 C 
HETATM    6  C   UNL     1     -43.181  59.173 -52.483  1.00  0.00     0.115 C 
HETATM    7  N   UNL     1     -42.154  59.421 -51.479  1.00  0.00    -0.353 N 
HETATM    8  C   UNL     1     -41.287  58.475 -51.012  1.00  0.00     0.249 C 
HETATM    9  O   UNL     1     -40.335  58.808 -50.312  1.00  0.00    -0.271 OA
HETATM   10  C   UNL     1     -44.754  57.722 -51.064  1.00  0.00     0.035 C 
HETATM   11  C   UNL     1     -45.786  58.849 -51.085  1.00  0.00     0.002 C 
HETATM   12  C   UNL     1     -45.125  60.218 -51.227  1.00  0.00     0.002 C 
HETATM   13  C   UNL     1     -44.232  60.286 -52.466  1.00  0.00     0.027 C 
HETATM   14  H   UNL     1     -41.869  60.378 -51.278  1.00  0.00     0.163 HD
ENDROOT
BRANCH   1  15
HETATM   15  C   UNL     1     -41.488  56.128 -50.136  1.00  0.00     0.146 C 
BRANCH  15  16
HETATM   16  C   UNL     1     -41.524  54.711 -50.636  1.00  0.00     0.224 C 
HETATM   17  N   UNL     1     -40.328  54.256 -51.134  1.00  0.00    -0.327 N 
HETATM   18  H   UNL     1     -39.482  54.774 -50.914  1.00  0.00     0.169 HD
HETATM   19  O   UNL     1     -42.635  54.190 -50.742  1.00  0.00    -0.273 OA
BRANCH  17  20
HETATM   20  C   UNL     1     -40.140  53.144 -51.985  1.00  0.00     0.034 A 
HETATM   21  C   UNL     1     -39.670  51.904 -51.553  1.00  0.00     0.030 A 
HETATM   22  C   UNL     1     -39.573  50.831 -52.445  1.00  0.00     0.009 A 
HETATM   23  C   UNL     1     -39.940  50.983 -53.785  1.00  0.00    -0.062 A 
HETATM   24  C   UNL     1     -39.863  49.830 -54.740  1.00  0.00     0.048 C 
HETATM   25  C   UNL     1     -40.404  52.228 -54.219  1.00  0.00     0.009 A 
HETATM   26  C   UNL     1     -40.495  53.301 -53.330  1.00  0.00     0.030 A 
ENDBRANCH  17  20
ENDBRANCH  15  16
ENDBRANCH   1  15
TORSDOF 3
ENDMDL
MODEL 3
REMARK VINA RESULT:      -7.5      4.732      6.778
REMARK  3 active torsions:
REMARK  status: ('A' for Active; 'I' for Inactive)
REMARK    1  A    between atoms: C_5  and  N_6 
REMARK       I    between atoms: N_6  and  C_7 
REMARK    2  A    between atoms: C_7  and  C_8 
REMARK    3  A    between atoms: C_8  and  C_9 
ROOT
HETATM    1  C   UNL     1     -42.246  55.662 -53.818  1.00  0.00     0.286 C 
HETATM    2  N   UNL     1     -42.677  54.389 -53.072  1.00  0.00    -0.056 N 
HETATM    3  H   UNL     1     -43.696  54.443 -52.951  1.00  0.00     0.278 HD
HETATM    4  H   UNL     1     -42.564  53.567 -53.705  1.00  0.00     0.278 HD
HETATM    5  C   UNL     1     -42.061  54.111 -51.735  1.00  0.00     0.209 C 
HETATM    6  C   UNL     1     -41.992  55.417 -50.911  1.00  0.00     0.115 C 
HETATM    7  N   UNL     1     -41.345  56.492 -51.651  1.00  0.00    -0.353 N 
HETATM    8  C   UNL     1     -41.513  56.720 -52.988  1.00  0.00     0.249 C 
HETATM    9  O   UNL     1     -41.085  57.753 -53.492  1.00  0.00    -0.271 OA
HETATM   10  C   UNL     1     -40.701  53.437 -51.914  1.00  0.00     0.035 C 
HETATM   11  C   UNL     1     -40.025  53.214 -50.562  1.00  0.00     0.002 C 
HETATM   12  C   UNL     1     -39.915  54.512 -49.765  1.00  0.00     0.002 C 
HETATM   13  C   UNL     1     -41.280  55.175 -49.578  1.00  0.00     0.027 C 
HETATM   14  H   UNL     1     -40.944  57.281 -51.146  1.00  0.00     0.163 HD
ENDROOT
BRANCH   1  15
HETATM   15  C   UNL     1     -41.436  55.321 -55.074  1.00  0.00     0.146 C 
BRANCH  15  16
HETATM   16  C   UNL     1     -42.445  54.941 -56.120  1.00  0.00     0.224 C 
HETATM   17  N   UNL     1     -42.438  55.746 -57.232  1.00  0.00    -0.327 N 
HETATM   18  H   UNL     1     -41.634  56.349 -57.389  1.00  0.00     0.169 HD
HETATM   19  O   UNL     1     -43.293  54.109 -55.795  1.00  0.00    -0.273 OA
BRANCH  17  20
HETATM   20  C   UNL     1     -43.472  55.875 -58.185  1.00  0.00     0.034 A 
HETATM   21  C   UNL     1     -43.806  54.886 -59.110  1.00  0.00     0.030 A 
HETATM   22  C   UNL     1     -44.889  55.062 -59.979  1.00  0.00     0.009 A 
HETATM   23  C   UNL     1     -45.652  56.231 -59.939  1.00  0.00    -0.062 A 
HETATM   24  C   UNL     1     -46.829  56.414 -60.849  1.00  0.00     0.048 C 
HETATM   25  C   UNL     1     -45.313  57.225 -59.016  1.00  0.00     0.009 A 
HETATM   26  C   UNL     1     -44.229  57.053 -58.153  1.00  0.00     0.030 A 
ENDBRANCH  17  20
ENDBRANCH  15  16
ENDBRANCH   1  15
TORSDOF 3
ENDMDL
MODEL 4
REMARK VINA RESULT:      -7.4      2.127      3.089
REMARK  3 active torsions:
REMARK  status: ('A' for Active; 'I' for Inactive)
REMARK    1  A    between atoms: C_5  and  N_6 
REMARK       I    between atoms: N_6  and  C_7 
REMARK    2  A    between atoms: C_7  and  C_8 
REMARK    3  A    between atoms: C_8  and  C_9 
ROOT
HETATM    1  C   UNL     1     -42.766  57.746 -54.371  1.00  0.00     0.286 C 
HETATM    2  N   UNL     1     -43.212  57.263 -52.983  1.00  0.00    -0.056 N 
HETATM    3  H   UNL     1     -44.240  57.294 -52.969  1.00  0.00     0.278 HD
HETATM    4  H   UNL     1     -43.013  56.242 -52.895  1.00  0.00     0.278 HD
HETATM    5  C   UNL     1     -42.706  58.001 -51.781  1.00  0.00     0.209 C 
HETATM    6  C   UNL     1     -42.760  59.523 -52.044  1.00  0.00     0.115 C 
HETATM    7  N   UNL     1     -42.092  59.883 -53.288  1.00  0.00    -0.353 N 
HETATM    8  C   UNL     1     -42.151  59.147 -54.437  1.00  0.00     0.249 C 
HETATM    9  O   UNL     1     -41.720  59.614 -55.487  1.00  0.00    -0.271 OA
HETATM   10  C   UNL     1     -41.311  57.501 -51.408  1.00  0.00     0.035 C 
HETATM   11  C   UNL     1     -40.747  58.296 -50.230  1.00  0.00     0.002 C 
HETATM   12  C   UNL     1     -40.758  59.797 -50.506  1.00  0.00     0.002 C 
HETATM   13  C   UNL     1     -42.159  60.294 -50.866  1.00  0.00     0.027 C 
HETATM   14  H   UNL     1     -41.768  60.839 -53.426  1.00  0.00     0.163 HD
ENDROOT
BRANCH   1  15
HETATM   15  C   UNL     1     -41.837  56.728 -55.041  1.00  0.00     0.146 C 
BRANCH  15  16
HETATM   16  C   UNL     1     -41.955  55.471 -54.227  1.00  0.00     0.224 C 
HETATM   17  N   UNL     1     -40.785  55.071 -53.630  1.00  0.00    -0.327 N 
HETATM   18  H   UNL     1     -40.022  55.739 -53.562  1.00  0.00     0.169 HD
HETATM   19  O   UNL     1     -43.000  54.830 -54.347  1.00  0.00    -0.273 OA
BRANCH  17  20
HETATM   20  C   UNL     1     -40.493  53.783 -53.130  1.00  0.00     0.034 A 
HETATM   21  C   UNL     1     -40.205  52.681 -53.936  1.00  0.00     0.030 A 
HETATM   22  C   UNL     1     -39.860  51.452 -53.364  1.00  0.00     0.009 A 
HETATM   23  C   UNL     1     -39.802  51.304 -51.975  1.00  0.00    -0.062 A 
HETATM   24  C   UNL     1     -39.407  49.997 -51.356  1.00  0.00     0.048 C 
HETATM   25  C   UNL     1     -40.098  52.406 -51.168  1.00  0.00     0.009 A 
HETATM   26  C   UNL     1     -40.448  53.632 -51.739  1.00  0.00     0.030 A 
ENDBRANCH  17  20
ENDBRANCH  15  16
ENDBRANCH   1  15
TORSDOF 3
ENDMDL
MODEL 5
REMARK VINA RESULT:      -7.4      3.949      5.029
REMARK  3 active torsions:
REMARK  status: ('A' for Active; 'I' for Inactive)
REMARK    1  A    between atoms: C_5  and  N_6 
REMARK       I    between atoms: N_6  and  C_7 
REMARK    2  A    between atoms: C_7  and  C_8 
REMARK    3  A    between atoms: C_8  and  C_9 
ROOT
HETATM    1  C   UNL     1     -43.304  55.992 -55.149  1.00  0.00     0.286 C 
HETATM    2  N   UNL     1     -44.229  57.074 -55.728  1.00  0.00    -0.056 N 
HETATM    3  H   UNL     1     -45.172  56.669 -55.776  1.00  0.00     0.278 HD
HETATM    4  H   UNL     1     -44.343  57.839 -55.027  1.00  0.00     0.278 HD
HETATM    5  C   UNL     1     -43.895  57.642 -57.074  1.00  0.00     0.209 C 
HETATM    6  C   UNL     1     -43.464  56.504 -58.027  1.00  0.00     0.115 C 
HETATM    7  N   UNL     1     -42.408  55.684 -57.450  1.00  0.00    -0.353 N 
HETATM    8  C   UNL     1     -42.343  55.322 -56.134  1.00  0.00     0.249 C 
HETATM    9  O   UNL     1     -41.530  54.478 -55.770  1.00  0.00    -0.271 OA
HETATM   10  C   UNL     1     -42.844  58.743 -56.933  1.00  0.00     0.035 C 
HETATM   11  C   UNL     1     -42.436  59.282 -58.303  1.00  0.00     0.002 C 
HETATM   12  C   UNL     1     -41.968  58.165 -59.232  1.00  0.00     0.002 C 
HETATM   13  C   UNL     1     -43.028  57.072 -59.380  1.00  0.00     0.027 C 
HETATM   14  H   UNL     1     -41.814  55.125 -58.061  1.00  0.00     0.163 HD
ENDROOT
BRANCH   1  15
HETATM   15  C   UNL     1     -42.535  56.515 -53.931  1.00  0.00     0.146 C 
BRANCH  15  16
HETATM   16  C   UNL     1     -42.393  55.341 -53.003  1.00  0.00     0.224 C 
HETATM   17  N   UNL     1     -41.095  54.996 -52.721  1.00  0.00    -0.327 N 
HETATM   18  H   UNL     1     -40.359  55.665 -52.930  1.00  0.00     0.169 HD
HETATM   19  O   UNL     1     -43.415  54.695 -52.768  1.00  0.00    -0.273 OA
BRANCH  17  20
HETATM   20  C   UNL     1     -40.646  53.761 -52.205  1.00  0.00     0.034 A 
HETATM   21  C   UNL     1     -40.707  53.412 -50.855  1.00  0.00     0.030 A 
HETATM   22  C   UNL     1     -40.303  52.142 -50.430  1.00  0.00     0.009 A 
HETATM   23  C   UNL     1     -39.826  51.202 -51.347  1.00  0.00    -0.062 A 
HETATM   24  C   UNL     1     -39.417  49.830 -50.902  1.00  0.00     0.048 C 
HETATM   25  C   UNL     1     -39.758  51.553 -52.698  1.00  0.00     0.009 A 
HETATM   26  C   UNL     1     -40.156  52.824 -53.122  1.00  0.00     0.030 A 
ENDBRANCH  17  20
ENDBRANCH  15  16
ENDBRANCH   1  15
TORSDOF 3
ENDMDL
MODEL 6
REMARK VINA RESULT:      -7.4      4.981      6.234
REMARK  3 active torsions:
REMARK  status: ('A' for Active; 'I' for Inactive)
REMARK    1  A    between atoms: C_5  and  N_6 
REMARK       I    between atoms: N_6  and  C_7 
REMARK    2  A    between atoms: C_7  and  C_8 
REMARK    3  A    between atoms: C_8  and  C_9 
ROOT
HETATM    1  C   UNL     1     -42.795  56.051 -56.579  1.00  0.00     0.286 C 
HETATM    2  N   UNL     1     -42.328  55.796 -58.020  1.00  0.00    -0.056 N 
HETATM    3  H   UNL     1     -41.484  56.364 -58.168  1.00  0.00     0.278 HD
HETATM    4  H   UNL     1     -41.964  54.821 -58.095  1.00  0.00     0.278 HD
HETATM    5  C   UNL     1     -43.286  56.085 -59.135  1.00  0.00     0.209 C 
HETATM    6  C   UNL     1     -44.018  57.419 -58.861  1.00  0.00     0.115 C 
HETATM    7  N   UNL     1     -44.623  57.444 -57.536  1.00  0.00    -0.353 N 
HETATM    8  C   UNL     1     -44.047  56.918 -56.414  1.00  0.00     0.249 C 
HETATM    9  O   UNL     1     -44.533  57.147 -55.311  1.00  0.00    -0.271 OA
HETATM   10  C   UNL     1     -44.236  54.904 -59.330  1.00  0.00     0.035 C 
HETATM   11  C   UNL     1     -45.269  55.212 -60.413  1.00  0.00     0.002 C 
HETATM   12  C   UNL     1     -46.025  56.506 -60.121  1.00  0.00     0.002 C 
HETATM   13  C   UNL     1     -45.070  57.687 -59.940  1.00  0.00     0.027 C 
HETATM   14  H   UNL     1     -45.386  58.091 -57.343  1.00  0.00     0.163 HD
ENDROOT
BRANCH   1  15
HETATM   15  C   UNL     1     -42.956  54.737 -55.808  1.00  0.00     0.146 C 
BRANCH  15  16
HETATM   16  C   UNL     1     -41.992  54.818 -54.657  1.00  0.00     0.224 C 
HETATM   17  N   UNL     1     -42.111  53.797 -53.747  1.00  0.00    -0.327 N 
HETATM   18  H   UNL     1     -42.627  52.964 -54.017  1.00  0.00     0.169 HD
HETATM   19  O   UNL     1     -41.361  55.868 -54.538  1.00  0.00    -0.273 OA
BRANCH  17  20
HETATM   20  C   UNL     1     -41.626  53.792 -52.420  1.00  0.00     0.034 A 
HETATM   21  C   UNL     1     -40.374  53.300 -52.051  1.00  0.00     0.030 A 
HETATM   22  C   UNL     1     -39.938  53.391 -50.725  1.00  0.00     0.009 A 
HETATM   23  C   UNL     1     -40.749  53.971 -49.746  1.00  0.00    -0.062 A 
HETATM   24  C   UNL     1     -40.277  54.095 -48.329  1.00  0.00     0.048 C 
HETATM   25  C   UNL     1     -42.006  54.457 -50.115  1.00  0.00     0.009 A 
HETATM   26  C   UNL     1     -42.445  54.361 -51.438  1.00  0.00     0.030 A 
ENDBRANCH  17  20
ENDBRANCH  15  16
ENDBRANCH   1  15
TORSDOF 3
ENDMDL
MODEL 7
REMARK VINA RESULT:      -7.4      2.977      3.487
REMARK  3 active torsions:
REMARK  status: ('A' for Active; 'I' for Inactive)
REMARK    1  A    between atoms: C_5  and  N_6 
REMARK       I    between atoms: N_6  and  C_7 
REMARK    2  A    between atoms: C_7  and  C_8 
REMARK    3  A    between atoms: C_8  and  C_9 
ROOT
HETATM    1  C   UNL     1     -41.643  57.666 -54.121  1.00  0.00     0.286 C 
HETATM    2  N   UNL     1     -42.198  56.872 -55.313  1.00  0.00    -0.056 N 
HETATM    3  H   UNL     1     -41.394  56.443 -55.789  1.00  0.00     0.278 HD
HETATM    4  H   UNL     1     -42.724  56.043 -54.959  1.00  0.00     0.278 HD
HETATM    5  C   UNL     1     -43.007  57.609 -56.337  1.00  0.00     0.209 C 
HETATM    6  C   UNL     1     -42.341  58.968 -56.649  1.00  0.00     0.115 C 
HETATM    7  N   UNL     1     -42.076  59.733 -55.437  1.00  0.00    -0.353 N 
HETATM    8  C   UNL     1     -41.643  59.191 -54.261  1.00  0.00     0.249 C 
HETATM    9  O   UNL     1     -41.265  59.923 -53.351  1.00  0.00    -0.271 OA
HETATM   10  C   UNL     1     -44.455  57.739 -55.866  1.00  0.00     0.035 C 
HETATM   11  C   UNL     1     -45.278  58.554 -56.863  1.00  0.00     0.002 C 
HETATM   12  C   UNL     1     -44.645  59.916 -57.139  1.00  0.00     0.002 C 
HETATM   13  C   UNL     1     -43.201  59.778 -57.622  1.00  0.00     0.027 C 
HETATM   14  H   UNL     1     -41.951  60.742 -55.497  1.00  0.00     0.163 HD
ENDROOT
BRANCH   1  15
HETATM   15  C   UNL     1     -42.329  57.254 -52.814  1.00  0.00     0.146 C 
BRANCH  15  16
HETATM   16  C   UNL     1     -42.263  55.753 -52.773  1.00  0.00     0.224 C 
HETATM   17  N   UNL     1     -41.001  55.247 -52.587  1.00  0.00    -0.327 N 
HETATM   18  H   UNL     1     -40.273  55.872 -52.249  1.00  0.00     0.169 HD
HETATM   19  O   UNL     1     -43.279  55.146 -53.114  1.00  0.00    -0.273 OA
BRANCH  17  20
HETATM   20  C   UNL     1     -40.572  53.931 -52.866  1.00  0.00     0.034 A 
HETATM   21  C   UNL     1     -40.167  53.020 -51.889  1.00  0.00     0.030 A 
HETATM   22  C   UNL     1     -39.819  51.711 -52.239  1.00  0.00     0.009 A 
HETATM   23  C   UNL     1     -39.867  51.293 -53.572  1.00  0.00    -0.062 A 
HETATM   24  C   UNL     1     -39.522  49.884 -53.949  1.00  0.00     0.048 C 
HETATM   25  C   UNL     1     -40.267  52.207 -54.550  1.00  0.00     0.009 A 
HETATM   26  C   UNL     1     -40.609  53.516 -54.202  1.00  0.00     0.030 A 
ENDBRANCH  17  20
ENDBRANCH  15  16
ENDBRANCH   1  15
TORSDOF 3
ENDMDL
MODEL 8
REMARK VINA RESULT:      -7.3      4.799      5.499
REMARK  3 active torsions:
REMARK  status: ('A' for Active; 'I' for Inactive)
REMARK    1  A    between atoms: C_5  and  N_6 
REMARK       I    between atoms: N_6  and  C_7 
REMARK    2  A    between atoms: C_7  and  C_8 
REMARK    3  A    between atoms: C_8  and  C_9 
ROOT
HETATM    1  C   UNL     1     -42.132  57.402 -56.197  1.00  0.00     0.286 C 
HETATM    2  N   UNL     1     -42.383  56.347 -57.285  1.00  0.00    -0.056 N 
HETATM    3  H   UNL     1     -41.509  55.817 -57.397  1.00  0.00     0.278 HD
HETATM    4  H   UNL     1     -43.043  55.625 -56.918  1.00  0.00     0.278 HD
HETATM    5  C   UNL     1     -42.821  56.817 -58.638  1.00  0.00     0.209 C 
HETATM    6  C   UNL     1     -42.003  58.064 -59.046  1.00  0.00     0.115 C 
HETATM    7  N   UNL     1     -42.038  59.096 -58.018  1.00  0.00    -0.353 N 
HETATM    8  C   UNL     1     -41.990  58.850 -56.676  1.00  0.00     0.249 C 
HETATM    9  O   UNL     1     -41.833  59.777 -55.888  1.00  0.00    -0.271 OA
HETATM   10  C   UNL     1     -44.330  57.055 -58.648  1.00  0.00     0.035 C 
HETATM   11  C   UNL     1     -44.784  57.608 -59.999  1.00  0.00     0.002 C 
HETATM   12  C   UNL     1     -44.008  58.865 -60.383  1.00  0.00     0.002 C 
HETATM   13  C   UNL     1     -42.499  58.618 -60.384  1.00  0.00     0.027 C 
HETATM   14  H   UNL     1     -41.833  60.062 -58.268  1.00  0.00     0.163 HD
ENDROOT
BRANCH   1  15
HETATM   15  C   UNL     1     -43.184  57.313 -55.086  1.00  0.00     0.146 C 
BRANCH  15  16
HETATM   16  C   UNL     1     -42.977  55.974 -54.435  1.00  0.00     0.224 C 
HETATM   17  N   UNL     1     -41.720  55.786 -53.915  1.00  0.00    -0.327 N 
HETATM   18  H   UNL     1     -41.125  56.599 -53.778  1.00  0.00     0.169 HD
HETATM   19  O   UNL     1     -43.855  55.130 -54.615  1.00  0.00    -0.273 OA
BRANCH  17  20
HETATM   20  C   UNL     1     -41.122  54.549 -53.587  1.00  0.00     0.034 A 
HETATM   21  C   UNL     1     -40.932  54.099 -52.280  1.00  0.00     0.030 A 
HETATM   22  C   UNL     1     -40.392  52.831 -52.037  1.00  0.00     0.009 A 
HETATM   23  C   UNL     1     -40.030  51.996 -53.097  1.00  0.00    -0.062 A 
HETATM   24  C   UNL     1     -39.475  50.626 -52.843  1.00  0.00     0.048 C 
HETATM   25  C   UNL     1     -40.214  52.450 -54.406  1.00  0.00     0.009 A 
HETATM   26  C   UNL     1     -40.747  53.718 -54.649  1.00  0.00     0.030 A 
ENDBRANCH  17  20
ENDBRANCH  15  16
ENDBRANCH   1  15
TORSDOF 3
ENDMDL
MODEL 9
REMARK VINA RESULT:      -7.3     15.743     17.500
REMARK  3 active torsions:
REMARK  status: ('A' for Active; 'I' for Inactive)
REMARK    1  A    between atoms: C_5  and  N_6 
REMARK       I    between atoms: N_6  and  C_7 
REMARK    2  A    between atoms: C_7  and  C_8 
REMARK    3  A    between atoms: C_8  and  C_9 
ROOT
HETATM    1  C   UNL     1     -36.562  41.235 -55.248  1.00  0.00     0.286 C 
HETATM    2  N   UNL     1     -37.667  41.971 -56.022  1.00  0.00    -0.056 N 
HETATM    3  H   UNL     1     -38.520  41.920 -55.451  1.00  0.00     0.278 HD
HETATM    4  H   UNL     1     -37.457  42.994 -56.030  1.00  0.00     0.278 HD
HETATM    5  C   UNL     1     -37.999  41.494 -57.403  1.00  0.00     0.209 C 
HETATM    6  C   UNL     1     -38.038  39.949 -57.424  1.00  0.00     0.115 C 
HETATM    7  N   UNL     1     -36.822  39.367 -56.872  1.00  0.00    -0.353 N 
HETATM    8  C   UNL     1     -36.152  39.863 -55.789  1.00  0.00     0.249 C 
HETATM    9  O   UNL     1     -35.250  39.209 -55.275  1.00  0.00    -0.271 OA
HETATM   10  C   UNL     1     -37.020  42.088 -58.413  1.00  0.00     0.035 C 
HETATM   11  C   UNL     1     -37.298  41.552 -59.817  1.00  0.00     0.002 C 
HETATM   12  C   UNL     1     -37.292  40.025 -59.850  1.00  0.00     0.002 C 
HETATM   13  C   UNL     1     -38.284  39.436 -58.846  1.00  0.00     0.027 C 
HETATM   14  H   UNL     1     -36.568  38.410 -57.112  1.00  0.00     0.163 HD
ENDROOT
BRANCH   1  15
HETATM   15  C   UNL     1     -35.327  42.123 -55.067  1.00  0.00     0.146 C 
BRANCH  15  16
HETATM   16  C   UNL     1     -34.982  42.051 -53.605  1.00  0.00     0.224 C 
HETATM   17  N   UNL     1     -33.984  41.157 -53.304  1.00  0.00    -0.327 N 
HETATM   18  H   UNL     1     -33.397  40.812 -54.058  1.00  0.00     0.169 HD
HETATM   19  O   UNL     1     -35.748  42.620 -52.828  1.00  0.00    -0.273 OA
BRANCH  17  20
HETATM   20  C   UNL     1     -33.703  40.608 -52.033  1.00  0.00     0.034 A 
HETATM   21  C   UNL     1     -34.664  40.027 -51.206  1.00  0.00     0.030 A 
HETATM   22  C   UNL     1     -34.296  39.443 -49.989  1.00  0.00     0.009 A 
HETATM   23  C   UNL     1     -32.960  39.436 -49.578  1.00  0.00    -0.062 A 
HETATM   24  C   UNL     1     -32.556  38.789 -48.287  1.00  0.00     0.048 C 
HETATM   25  C   UNL     1     -31.998  40.024 -50.403  1.00  0.00     0.009 A 
HETATM   26  C   UNL     1     -32.367  40.612 -51.616  1.00  0.00     0.030 A 
ENDBRANCH  17  20
ENDBRANCH  15  16
ENDBRANCH   1  15
TORSDOF 3
ENDMDL
MODEL 10
REMARK VINA RESULT:      -7.1      4.958      5.978
REMARK  3 active torsions:
REMARK  status: ('A' for Active; 'I' for Inactive)
REMARK    1  A    between atoms: C_5  and  N_6 
REMARK       I    between atoms: N_6  and  C_7 
REMARK    2  A    between atoms: C_7  and  C_8 
REMARK    3  A    between atoms: C_8  and  C_9 
ROOT
HETATM    1  C   UNL     1     -43.564  58.168 -56.261  1.00  0.00     0.286 C 
HETATM    2  N   UNL     1     -42.484  57.469 -57.101  1.00  0.00    -0.056 N 
HETATM    3  H   UNL     1     -41.739  58.158 -57.266  1.00  0.00     0.278 HD
HETATM    4  H   UNL     1     -42.006  56.750 -56.515  1.00  0.00     0.278 HD
HETATM    5  C   UNL     1     -42.884  56.887 -58.422  1.00  0.00     0.209 C 
HETATM    6  C   UNL     1     -43.821  57.868 -59.162  1.00  0.00     0.115 C 
HETATM    7  N   UNL     1     -44.945  58.278 -58.329  1.00  0.00    -0.353 N 
HETATM    8  C   UNL     1     -44.859  58.538 -56.991  1.00  0.00     0.249 C 
HETATM    9  O   UNL     1     -45.804  59.058 -56.406  1.00  0.00    -0.271 OA
HETATM   10  C   UNL     1     -43.496  55.502 -58.221  1.00  0.00     0.035 C 
HETATM   11  C   UNL     1     -43.979  54.924 -59.551  1.00  0.00     0.002 C 
HETATM   12  C   UNL     1     -44.941  55.872 -60.263  1.00  0.00     0.002 C 
HETATM   13  C   UNL     1     -44.318  57.253 -60.473  1.00  0.00     0.027 C 
HETATM   14  H   UNL     1     -45.788  58.643 -58.768  1.00  0.00     0.163 HD
ENDROOT
BRANCH   1  15
HETATM   15  C   UNL     1     -43.882  57.371 -54.992  1.00  0.00     0.146 C 
BRANCH  15  16
HETATM   16  C   UNL     1     -42.623  56.624 -54.653  1.00  0.00     0.224 C 
HETATM   17  N   UNL     1     -42.798  55.275 -54.468  1.00  0.00    -0.327 N 
HETATM   18  H   UNL     1     -43.657  54.846 -54.802  1.00  0.00     0.169 HD
HETATM   19  O   UNL     1     -41.635  57.304 -54.374  1.00  0.00    -0.273 OA
BRANCH  17  20
HETATM   20  C   UNL     1     -41.916  54.396 -53.801  1.00  0.00     0.034 A 
HETATM   21  C   UNL     1     -41.827  54.287 -52.412  1.00  0.00     0.030 A 
HETATM   22  C   UNL     1     -40.975  53.344 -51.827  1.00  0.00     0.009 A 
HETATM   23  C   UNL     1     -40.195  52.499 -52.620  1.00  0.00    -0.062 A 
HETATM   24  C   UNL     1     -39.301  51.469 -51.999  1.00  0.00     0.048 C 
HETATM   25  C   UNL     1     -40.280  52.612 -54.010  1.00  0.00     0.009 A 
HETATM   26  C   UNL     1     -41.125  53.558 -54.596  1.00  0.00     0.030 A 
ENDBRANCH  17  20
ENDBRANCH  15  16
ENDBRANCH   1  15
TORSDOF 3
ENDMDL
