MODEL 1
REMARK VINA RESULT:      -9.6      0.000      0.000
REMARK  6 active torsions:
REMARK  status: ('A' for Active; 'I' for Inactive)
REMARK    1  A    between atoms: C_2  and  O_3 
REMARK    2  A    between atoms: C_2  and  C_10 
REMARK    3  A    between atoms: O_3  and  C_4 
REMARK       I    between atoms: C_10  and  N_11 
REMARK    4  A    between atoms: N_11  and  C_12 
REMARK    5  A    between atoms: N_13  and  C_14 
REMARK    6  A    between atoms: C_26  and  C_27 
ROOT
HETATM    1  C   UNL     1     -42.247  57.261 -52.936  1.00  0.00     0.152 A 
HETATM    2  N   UNL     1     -42.711  58.166 -53.879  1.00  0.00    -0.044 N 
HETATM    3  N   UNL     1     -43.402  59.201 -53.315  1.00  0.00    -0.150 NA
HETATM    4  C   UNL     1     -43.368  58.940 -52.000  1.00  0.00     0.099 A 
HETATM    5  C   UNL     1     -42.659  57.751 -51.717  1.00  0.00     0.086 A 
ENDROOT
BRANCH   1   6
HETATM    6  N   UNL     1     -41.538  56.125 -53.291  1.00  0.00    -0.309 N 
HETATM    7  C   UNL     1     -42.113  54.882 -53.482  1.00  0.00     0.252 C 
HETATM    8  O   UNL     1     -43.302  54.609 -53.343  1.00  0.00    -0.270 OA
HETATM    9  H   UNL     1     -40.519  56.199 -53.372  1.00  0.00     0.170 HD
BRANCH   7  10
HETATM   10  C   UNL     1     -41.105  53.829 -53.973  1.00  0.00     0.217 C 
HETATM   11  C   UNL     1     -40.270  54.447 -55.091  1.00  0.00     0.050 C 
BRANCH  10  12
HETATM   12  O   UNL     1     -40.187  53.422 -52.954  1.00  0.00    -0.337 OA
BRANCH  12  13
HETATM   13  C   UNL     1     -39.972  52.078 -52.824  1.00  0.00     0.070 A 
HETATM   14  C   UNL     1     -39.759  51.636 -51.516  1.00  0.00     0.037 A 
HETATM   15  C   UNL     1     -39.535  50.284 -51.253  1.00  0.00     0.003 A 
HETATM   16  C   UNL     1     -39.539  49.364 -52.299  1.00  0.00     0.000 A 
HETATM   17  C   UNL     1     -39.774  49.797 -53.603  1.00  0.00     0.003 A 
HETATM   18  C   UNL     1     -39.993  51.152 -53.868  1.00  0.00     0.037 A 
ENDBRANCH  12  13
ENDBRANCH  10  12
ENDBRANCH   7  10
ENDBRANCH   1   6
BRANCH   2  19
HETATM   19  C   UNL     1     -42.560  58.108 -55.277  1.00  0.00     0.732 A 
HETATM   20  N   UNL     1     -42.882  57.068 -55.980  1.00  0.00    -0.067 NA
HETATM   21  C   UNL     1     -42.682  57.167 -57.338  1.00  0.00     0.065 A 
HETATM   22  C   UNL     1     -42.199  58.262 -57.955  1.00  0.00     0.036 A 
HETATM   23  C   UNL     1     -43.068  55.935 -58.126  1.00  0.00     0.060 C 
HETATM   24  C   UNL     1     -41.976  58.375 -59.434  1.00  0.00     0.046 C 
HETATM   25  C   UNL     1     -41.854  59.438 -57.117  1.00  0.00     0.268 A 
HETATM   26  C   UNL     1     -42.060  57.029 -60.156  1.00  0.00     0.005 C 
HETATM   27  C   UNL     1     -43.217  56.190 -59.627  1.00  0.00     0.006 C 
HETATM   28  O   UNL     1     -41.429  60.483 -57.595  1.00  0.00    -0.267 OA
HETATM   29  N   UNL     1     -42.051  59.270 -55.783  1.00  0.00    -0.152 N 
HETATM   30  H   UNL     1     -41.840  60.036 -55.152  1.00  0.00     0.188 HD
ENDBRANCH   2  19
BRANCH   4  31
HETATM   31  C   UNL     1     -44.034  59.838 -50.998  1.00  0.00     0.035 A 
HETATM   32  S   UNL     1     -45.724  59.941 -50.766  1.00  0.00    -0.100 SA
HETATM   33  C   UNL     1     -45.551  61.123 -49.542  1.00  0.00     0.050 A 
HETATM   34  C   UNL     1     -44.230  61.434 -49.309  1.00  0.00     0.008 A 
HETATM   35  C   UNL     1     -43.351  60.689 -50.151  1.00  0.00     0.022 A 
ENDBRANCH   4  31
TORSDOF 6
ENDMDL
MODEL 2
REMARK VINA RESULT:      -9.1      3.007      7.375
REMARK  6 active torsions:
REMARK  status: ('A' for Active; 'I' for Inactive)
REMARK    1  A    between atoms: C_2  and  O_3 
REMARK    2  A    between atoms: C_2  and  C_10 
REMARK    3  A    between atoms: O_3  and  C_4 
REMARK       I    between atoms: C_10  and  N_11 
REMARK    4  A    between atoms: N_11  and  C_12 
REMARK    5  A    between atoms: N_13  and  C_14 
REMARK    6  A    between atoms: C_26  and  C_27 
ROOT
HETATM    1  C   UNL     1     -43.185  55.549 -54.139  1.00  0.00     0.152 A 
HETATM    2  N   UNL     1     -42.565  55.272 -55.348  1.00  0.00    -0.044 N 
HETATM    3  N   UNL     1     -41.651  54.262 -55.248  1.00  0.00    -0.150 NA
HETATM    4  C   UNL     1     -41.701  53.902 -53.958  1.00  0.00     0.099 A 
HETATM    5  C   UNL     1     -42.642  54.667 -53.233  1.00  0.00     0.086 A 
ENDROOT
BRANCH   1   6
HETATM    6  N   UNL     1     -44.133  56.551 -54.009  1.00  0.00    -0.309 N 
HETATM    7  C   UNL     1     -43.838  57.852 -53.647  1.00  0.00     0.252 C 
HETATM    8  O   UNL     1     -42.724  58.290 -53.372  1.00  0.00    -0.270 OA
HETATM    9  H   UNL     1     -45.118  56.303 -54.144  1.00  0.00     0.170 HD
BRANCH   7  10
HETATM   10  C   UNL     1     -45.069  58.774 -53.684  1.00  0.00     0.217 C 
HETATM   11  C   UNL     1     -45.208  59.445 -52.320  1.00  0.00     0.050 C 
BRANCH  10  12
HETATM   12  O   UNL     1     -44.946  59.826 -54.646  1.00  0.00    -0.337 OA
BRANCH  12  13
HETATM   13  C   UNL     1     -45.417  59.564 -55.903  1.00  0.00     0.070 A 
HETATM   14  C   UNL     1     -45.297  60.619 -56.811  1.00  0.00     0.037 A 
HETATM   15  C   UNL     1     -45.736  60.473 -58.128  1.00  0.00     0.003 A 
HETATM   16  C   UNL     1     -46.282  59.262 -58.546  1.00  0.00     0.000 A 
HETATM   17  C   UNL     1     -46.383  58.199 -57.649  1.00  0.00     0.003 A 
HETATM   18  C   UNL     1     -45.949  58.347 -56.329  1.00  0.00     0.037 A 
ENDBRANCH  12  13
ENDBRANCH  10  12
ENDBRANCH   7  10
ENDBRANCH   1   6
BRANCH   2  19
HETATM   19  C   UNL     1     -42.766  55.911 -56.587  1.00  0.00     0.732 A 
HETATM   20  N   UNL     1     -42.399  57.131 -56.820  1.00  0.00    -0.067 NA
HETATM   21  C   UNL     1     -42.658  57.613 -58.083  1.00  0.00     0.065 A 
HETATM   22  C   UNL     1     -43.241  56.896 -59.063  1.00  0.00     0.036 A 
HETATM   23  C   UNL     1     -42.218  59.040 -58.319  1.00  0.00     0.060 C 
HETATM   24  C   UNL     1     -43.529  57.415 -60.440  1.00  0.00     0.046 C 
HETATM   25  C   UNL     1     -43.635  55.496 -58.761  1.00  0.00     0.268 A 
HETATM   26  C   UNL     1     -43.379  58.934 -60.549  1.00  0.00     0.005 C 
HETATM   27  C   UNL     1     -42.146  59.422 -59.799  1.00  0.00     0.006 C 
HETATM   28  O   UNL     1     -44.151  54.764 -59.597  1.00  0.00    -0.267 OA
HETATM   29  N   UNL     1     -43.375  55.088 -57.490  1.00  0.00    -0.152 N 
HETATM   30  H   UNL     1     -43.614  54.141 -57.217  1.00  0.00     0.188 HD
ENDBRANCH   2  19
BRANCH   4  31
HETATM   31  C   UNL     1     -40.828  52.811 -53.407  1.00  0.00     0.035 A 
HETATM   32  S   UNL     1     -40.206  52.784 -51.815  1.00  0.00    -0.100 SA
HETATM   33  C   UNL     1     -39.393  51.303 -52.087  1.00  0.00     0.050 A 
HETATM   34  C   UNL     1     -39.592  50.834 -53.367  1.00  0.00     0.008 A 
HETATM   35  C   UNL     1     -40.424  51.706 -54.130  1.00  0.00     0.022 A 
ENDBRANCH   4  31
TORSDOF 6
ENDMDL
MODEL 3
REMARK VINA RESULT:      -9.0      2.817      7.797
REMARK  6 active torsions:
REMARK  status: ('A' for Active; 'I' for Inactive)
REMARK    1  A    between atoms: C_2  and  O_3 
REMARK    2  A    between atoms: C_2  and  C_10 
REMARK    3  A    between atoms: O_3  and  C_4 
REMARK       I    between atoms: C_10  and  N_11 
REMARK    4  A    between atoms: N_11  and  C_12 
REMARK    5  A    between atoms: N_13  and  C_14 
REMARK    6  A    between atoms: C_26  and  C_27 
ROOT
HETATM    1  C   UNL     1     -41.123  54.693 -54.880  1.00  0.00     0.152 A 
HETATM    2  N   UNL     1     -41.212  55.098 -53.556  1.00  0.00    -0.044 N 
HETATM    3  N   UNL     1     -40.841  54.115 -52.683  1.00  0.00    -0.150 NA
HETATM    4  C   UNL     1     -40.514  53.082 -53.473  1.00  0.00     0.099 A 
HETATM    5  C   UNL     1     -40.667  53.395 -54.842  1.00  0.00     0.086 A 
ENDROOT
BRANCH   1   6
HETATM    6  N   UNL     1     -41.470  55.527 -55.931  1.00  0.00    -0.309 N 
HETATM    7  C   UNL     1     -42.610  55.372 -56.697  1.00  0.00     0.252 C 
HETATM    8  O   UNL     1     -43.446  54.480 -56.575  1.00  0.00    -0.270 OA
HETATM    9  H   UNL     1     -40.820  56.278 -56.186  1.00  0.00     0.170 HD
BRANCH   7  10
HETATM   10  C   UNL     1     -42.796  56.502 -57.724  1.00  0.00     0.217 C 
HETATM   11  C   UNL     1     -42.982  55.872 -59.102  1.00  0.00     0.050 C 
BRANCH  10  12
HETATM   12  O   UNL     1     -43.963  57.292 -57.476  1.00  0.00    -0.337 OA
BRANCH  12  13
HETATM   13  C   UNL     1     -43.801  58.387 -56.673  1.00  0.00     0.070 A 
HETATM   14  C   UNL     1     -42.531  58.968 -56.713  1.00  0.00     0.037 A 
HETATM   15  C   UNL     1     -42.243  60.095 -55.942  1.00  0.00     0.003 A 
HETATM   16  C   UNL     1     -43.233  60.658 -55.140  1.00  0.00     0.000 A 
HETATM   17  C   UNL     1     -44.509  60.095 -55.115  1.00  0.00     0.003 A 
HETATM   18  C   UNL     1     -44.795  58.962 -55.882  1.00  0.00     0.037 A 
ENDBRANCH  12  13
ENDBRANCH  10  12
ENDBRANCH   7  10
ENDBRANCH   1   6
BRANCH   2  19
HETATM   19  C   UNL     1     -41.641  56.344 -53.062  1.00  0.00     0.732 A 
HETATM   20  N   UNL     1     -42.853  56.566 -52.662  1.00  0.00    -0.067 NA
HETATM   21  C   UNL     1     -43.118  57.835 -52.199  1.00  0.00     0.065 A 
HETATM   22  C   UNL     1     -42.204  58.821 -52.128  1.00  0.00     0.036 A 
HETATM   23  C   UNL     1     -44.542  58.058 -51.741  1.00  0.00     0.060 C 
HETATM   24  C   UNL     1     -42.487  60.207 -51.628  1.00  0.00     0.046 C 
HETATM   25  C   UNL     1     -40.823  58.525 -52.584  1.00  0.00     0.268 A 
HETATM   26  C   UNL     1     -43.982  60.498 -51.484  1.00  0.00     0.005 C 
HETATM   27  C   UNL     1     -44.719  59.309 -50.879  1.00  0.00     0.006 C 
HETATM   28  O   UNL     1     -39.923  59.355 -52.536  1.00  0.00    -0.267 OA
HETATM   29  N   UNL     1     -40.631  57.263 -53.052  1.00  0.00    -0.152 N 
HETATM   30  H   UNL     1     -39.709  56.991 -53.376  1.00  0.00     0.188 HD
ENDBRANCH   2  19
BRANCH   4  31
HETATM   31  C   UNL     1     -40.055  51.769 -52.907  1.00  0.00     0.035 A 
HETATM   32  S   UNL     1     -39.813  50.351 -53.830  1.00  0.00    -0.100 SA
HETATM   33  C   UNL     1     -39.348  49.453 -52.451  1.00  0.00     0.050 A 
HETATM   34  C   UNL     1     -39.373  50.217 -51.306  1.00  0.00     0.008 A 
HETATM   35  C   UNL     1     -39.781  51.558 -51.569  1.00  0.00     0.022 A 
ENDBRANCH   4  31
TORSDOF 6
ENDMDL
MODEL 4
REMARK VINA RESULT:      -9.0      2.571      7.856
REMARK  6 active torsions:
REMARK  status: ('A' for Active; 'I' for Inactive)
REMARK    1  A    between atoms: C_2  and  O_3 
REMARK    2  A    between atoms: C_2  and  C_10 
REMARK    3  A    between atoms: O_3  and  C_4 
REMARK       I    between atoms: C_10  and  N_11 
REMARK    4  A    between atoms: N_11  and  C_12 
REMARK    5  A    between atoms: N_13  and  C_14 
REMARK    6  A    between atoms: C_26  and  C_27 
ROOT
HETATM    1  C   UNL     1     -41.345  55.563 -54.893  1.00  0.00     0.152 A 
HETATM    2  N   UNL     1     -41.311  55.794 -53.526  1.00  0.00    -0.044 N 
HETATM    3  N   UNL     1     -40.921  54.693 -52.819  1.00  0.00    -0.150 NA
HETATM    4  C   UNL     1     -40.707  53.760 -53.758  1.00  0.00     0.099 A 
HETATM    5  C   UNL     1     -40.951  54.255 -55.059  1.00  0.00     0.086 A 
ENDROOT
BRANCH   1   6
HETATM    6  N   UNL     1     -41.733  56.540 -55.797  1.00  0.00    -0.309 N 
HETATM    7  C   UNL     1     -43.049  56.867 -56.065  1.00  0.00     0.252 C 
HETATM    8  O   UNL     1     -44.040  56.334 -55.571  1.00  0.00    -0.270 OA
HETATM    9  H   UNL     1     -41.002  57.018 -56.333  1.00  0.00     0.170 HD
BRANCH   7  10
HETATM   10  C   UNL     1     -43.184  58.057 -57.030  1.00  0.00     0.217 C 
HETATM   11  C   UNL     1     -42.185  59.132 -56.608  1.00  0.00     0.050 C 
BRANCH  10  12
HETATM   12  O   UNL     1     -42.867  57.714 -58.382  1.00  0.00    -0.337 OA
BRANCH  12  13
HETATM   13  C   UNL     1     -43.747  56.889 -59.026  1.00  0.00     0.070 A 
HETATM   14  C   UNL     1     -45.038  57.401 -59.177  1.00  0.00     0.037 A 
HETATM   15  C   UNL     1     -46.024  56.656 -59.823  1.00  0.00     0.003 A 
HETATM   16  C   UNL     1     -45.718  55.398 -60.338  1.00  0.00     0.000 A 
HETATM   17  C   UNL     1     -44.425  54.892 -60.210  1.00  0.00     0.003 A 
HETATM   18  C   UNL     1     -43.438  55.636 -59.556  1.00  0.00     0.037 A 
ENDBRANCH  12  13
ENDBRANCH  10  12
ENDBRANCH   7  10
ENDBRANCH   1   6
BRANCH   2  19
HETATM   19  C   UNL     1     -41.640  56.981 -52.844  1.00  0.00     0.732 A 
HETATM   20  N   UNL     1     -42.859  57.323 -52.571  1.00  0.00    -0.067 NA
HETATM   21  C   UNL     1     -43.020  58.510 -51.891  1.00  0.00     0.065 A 
HETATM   22  C   UNL     1     -42.003  59.299 -51.495  1.00  0.00     0.036 A 
HETATM   23  C   UNL     1     -44.455  58.879 -51.590  1.00  0.00     0.060 C 
HETATM   24  C   UNL     1     -42.170  60.595 -50.758  1.00  0.00     0.046 C 
HETATM   25  C   UNL     1     -40.619  58.866 -51.815  1.00  0.00     0.268 A 
HETATM   26  C   UNL     1     -43.614  61.100 -50.756  1.00  0.00     0.005 C 
HETATM   27  C   UNL     1     -44.597  59.960 -50.517  1.00  0.00     0.006 C 
HETATM   28  O   UNL     1     -39.634  59.510 -51.476  1.00  0.00    -0.267 OA
HETATM   29  N   UNL     1     -40.529  57.699 -52.508  1.00  0.00    -0.152 N 
HETATM   30  H   UNL     1     -39.613  57.342 -52.756  1.00  0.00     0.188 HD
ENDBRANCH   2  19
BRANCH   4  31
HETATM   31  C   UNL     1     -40.269  52.368 -53.404  1.00  0.00     0.035 A 
HETATM   32  S   UNL     1     -39.703  51.897 -51.861  1.00  0.00    -0.100 SA
HETATM   33  C   UNL     1     -39.453  50.283 -52.373  1.00  0.00     0.050 A 
HETATM   34  C   UNL     1     -39.796  50.103 -53.695  1.00  0.00     0.008 A 
HETATM   35  C   UNL     1     -40.269  51.310 -54.292  1.00  0.00     0.022 A 
ENDBRANCH   4  31
TORSDOF 6
ENDMDL
MODEL 5
REMARK VINA RESULT:      -8.9      2.549      8.393
REMARK  6 active torsions:
REMARK  status: ('A' for Active; 'I' for Inactive)
REMARK    1  A    between atoms: C_2  and  O_3 
REMARK    2  A    between atoms: C_2  and  C_10 
REMARK    3  A    between atoms: O_3  and  C_4 
REMARK       I    between atoms: C_10  and  N_11 
REMARK    4  A    between atoms: N_11  and  C_12 
REMARK    5  A    between atoms: N_13  and  C_14 
REMARK    6  A    between atoms: C_26  and  C_27 
ROOT
HETATM    1  C   UNL     1     -41.455  55.205 -55.024  1.00  0.00     0.152 A 
HETATM    2  N   UNL     1     -41.669  55.399 -53.668  1.00  0.00    -0.044 N 
HETATM    3  N   UNL     1     -41.276  54.328 -52.918  1.00  0.00    -0.150 NA
HETATM    4  C   UNL     1     -40.807  53.452 -53.818  1.00  0.00     0.099 A 
HETATM    5  C   UNL     1     -40.892  53.954 -55.136  1.00  0.00     0.086 A 
ENDROOT
BRANCH   1   6
HETATM    6  N   UNL     1     -41.799  56.158 -55.970  1.00  0.00    -0.309 N 
HETATM    7  C   UNL     1     -42.747  55.961 -56.957  1.00  0.00     0.252 C 
HETATM    8  O   UNL     1     -43.385  54.929 -57.148  1.00  0.00    -0.270 OA
HETATM    9  H   UNL     1     -41.289  57.047 -55.966  1.00  0.00     0.170 HD
BRANCH   7  10
HETATM   10  C   UNL     1     -43.001  57.222 -57.799  1.00  0.00     0.217 C 
HETATM   11  C   UNL     1     -44.295  57.870 -57.315  1.00  0.00     0.050 C 
BRANCH  10  12
HETATM   12  O   UNL     1     -41.972  58.205 -57.653  1.00  0.00    -0.337 OA
BRANCH  12  13
HETATM   13  C   UNL     1     -41.884  59.151 -58.636  1.00  0.00     0.070 A 
HETATM   14  C   UNL     1     -42.011  58.664 -59.939  1.00  0.00     0.037 A 
HETATM   15  C   UNL     1     -41.945  59.532 -61.029  1.00  0.00     0.003 A 
HETATM   16  C   UNL     1     -41.768  60.898 -60.819  1.00  0.00     0.000 A 
HETATM   17  C   UNL     1     -41.663  61.391 -59.519  1.00  0.00     0.003 A 
HETATM   18  C   UNL     1     -41.723  60.521 -58.427  1.00  0.00     0.037 A 
ENDBRANCH  12  13
ENDBRANCH  10  12
ENDBRANCH   7  10
ENDBRANCH   1   6
BRANCH   2  19
HETATM   19  C   UNL     1     -42.238  56.522 -53.037  1.00  0.00     0.732 A 
HETATM   20  N   UNL     1     -41.866  57.737 -53.289  1.00  0.00    -0.067 NA
HETATM   21  C   UNL     1     -42.523  58.729 -52.596  1.00  0.00     0.065 A 
HETATM   22  C   UNL     1     -43.512  58.507 -51.709  1.00  0.00     0.036 A 
HETATM   23  C   UNL     1     -42.063  60.134 -52.913  1.00  0.00     0.060 C 
HETATM   24  C   UNL     1     -44.229  59.582 -50.949  1.00  0.00     0.046 C 
HETATM   25  C   UNL     1     -43.919  57.101 -51.458  1.00  0.00     0.268 A 
HETATM   26  C   UNL     1     -43.534  60.943 -51.039  1.00  0.00     0.005 C 
HETATM   27  C   UNL     1     -43.041  61.218 -52.454  1.00  0.00     0.006 C 
HETATM   28  O   UNL     1     -44.822  56.807 -50.685  1.00  0.00    -0.267 OA
HETATM   29  N   UNL     1     -43.217  56.167 -52.154  1.00  0.00    -0.152 N 
HETATM   30  H   UNL     1     -43.446  55.187 -52.034  1.00  0.00     0.188 HD
ENDBRANCH   2  19
BRANCH   4  31
HETATM   31  C   UNL     1     -40.277  52.108 -53.410  1.00  0.00     0.035 A 
HETATM   32  S   UNL     1     -39.679  51.737 -51.852  1.00  0.00    -0.100 SA
HETATM   33  C   UNL     1     -39.323  50.125 -52.301  1.00  0.00     0.050 A 
HETATM   34  C   UNL     1     -39.654  49.869 -53.613  1.00  0.00     0.008 A 
HETATM   35  C   UNL     1     -40.208  51.017 -54.255  1.00  0.00     0.022 A 
ENDBRANCH   4  31
TORSDOF 6
ENDMDL
MODEL 6
REMARK VINA RESULT:      -8.9      2.657      8.065
REMARK  6 active torsions:
REMARK  status: ('A' for Active; 'I' for Inactive)
REMARK    1  A    between atoms: C_2  and  O_3 
REMARK    2  A    between atoms: C_2  and  C_10 
REMARK    3  A    between atoms: O_3  and  C_4 
REMARK       I    between atoms: C_10  and  N_11 
REMARK    4  A    between atoms: N_11  and  C_12 
REMARK    5  A    between atoms: N_13  and  C_14 
REMARK    6  A    between atoms: C_26  and  C_27 
ROOT
HETATM    1  C   UNL     1     -43.218  55.663 -54.278  1.00  0.00     0.152 A 
HETATM    2  N   UNL     1     -42.831  56.063 -53.008  1.00  0.00    -0.044 N 
HETATM    3  N   UNL     1     -41.953  55.192 -52.430  1.00  0.00    -0.150 NA
HETATM    4  C   UNL     1     -41.787  54.234 -53.353  1.00  0.00     0.099 A 
HETATM    5  C   UNL     1     -42.546  54.486 -54.518  1.00  0.00     0.086 A 
ENDROOT
BRANCH   1   6
HETATM    6  N   UNL     1     -44.119  56.391 -55.038  1.00  0.00    -0.309 N 
HETATM    7  C   UNL     1     -43.772  57.476 -55.822  1.00  0.00     0.252 C 
HETATM    8  O   UNL     1     -42.646  57.954 -55.934  1.00  0.00    -0.270 OA
HETATM    9  H   UNL     1     -45.112  56.140 -54.981  1.00  0.00     0.170 HD
BRANCH   7  10
HETATM   10  C   UNL     1     -44.955  58.026 -56.637  1.00  0.00     0.217 C 
HETATM   11  C   UNL     1     -45.325  59.398 -56.082  1.00  0.00     0.050 C 
BRANCH  10  12
HETATM   12  O   UNL     1     -44.636  58.217 -58.018  1.00  0.00    -0.337 OA
BRANCH  12  13
HETATM   13  C   UNL     1     -44.749  57.122 -58.830  1.00  0.00     0.070 A 
HETATM   14  C   UNL     1     -45.983  56.986 -59.471  1.00  0.00     0.037 A 
HETATM   15  C   UNL     1     -46.220  55.912 -60.330  1.00  0.00     0.003 A 
HETATM   16  C   UNL     1     -45.214  54.978 -60.567  1.00  0.00     0.000 A 
HETATM   17  C   UNL     1     -43.973  55.123 -59.947  1.00  0.00     0.003 A 
HETATM   18  C   UNL     1     -43.738  56.195 -59.081  1.00  0.00     0.037 A 
ENDBRANCH  12  13
ENDBRANCH  10  12
ENDBRANCH   7  10
ENDBRANCH   1   6
BRANCH   2  19
HETATM   19  C   UNL     1     -43.251  57.204 -52.298  1.00  0.00     0.732 A 
HETATM   20  N   UNL     1     -42.485  58.228 -52.091  1.00  0.00    -0.067 NA
HETATM   21  C   UNL     1     -43.042  59.271 -51.385  1.00  0.00     0.065 A 
HETATM   22  C   UNL     1     -44.309  59.285 -50.928  1.00  0.00     0.036 A 
HETATM   23  C   UNL     1     -42.120  60.448 -51.161  1.00  0.00     0.060 C 
HETATM   24  C   UNL     1     -44.921  60.415 -50.155  1.00  0.00     0.046 C 
HETATM   25  C   UNL     1     -45.159  58.098 -51.197  1.00  0.00     0.268 A 
HETATM   26  C   UNL     1     -43.889  61.433 -49.665  1.00  0.00     0.005 C 
HETATM   27  C   UNL     1     -42.850  61.726 -50.741  1.00  0.00     0.006 C 
HETATM   28  O   UNL     1     -46.329  58.032 -50.837  1.00  0.00    -0.267 OA
HETATM   29  N   UNL     1     -44.545  57.093 -51.876  1.00  0.00    -0.152 N 
HETATM   30  H   UNL     1     -45.069  56.254 -52.098  1.00  0.00     0.188 HD
ENDBRANCH   2  19
BRANCH   4  31
HETATM   31  C   UNL     1     -40.892  53.052 -53.114  1.00  0.00     0.035 A 
HETATM   32  S   UNL     1     -40.173  52.673 -51.610  1.00  0.00    -0.100 SA
HETATM   33  C   UNL     1     -39.394  51.293 -52.255  1.00  0.00     0.050 A 
HETATM   34  C   UNL     1     -39.677  51.119 -53.591  1.00  0.00     0.008 A 
HETATM   35  C   UNL     1     -40.545  52.136 -54.089  1.00  0.00     0.022 A 
ENDBRANCH   4  31
TORSDOF 6
ENDMDL
MODEL 7
REMARK VINA RESULT:      -8.8      2.994      7.354
REMARK  6 active torsions:
REMARK  status: ('A' for Active; 'I' for Inactive)
REMARK    1  A    between atoms: C_2  and  O_3 
REMARK    2  A    between atoms: C_2  and  C_10 
REMARK    3  A    between atoms: O_3  and  C_4 
REMARK       I    between atoms: C_10  and  N_11 
REMARK    4  A    between atoms: N_11  and  C_12 
REMARK    5  A    between atoms: N_13  and  C_14 
REMARK    6  A    between atoms: C_26  and  C_27 
ROOT
HETATM    1  C   UNL     1     -41.233  55.636 -53.311  1.00  0.00     0.152 A 
HETATM    2  N   UNL     1     -41.873  55.129 -54.431  1.00  0.00    -0.044 N 
HETATM    3  N   UNL     1     -41.647  53.793 -54.604  1.00  0.00    -0.150 NA
HETATM    4  C   UNL     1     -40.854  53.460 -53.575  1.00  0.00     0.099 A 
HETATM    5  C   UNL     1     -40.575  54.568 -52.744  1.00  0.00     0.086 A 
ENDROOT
BRANCH   1   6
HETATM    6  N   UNL     1     -41.312  56.974 -52.958  1.00  0.00    -0.309 N 
HETATM    7  C   UNL     1     -42.056  57.450 -51.895  1.00  0.00     0.252 C 
HETATM    8  O   UNL     1     -42.756  56.776 -51.144  1.00  0.00    -0.270 OA
HETATM    9  H   UNL     1     -40.827  57.657 -53.548  1.00  0.00     0.170 HD
BRANCH   7  10
HETATM   10  C   UNL     1     -41.876  58.962 -51.671  1.00  0.00     0.217 C 
HETATM   11  C   UNL     1     -41.012  59.164 -50.430  1.00  0.00     0.050 C 
BRANCH  10  12
HETATM   12  O   UNL     1     -41.196  59.605 -52.752  1.00  0.00    -0.337 OA
BRANCH  12  13
HETATM   13  C   UNL     1     -41.969  60.324 -53.622  1.00  0.00     0.070 A 
HETATM   14  C   UNL     1     -41.848  59.956 -54.964  1.00  0.00     0.037 A 
HETATM   15  C   UNL     1     -42.590  60.610 -55.948  1.00  0.00     0.003 A 
HETATM   16  C   UNL     1     -43.473  61.627 -55.589  1.00  0.00     0.000 A 
HETATM   17  C   UNL     1     -43.614  61.981 -54.248  1.00  0.00     0.003 A 
HETATM   18  C   UNL     1     -42.866  61.330 -53.263  1.00  0.00     0.037 A 
ENDBRANCH  12  13
ENDBRANCH  10  12
ENDBRANCH   7  10
ENDBRANCH   1   6
BRANCH   2  19
HETATM   19  C   UNL     1     -42.670  55.827 -55.359  1.00  0.00     0.732 A 
HETATM   20  N   UNL     1     -43.605  56.651 -55.007  1.00  0.00    -0.067 NA
HETATM   21  C   UNL     1     -44.293  57.262 -56.031  1.00  0.00     0.065 A 
HETATM   22  C   UNL     1     -44.039  57.064 -57.339  1.00  0.00     0.036 A 
HETATM   23  C   UNL     1     -45.378  58.217 -55.584  1.00  0.00     0.060 C 
HETATM   24  C   UNL     1     -44.787  57.723 -58.459  1.00  0.00     0.046 C 
HETATM   25  C   UNL     1     -42.951  56.121 -57.701  1.00  0.00     0.268 A 
HETATM   26  C   UNL     1     -46.070  58.416 -57.996  1.00  0.00     0.005 C 
HETATM   27  C   UNL     1     -45.850  59.166 -56.687  1.00  0.00     0.006 C 
HETATM   28  O   UNL     1     -42.638  55.896 -58.864  1.00  0.00    -0.267 OA
HETATM   29  N   UNL     1     -42.327  55.532 -56.647  1.00  0.00    -0.152 N 
HETATM   30  H   UNL     1     -41.570  54.880 -56.822  1.00  0.00     0.188 HD
ENDBRANCH   2  19
BRANCH   4  31
HETATM   31  C   UNL     1     -40.346  52.059 -53.389  1.00  0.00     0.035 A 
HETATM   32  S   UNL     1     -39.657  51.465 -51.941  1.00  0.00    -0.100 SA
HETATM   33  C   UNL     1     -39.392  49.919 -52.624  1.00  0.00     0.050 A 
HETATM   34  C   UNL     1     -39.822  49.852 -53.931  1.00  0.00     0.008 A 
HETATM   35  C   UNL     1     -40.376  51.090 -54.373  1.00  0.00     0.022 A 
ENDBRANCH   4  31
TORSDOF 6
ENDMDL
MODEL 8
REMARK VINA RESULT:      -8.7      2.895      6.215
REMARK  6 active torsions:
REMARK  status: ('A' for Active; 'I' for Inactive)
REMARK    1  A    between atoms: C_2  and  O_3 
REMARK    2  A    between atoms: C_2  and  C_10 
REMARK    3  A    between atoms: O_3  and  C_4 
REMARK       I    between atoms: C_10  and  N_11 
REMARK    4  A    between atoms: N_11  and  C_12 
REMARK    5  A    between atoms: N_13  and  C_14 
REMARK    6  A    between atoms: C_26  and  C_27 
ROOT
HETATM    1  C   UNL     1     -42.485  57.790 -56.406  1.00  0.00     0.152 A 
HETATM    2  N   UNL     1     -42.102  58.982 -55.811  1.00  0.00    -0.044 N 
HETATM    3  N   UNL     1     -41.840  59.963 -56.724  1.00  0.00    -0.150 NA
HETATM    4  C   UNL     1     -42.064  59.375 -57.909  1.00  0.00     0.099 A 
HETATM    5  C   UNL     1     -42.471  58.030 -57.761  1.00  0.00     0.086 A 
ENDROOT
BRANCH   1   6
HETATM    6  N   UNL     1     -42.780  56.657 -55.665  1.00  0.00    -0.309 N 
HETATM    7  C   UNL     1     -41.824  55.826 -55.110  1.00  0.00     0.252 C 
HETATM    8  O   UNL     1     -40.607  55.956 -55.213  1.00  0.00    -0.270 OA
HETATM    9  H   UNL     1     -43.764  56.392 -55.559  1.00  0.00     0.170 HD
BRANCH   7  10
HETATM   10  C   UNL     1     -42.435  54.705 -54.251  1.00  0.00     0.217 C 
HETATM   11  C   UNL     1     -43.954  54.770 -54.387  1.00  0.00     0.050 C 
BRANCH  10  12
HETATM   12  O   UNL     1     -42.043  53.399 -54.683  1.00  0.00    -0.337 OA
BRANCH  12  13
HETATM   13  C   UNL     1     -41.132  52.744 -53.901  1.00  0.00     0.070 A 
HETATM   14  C   UNL     1     -40.956  53.278 -52.622  1.00  0.00     0.037 A 
HETATM   15  C   UNL     1     -40.058  52.695 -51.728  1.00  0.00     0.003 A 
HETATM   16  C   UNL     1     -39.343  51.560 -52.104  1.00  0.00     0.000 A 
HETATM   17  C   UNL     1     -39.533  51.009 -53.370  1.00  0.00     0.003 A 
HETATM   18  C   UNL     1     -40.427  51.598 -54.269  1.00  0.00     0.037 A 
ENDBRANCH  12  13
ENDBRANCH  10  12
ENDBRANCH   7  10
ENDBRANCH   1   6
BRANCH   2  19
HETATM   19  C   UNL     1     -41.950  59.250 -54.437  1.00  0.00     0.732 A 
HETATM   20  N   UNL     1     -40.870  58.971 -53.778  1.00  0.00    -0.067 NA
HETATM   21  C   UNL     1     -40.871  59.301 -52.441  1.00  0.00     0.065 A 
HETATM   22  C   UNL     1     -41.900  59.895 -51.808  1.00  0.00     0.036 A 
HETATM   23  C   UNL     1     -39.595  58.960 -51.704  1.00  0.00     0.060 C 
HETATM   24  C   UNL     1     -41.910  60.253 -50.352  1.00  0.00     0.046 C 
HETATM   25  C   UNL     1     -43.116  60.210 -52.600  1.00  0.00     0.268 A 
HETATM   26  C   UNL     1     -40.761  59.612 -49.571  1.00  0.00     0.005 C 
HETATM   27  C   UNL     1     -39.457  59.673 -50.358  1.00  0.00     0.006 C 
HETATM   28  O   UNL     1     -44.091  60.769 -52.112  1.00  0.00    -0.267 OA
HETATM   29  N   UNL     1     -43.062  59.839 -53.907  1.00  0.00    -0.152 N 
HETATM   30  H   UNL     1     -43.857  60.029 -54.508  1.00  0.00     0.188 HD
ENDBRANCH   2  19
BRANCH   4  31
HETATM   31  C   UNL     1     -41.876  60.110 -59.204  1.00  0.00     0.035 A 
HETATM   32  S   UNL     1     -42.251  59.466 -60.743  1.00  0.00    -0.100 SA
HETATM   33  C   UNL     1     -41.739  60.893 -61.537  1.00  0.00     0.050 A 
HETATM   34  C   UNL     1     -41.292  61.845 -60.649  1.00  0.00     0.008 A 
HETATM   35  C   UNL     1     -41.373  61.393 -59.298  1.00  0.00     0.022 A 
ENDBRANCH   4  31
TORSDOF 6
ENDMDL
MODEL 9
REMARK VINA RESULT:      -8.6      2.649      5.872
REMARK  6 active torsions:
REMARK  status: ('A' for Active; 'I' for Inactive)
REMARK    1  A    between atoms: C_2  and  O_3 
REMARK    2  A    between atoms: C_2  and  C_10 
REMARK    3  A    between atoms: O_3  and  C_4 
REMARK       I    between atoms: C_10  and  N_11 
REMARK    4  A    between atoms: N_11  and  C_12 
REMARK    5  A    between atoms: N_13  and  C_14 
REMARK    6  A    between atoms: C_26  and  C_27 
ROOT
HETATM    1  C   UNL     1     -43.006  56.557 -56.663  1.00  0.00     0.152 A 
HETATM    2  N   UNL     1     -43.498  57.693 -56.038  1.00  0.00    -0.044 N 
HETATM    3  N   UNL     1     -44.436  58.340 -56.791  1.00  0.00    -0.150 NA
HETATM    4  C   UNL     1     -44.532  57.596 -57.903  1.00  0.00     0.099 A 
HETATM    5  C   UNL     1     -43.669  56.478 -57.866  1.00  0.00     0.086 A 
ENDROOT
BRANCH   1   6
HETATM    6  N   UNL     1     -42.031  55.761 -56.084  1.00  0.00    -0.309 N 
HETATM    7  C   UNL     1     -42.300  54.647 -55.310  1.00  0.00     0.252 C 
HETATM    8  O   UNL     1     -43.416  54.230 -55.012  1.00  0.00    -0.270 OA
HETATM    9  H   UNL     1     -41.051  56.039 -56.198  1.00  0.00     0.170 HD
BRANCH   7  10
HETATM   10  C   UNL     1     -41.028  53.893 -54.886  1.00  0.00     0.217 C 
HETATM   11  C   UNL     1     -39.842  54.846 -55.008  1.00  0.00     0.050 C 
BRANCH  10  12
HETATM   12  O   UNL     1     -41.067  53.462 -53.523  1.00  0.00    -0.337 OA
BRANCH  12  13
HETATM   13  C   UNL     1     -40.542  52.228 -53.256  1.00  0.00     0.070 A 
HETATM   14  C   UNL     1     -40.591  51.321 -54.318  1.00  0.00     0.037 A 
HETATM   15  C   UNL     1     -40.082  50.031 -54.172  1.00  0.00     0.003 A 
HETATM   16  C   UNL     1     -39.503  49.646 -52.964  1.00  0.00     0.000 A 
HETATM   17  C   UNL     1     -39.430  50.555 -51.909  1.00  0.00     0.003 A 
HETATM   18  C   UNL     1     -39.947  51.846 -52.054  1.00  0.00     0.037 A 
ENDBRANCH  12  13
ENDBRANCH  10  12
ENDBRANCH   7  10
ENDBRANCH   1   6
BRANCH   2  19
HETATM   19  C   UNL     1     -43.127  58.216 -54.785  1.00  0.00     0.732 A 
HETATM   20  N   UNL     1     -41.961  58.022 -54.255  1.00  0.00    -0.067 NA
HETATM   21  C   UNL     1     -41.746  58.605 -53.026  1.00  0.00     0.065 A 
HETATM   22  C   UNL     1     -42.654  59.358 -52.376  1.00  0.00     0.036 A 
HETATM   23  C   UNL     1     -40.376  58.357 -52.438  1.00  0.00     0.060 C 
HETATM   24  C   UNL     1     -42.429  59.994 -51.037  1.00  0.00     0.046 C 
HETATM   25  C   UNL     1     -43.975  59.569 -53.022  1.00  0.00     0.268 A 
HETATM   26  C   UNL     1     -41.181  59.465 -50.327  1.00  0.00     0.005 C 
HETATM   27  C   UNL     1     -40.017  59.312 -51.298  1.00  0.00     0.006 C 
HETATM   28  O   UNL     1     -44.852  60.256 -52.514  1.00  0.00    -0.267 OA
HETATM   29  N   UNL     1     -44.133  58.948 -54.221  1.00  0.00    -0.152 N 
HETATM   30  H   UNL     1     -45.010  59.053 -54.720  1.00  0.00     0.188 HD
ENDBRANCH   2  19
BRANCH   4  31
HETATM   31  C   UNL     1     -45.460  57.967 -59.023  1.00  0.00     0.035 A 
HETATM   32  S   UNL     1     -45.521  59.510 -59.757  1.00  0.00    -0.100 SA
HETATM   33  C   UNL     1     -46.770  59.028 -60.821  1.00  0.00     0.050 A 
HETATM   34  C   UNL     1     -47.136  57.715 -60.626  1.00  0.00     0.008 A 
HETATM   35  C   UNL     1     -46.377  57.100 -59.586  1.00  0.00     0.022 A 
ENDBRANCH   4  31
TORSDOF 6
ENDMDL
MODEL 10
REMARK VINA RESULT:      -8.5      2.803      6.212
REMARK  6 active torsions:
REMARK  status: ('A' for Active; 'I' for Inactive)
REMARK    1  A    between atoms: C_2  and  O_3 
REMARK    2  A    between atoms: C_2  and  C_10 
REMARK    3  A    between atoms: O_3  and  C_4 
REMARK       I    between atoms: C_10  and  N_11 
REMARK    4  A    between atoms: N_11  and  C_12 
REMARK    5  A    between atoms: N_13  and  C_14 
REMARK    6  A    between atoms: C_26  and  C_27 
ROOT
HETATM    1  C   UNL     1     -42.458  56.287 -55.694  1.00  0.00     0.152 A 
HETATM    2  N   UNL     1     -42.691  57.578 -55.246  1.00  0.00    -0.044 N 
HETATM    3  N   UNL     1     -43.327  58.348 -56.177  1.00  0.00    -0.150 NA
HETATM    4  C   UNL     1     -43.495  57.525 -57.223  1.00  0.00     0.099 A 
HETATM    5  C   UNL     1     -42.977  56.236 -56.968  1.00  0.00     0.086 A 
ENDROOT
BRANCH   1   6
HETATM    6  N   UNL     1     -41.806  55.342 -54.917  1.00  0.00    -0.309 N 
HETATM    7  C   UNL     1     -42.451  54.464 -54.065  1.00  0.00     0.252 C 
HETATM    8  O   UNL     1     -43.661  54.414 -53.862  1.00  0.00    -0.270 OA
HETATM    9  H   UNL     1     -40.782  55.323 -54.939  1.00  0.00     0.170 HD
BRANCH   7  10
HETATM   10  C   UNL     1     -41.490  53.458 -53.408  1.00  0.00     0.217 C 
HETATM   11  C   UNL     1     -40.855  52.612 -54.508  1.00  0.00     0.050 C 
BRANCH  10  12
HETATM   12  O   UNL     1     -40.416  54.092 -52.708  1.00  0.00    -0.337 OA
BRANCH  12  13
HETATM   13  C   UNL     1     -40.559  54.221 -51.355  1.00  0.00     0.070 A 
HETATM   14  C   UNL     1     -41.093  55.440 -50.930  1.00  0.00     0.037 A 
HETATM   15  C   UNL     1     -41.293  55.691 -49.572  1.00  0.00     0.003 A 
HETATM   16  C   UNL     1     -40.974  54.714 -48.632  1.00  0.00     0.000 A 
HETATM   17  C   UNL     1     -40.463  53.487 -49.053  1.00  0.00     0.003 A 
HETATM   18  C   UNL     1     -40.256  53.238 -50.413  1.00  0.00     0.037 A 
ENDBRANCH  12  13
ENDBRANCH  10  12
ENDBRANCH   7  10
ENDBRANCH   1   6
BRANCH   2  19
HETATM   19  C   UNL     1     -42.336  58.137 -54.003  1.00  0.00     0.732 A 
HETATM   20  N   UNL     1     -41.123  58.135 -53.549  1.00  0.00    -0.067 NA
HETATM   21  C   UNL     1     -40.934  58.727 -52.320  1.00  0.00     0.065 A 
HETATM   22  C   UNL     1     -41.913  59.303 -51.598  1.00  0.00     0.036 A 
HETATM   23  C   UNL     1     -39.507  58.706 -51.821  1.00  0.00     0.060 C 
HETATM   24  C   UNL     1     -41.715  59.946 -50.257  1.00  0.00     0.046 C 
HETATM   25  C   UNL     1     -43.288  59.296 -52.158  1.00  0.00     0.268 A 
HETATM   26  C   UNL     1     -40.353  59.626 -49.637  1.00  0.00     0.005 C 
HETATM   27  C   UNL     1     -39.243  59.690 -50.679  1.00  0.00     0.006 C 
HETATM   28  O   UNL     1     -44.236  59.814 -51.580  1.00  0.00    -0.267 OA
HETATM   29  N   UNL     1     -43.414  58.676 -53.362  1.00  0.00    -0.152 N 
HETATM   30  H   UNL     1     -44.326  58.638 -53.805  1.00  0.00     0.188 HD
ENDBRANCH   2  19
BRANCH   4  31
HETATM   31  C   UNL     1     -44.155  57.984 -58.491  1.00  0.00     0.035 A 
HETATM   32  S   UNL     1     -43.993  59.552 -59.152  1.00  0.00    -0.100 SA
HETATM   33  C   UNL     1     -45.018  59.174 -60.469  1.00  0.00     0.050 A 
HETATM   34  C   UNL     1     -45.476  57.876 -60.411  1.00  0.00     0.008 A 
HETATM   35  C   UNL     1     -44.975  57.187 -59.266  1.00  0.00     0.022 A 
ENDBRANCH   4  31
TORSDOF 6
ENDMDL
