MODEL 1
REMARK VINA RESULT:      -8.4      0.000      0.000
REMARK  7 active torsions:
REMARK  status: ('A' for Active; 'I' for Inactive)
REMARK    1  A    between atoms: C_7  and  C_8 
REMARK       I    between atoms: C_8  and  N_9 
REMARK    2  A    between atoms: N_9  and  C_10 
REMARK    3  A    between atoms: C_10  and  C_11 
REMARK    4  A    between atoms: C_11  and  O_12 
REMARK    5  A    between atoms: C_11  and  C_13 
REMARK    6  A    between atoms: C_15  and  O_16 
REMARK    7  A    between atoms: O_16  and  C_17 
ROOT
HETATM    1  C   UNL     1     -42.072  56.150 -55.322  1.00  0.00     0.253 C 
HETATM    2  N   UNL     1     -43.093  56.234 -54.411  1.00  0.00    -0.354 N 
HETATM    3  O   UNL     1     -40.923  55.836 -55.032  1.00  0.00    -0.268 OA
HETATM    4  H   UNL     1     -44.055  56.265 -54.722  1.00  0.00     0.162 HD
ENDROOT
BRANCH   2   5
HETATM    5  C   UNL     1     -42.898  55.897 -53.008  1.00  0.00     0.159 C 
BRANCH   5   6
HETATM    6  C   UNL     1     -43.195  54.415 -52.713  1.00  0.00     0.169 C 
BRANCH   6   7
HETATM    7  O   UNL     1     -44.164  54.322 -51.660  1.00  0.00    -0.389 OA
HETATM    8  H   UNL     1     -43.667  54.111 -50.849  1.00  0.00     0.210 HD
ENDBRANCH   6   7
BRANCH   6   9
HETATM    9  C   UNL     1     -41.950  53.617 -52.370  1.00  0.00    -0.025 A 
HETATM   10  C   UNL     1     -41.303  52.872 -53.373  1.00  0.00     0.046 A 
HETATM   11  C   UNL     1     -40.135  52.156 -53.092  1.00  0.00     0.075 A 
HETATM   12  C   UNL     1     -39.596  52.207 -51.806  1.00  0.00     0.037 A 
HETATM   13  C   UNL     1     -40.222  52.943 -50.802  1.00  0.00     0.003 A 
HETATM   14  C   UNL     1     -41.393  53.645 -51.082  1.00  0.00     0.010 A 
BRANCH  11  15
HETATM   15  O   UNL     1     -39.417  51.411 -53.984  1.00  0.00    -0.290 OA
BRANCH  15  16
HETATM   16  C   UNL     1     -39.799  50.054 -54.126  1.00  0.00     0.505 C 
HETATM   17  F   UNL     1     -39.859  49.473 -52.903  1.00  0.00    -0.184 F 
HETATM   18  F   UNL     1     -41.060  50.037 -54.628  1.00  0.00    -0.184 F 
ENDBRANCH  15  16
ENDBRANCH  11  15
ENDBRANCH   6   9
ENDBRANCH   5   6
ENDBRANCH   2   5
BRANCH   1  19
HETATM   19  C   UNL     1     -42.466  56.405 -56.745  1.00  0.00     0.048 A 
HETATM   20  C   UNL     1     -42.169  57.703 -57.354  1.00  0.00     0.022 A 
HETATM   21  C   UNL     1     -42.519  57.988 -58.623  1.00  0.00     0.054 A 
HETATM   22  C   UNL     1     -43.199  57.011 -59.396  1.00  0.00     0.157 A 
HETATM   23  N   UNL     1     -43.493  55.799 -58.787  1.00  0.00    -0.291 N 
HETATM   24  N   UNL     1     -43.644  57.003 -60.632  1.00  0.00    -0.130 NA
HETATM   25  C   UNL     1     -44.148  55.067 -59.755  1.00  0.00     0.130 A 
HETATM   26  C   UNL     1     -43.143  55.493 -57.473  1.00  0.00     0.117 A 
HETATM   27  C   UNL     1     -44.664  53.692 -59.566  1.00  0.00     0.094 C 
HETATM   28  N   UNL     1     -44.239  55.784 -60.857  1.00  0.00    -0.135 NA
ENDBRANCH   1  19
TORSDOF 7
ENDMDL
MODEL 2
REMARK VINA RESULT:      -8.3      3.652      7.652
REMARK  7 active torsions:
REMARK  status: ('A' for Active; 'I' for Inactive)
REMARK    1  A    between atoms: C_7  and  C_8 
REMARK       I    between atoms: C_8  and  N_9 
REMARK    2  A    between atoms: N_9  and  C_10 
REMARK    3  A    between atoms: C_10  and  C_11 
REMARK    4  A    between atoms: C_11  and  O_12 
REMARK    5  A    between atoms: C_11  and  C_13 
REMARK    6  A    between atoms: C_15  and  O_16 
REMARK    7  A    between atoms: O_16  and  C_17 
ROOT
HETATM    1  C   UNL     1     -40.930  55.087 -53.933  1.00  0.00     0.253 C 
HETATM    2  N   UNL     1     -42.105  55.706 -53.593  1.00  0.00    -0.354 N 
HETATM    3  O   UNL     1     -40.165  55.503 -54.796  1.00  0.00    -0.268 OA
HETATM    4  H   UNL     1     -42.579  55.466 -52.733  1.00  0.00     0.162 HD
ENDROOT
BRANCH   2   5
HETATM    5  C   UNL     1     -42.514  56.963 -54.204  1.00  0.00     0.159 C 
BRANCH   5   6
HETATM    6  C   UNL     1     -43.613  56.769 -55.266  1.00  0.00     0.169 C 
BRANCH   6   7
HETATM    7  O   UNL     1     -44.176  55.457 -55.137  1.00  0.00    -0.389 OA
HETATM    8  H   UNL     1     -43.619  54.866 -55.674  1.00  0.00     0.210 HD
ENDBRANCH   6   7
BRANCH   6   9
HETATM    9  C   UNL     1     -43.117  57.004 -56.682  1.00  0.00    -0.025 A 
HETATM   10  C   UNL     1     -43.408  56.062 -57.686  1.00  0.00     0.046 A 
HETATM   11  C   UNL     1     -42.993  56.271 -59.005  1.00  0.00     0.075 A 
HETATM   12  C   UNL     1     -42.305  57.442 -59.327  1.00  0.00     0.037 A 
HETATM   13  C   UNL     1     -42.011  58.386 -58.345  1.00  0.00     0.003 A 
HETATM   14  C   UNL     1     -42.415  58.169 -57.029  1.00  0.00     0.010 A 
BRANCH  11  15
HETATM   15  O   UNL     1     -43.228  55.437 -60.061  1.00  0.00    -0.290 OA
BRANCH  15  16
HETATM   16  C   UNL     1     -44.534  54.895 -60.160  1.00  0.00     0.505 C 
HETATM   17  F   UNL     1     -44.821  54.650 -61.462  1.00  0.00    -0.184 F 
HETATM   18  F   UNL     1     -44.523  53.693 -59.531  1.00  0.00    -0.184 F 
ENDBRANCH  15  16
ENDBRANCH  11  15
ENDBRANCH   6   9
ENDBRANCH   5   6
ENDBRANCH   2   5
BRANCH   1  19
HETATM   19  C   UNL     1     -40.591  53.874 -53.123  1.00  0.00     0.048 A 
HETATM   20  C   UNL     1     -40.497  53.982 -51.665  1.00  0.00     0.022 A 
HETATM   21  C   UNL     1     -40.177  52.926 -50.894  1.00  0.00     0.054 A 
HETATM   22  C   UNL     1     -39.917  51.670 -51.503  1.00  0.00     0.157 A 
HETATM   23  N   UNL     1     -39.985  51.600 -52.887  1.00  0.00    -0.291 N 
HETATM   24  N   UNL     1     -39.599  50.492 -51.017  1.00  0.00    -0.130 NA
HETATM   25  C   UNL     1     -39.685  50.289 -53.190  1.00  0.00     0.130 A 
HETATM   26  C   UNL     1     -40.309  52.687 -53.698  1.00  0.00     0.117 A 
HETATM   27  C   UNL     1     -39.631  49.732 -54.560  1.00  0.00     0.094 C 
HETATM   28  N   UNL     1     -39.453  49.625 -52.074  1.00  0.00    -0.135 NA
ENDBRANCH   1  19
TORSDOF 7
ENDMDL
MODEL 3
REMARK VINA RESULT:      -8.2      2.056      2.792
REMARK  7 active torsions:
REMARK  status: ('A' for Active; 'I' for Inactive)
REMARK    1  A    between atoms: C_7  and  C_8 
REMARK       I    between atoms: C_8  and  N_9 
REMARK    2  A    between atoms: N_9  and  C_10 
REMARK    3  A    between atoms: C_10  and  C_11 
REMARK    4  A    between atoms: C_11  and  O_12 
REMARK    5  A    between atoms: C_11  and  C_13 
REMARK    6  A    between atoms: C_15  and  O_16 
REMARK    7  A    between atoms: O_16  and  C_17 
ROOT
HETATM    1  C   UNL     1     -43.120  56.358 -57.507  1.00  0.00     0.253 C 
HETATM    2  N   UNL     1     -43.067  55.305 -56.632  1.00  0.00    -0.354 N 
HETATM    3  O   UNL     1     -42.367  57.325 -57.457  1.00  0.00    -0.268 OA
HETATM    4  H   UNL     1     -43.541  54.437 -56.847  1.00  0.00     0.162 HD
ENDROOT
BRANCH   2   5
HETATM    5  C   UNL     1     -42.056  55.225 -55.588  1.00  0.00     0.159 C 
BRANCH   5   6
HETATM    6  C   UNL     1     -42.656  54.873 -54.214  1.00  0.00     0.169 C 
BRANCH   6   7
HETATM    7  O   UNL     1     -43.016  56.078 -53.527  1.00  0.00    -0.389 OA
HETATM    8  H   UNL     1     -42.201  56.408 -53.108  1.00  0.00     0.210 HD
ENDBRANCH   6   7
BRANCH   6   9
HETATM    9  C   UNL     1     -41.729  54.025 -53.362  1.00  0.00    -0.025 A 
HETATM   10  C   UNL     1     -40.966  53.008 -53.965  1.00  0.00     0.046 A 
HETATM   11  C   UNL     1     -40.079  52.235 -53.210  1.00  0.00     0.075 A 
HETATM   12  C   UNL     1     -39.935  52.497 -51.846  1.00  0.00     0.037 A 
HETATM   13  C   UNL     1     -40.681  53.502 -51.234  1.00  0.00     0.003 A 
HETATM   14  C   UNL     1     -41.573  54.263 -51.988  1.00  0.00     0.010 A 
BRANCH  11  15
HETATM   15  O   UNL     1     -39.280  51.235 -53.686  1.00  0.00    -0.290 OA
BRANCH  15  16
HETATM   16  C   UNL     1     -39.909  49.991 -53.942  1.00  0.00     0.505 C 
HETATM   17  F   UNL     1     -39.567  49.559 -55.180  1.00  0.00    -0.184 F 
HETATM   18  F   UNL     1     -39.401  49.091 -53.062  1.00  0.00    -0.184 F 
ENDBRANCH  15  16
ENDBRANCH  11  15
ENDBRANCH   6   9
ENDBRANCH   5   6
ENDBRANCH   2   5
BRANCH   1  19
HETATM   19  C   UNL     1     -44.135  56.229 -58.601  1.00  0.00     0.048 A 
HETATM   20  C   UNL     1     -44.084  55.074 -59.500  1.00  0.00     0.022 A 
HETATM   21  C   UNL     1     -44.961  54.921 -60.510  1.00  0.00     0.054 A 
HETATM   22  C   UNL     1     -45.964  55.905 -60.719  1.00  0.00     0.157 A 
HETATM   23  N   UNL     1     -45.973  57.003 -59.871  1.00  0.00    -0.291 N 
HETATM   24  N   UNL     1     -46.936  56.015 -61.594  1.00  0.00    -0.130 NA
HETATM   25  C   UNL     1     -47.028  57.778 -60.308  1.00  0.00     0.130 A 
HETATM   26  C   UNL     1     -45.067  57.178 -58.826  1.00  0.00     0.117 A 
HETATM   27  C   UNL     1     -47.432  59.067 -59.704  1.00  0.00     0.094 C 
HETATM   28  N   UNL     1     -47.604  57.189 -61.337  1.00  0.00    -0.135 NA
ENDBRANCH   1  19
TORSDOF 7
ENDMDL
MODEL 4
REMARK VINA RESULT:      -8.0      2.795      3.717
REMARK  7 active torsions:
REMARK  status: ('A' for Active; 'I' for Inactive)
REMARK    1  A    between atoms: C_7  and  C_8 
REMARK       I    between atoms: C_8  and  N_9 
REMARK    2  A    between atoms: N_9  and  C_10 
REMARK    3  A    between atoms: C_10  and  C_11 
REMARK    4  A    between atoms: C_11  and  O_12 
REMARK    5  A    between atoms: C_11  and  C_13 
REMARK    6  A    between atoms: C_15  and  O_16 
REMARK    7  A    between atoms: O_16  and  C_17 
ROOT
HETATM    1  C   UNL     1     -43.053  56.185 -57.522  1.00  0.00     0.253 C 
HETATM    2  N   UNL     1     -43.100  55.184 -56.588  1.00  0.00    -0.354 N 
HETATM    3  O   UNL     1     -42.209  57.075 -57.527  1.00  0.00    -0.268 OA
HETATM    4  H   UNL     1     -43.657  54.356 -56.753  1.00  0.00     0.162 HD
ENDROOT
BRANCH   2   5
HETATM    5  C   UNL     1     -42.097  55.066 -55.539  1.00  0.00     0.159 C 
BRANCH   5   6
HETATM    6  C   UNL     1     -42.653  54.402 -54.265  1.00  0.00     0.169 C 
BRANCH   6   7
HETATM    7  O   UNL     1     -43.240  55.403 -53.423  1.00  0.00    -0.389 OA
HETATM    8  H   UNL     1     -42.502  55.927 -53.065  1.00  0.00     0.210 HD
ENDBRANCH   6   7
BRANCH   6   9
HETATM    9  C   UNL     1     -41.607  53.606 -53.506  1.00  0.00    -0.025 A 
HETATM   10  C   UNL     1     -41.519  53.730 -52.108  1.00  0.00     0.046 A 
HETATM   11  C   UNL     1     -40.588  52.983 -51.380  1.00  0.00     0.075 A 
HETATM   12  C   UNL     1     -39.756  52.087 -52.053  1.00  0.00     0.037 A 
HETATM   13  C   UNL     1     -39.832  51.950 -53.437  1.00  0.00     0.003 A 
HETATM   14  C   UNL     1     -40.753  52.706 -54.161  1.00  0.00     0.010 A 
BRANCH  11  15
HETATM   15  O   UNL     1     -40.421  53.009 -50.024  1.00  0.00    -0.290 OA
BRANCH  15  16
HETATM   16  C   UNL     1     -39.998  54.240 -49.464  1.00  0.00     0.505 C 
HETATM   17  F   UNL     1     -40.041  54.157 -48.111  1.00  0.00    -0.184 F 
HETATM   18  F   UNL     1     -38.695  54.413 -49.801  1.00  0.00    -0.184 F 
ENDBRANCH  15  16
ENDBRANCH  11  15
ENDBRANCH   6   9
ENDBRANCH   5   6
ENDBRANCH   2   5
BRANCH   1  19
HETATM   19  C   UNL     1     -44.080  56.093 -58.608  1.00  0.00     0.048 A 
HETATM   20  C   UNL     1     -44.074  54.941 -59.512  1.00  0.00     0.022 A 
HETATM   21  C   UNL     1     -44.963  54.820 -60.515  1.00  0.00     0.054 A 
HETATM   22  C   UNL     1     -45.935  55.836 -60.713  1.00  0.00     0.157 A 
HETATM   23  N   UNL     1     -45.903  56.931 -59.861  1.00  0.00    -0.291 N 
HETATM   24  N   UNL     1     -46.911  55.981 -61.580  1.00  0.00    -0.130 NA
HETATM   25  C   UNL     1     -46.935  57.740 -60.286  1.00  0.00     0.130 A 
HETATM   26  C   UNL     1     -44.984  57.072 -58.823  1.00  0.00     0.117 A 
HETATM   27  C   UNL     1     -47.294  59.040 -59.675  1.00  0.00     0.094 C 
HETATM   28  N   UNL     1     -47.538  57.175 -61.313  1.00  0.00    -0.135 NA
ENDBRANCH   1  19
TORSDOF 7
ENDMDL
MODEL 5
REMARK VINA RESULT:      -7.8      1.350      1.569
REMARK  7 active torsions:
REMARK  status: ('A' for Active; 'I' for Inactive)
REMARK    1  A    between atoms: C_7  and  C_8 
REMARK       I    between atoms: C_8  and  N_9 
REMARK    2  A    between atoms: N_9  and  C_10 
REMARK    3  A    between atoms: C_10  and  C_11 
REMARK    4  A    between atoms: C_11  and  O_12 
REMARK    5  A    between atoms: C_11  and  C_13 
REMARK    6  A    between atoms: C_15  and  O_16 
REMARK    7  A    between atoms: O_16  and  C_17 
ROOT
HETATM    1  C   UNL     1     -43.100  57.436 -54.905  1.00  0.00     0.253 C 
HETATM    2  N   UNL     1     -43.059  56.190 -54.334  1.00  0.00    -0.354 N 
HETATM    3  O   UNL     1     -43.192  58.477 -54.263  1.00  0.00    -0.268 OA
HETATM    4  H   UNL     1     -42.752  55.391 -54.873  1.00  0.00     0.162 HD
ENDROOT
BRANCH   2   5
HETATM    5  C   UNL     1     -43.064  56.008 -52.889  1.00  0.00     0.159 C 
BRANCH   5   6
HETATM    6  C   UNL     1     -41.645  56.011 -52.291  1.00  0.00     0.169 C 
BRANCH   6   7
HETATM    7  O   UNL     1     -40.800  56.866 -53.073  1.00  0.00    -0.389 OA
HETATM    8  H   UNL     1     -41.004  57.778 -52.799  1.00  0.00     0.210 HD
ENDBRANCH   6   7
BRANCH   6   9
HETATM    9  C   UNL     1     -41.047  54.621 -52.176  1.00  0.00    -0.025 A 
HETATM   10  C   UNL     1     -40.873  53.842 -53.335  1.00  0.00     0.046 A 
HETATM   11  C   UNL     1     -40.292  52.572 -53.263  1.00  0.00     0.075 A 
HETATM   12  C   UNL     1     -39.860  52.088 -52.026  1.00  0.00     0.037 A 
HETATM   13  C   UNL     1     -40.022  52.848 -50.870  1.00  0.00     0.003 A 
HETATM   14  C   UNL     1     -40.613  54.109 -50.944  1.00  0.00     0.010 A 
BRANCH  11  15
HETATM   15  O   UNL     1     -40.061  51.733 -54.316  1.00  0.00    -0.290 OA
BRANCH  15  16
HETATM   16  C   UNL     1     -40.029  50.347 -54.025  1.00  0.00     0.505 C 
HETATM   17  F   UNL     1     -41.078  49.736 -54.629  1.00  0.00    -0.184 F 
HETATM   18  F   UNL     1     -38.905  49.839 -54.591  1.00  0.00    -0.184 F 
ENDBRANCH  15  16
ENDBRANCH  11  15
ENDBRANCH   6   9
ENDBRANCH   5   6
ENDBRANCH   2   5
BRANCH   1  19
HETATM   19  C   UNL     1     -42.956  57.459 -56.395  1.00  0.00     0.048 A 
HETATM   20  C   UNL     1     -42.311  58.604 -57.041  1.00  0.00     0.022 A 
HETATM   21  C   UNL     1     -42.174  58.682 -58.378  1.00  0.00     0.054 A 
HETATM   22  C   UNL     1     -42.672  57.631 -59.193  1.00  0.00     0.157 A 
HETATM   23  N   UNL     1     -43.305  56.570 -58.559  1.00  0.00    -0.291 N 
HETATM   24  N   UNL     1     -42.673  57.433 -60.491  1.00  0.00    -0.130 NA
HETATM   25  C   UNL     1     -43.683  55.723 -59.580  1.00  0.00     0.130 A 
HETATM   26  C   UNL     1     -43.459  56.480 -57.177  1.00  0.00     0.117 A 
HETATM   27  C   UNL     1     -44.401  54.443 -59.390  1.00  0.00     0.094 C 
HETATM   28  N   UNL     1     -43.307  56.237 -60.734  1.00  0.00    -0.135 NA
ENDBRANCH   1  19
TORSDOF 7
ENDMDL
MODEL 6
REMARK VINA RESULT:      -7.7      3.646      7.719
REMARK  7 active torsions:
REMARK  status: ('A' for Active; 'I' for Inactive)
REMARK    1  A    between atoms: C_7  and  C_8 
REMARK       I    between atoms: C_8  and  N_9 
REMARK    2  A    between atoms: N_9  and  C_10 
REMARK    3  A    between atoms: C_10  and  C_11 
REMARK    4  A    between atoms: C_11  and  O_12 
REMARK    5  A    between atoms: C_11  and  C_13 
REMARK    6  A    between atoms: C_15  and  O_16 
REMARK    7  A    between atoms: O_16  and  C_17 
ROOT
HETATM    1  C   UNL     1     -41.245  56.622 -53.798  1.00  0.00     0.253 C 
HETATM    2  N   UNL     1     -42.078  56.844 -54.863  1.00  0.00    -0.354 N 
HETATM    3  O   UNL     1     -40.903  57.494 -53.006  1.00  0.00    -0.268 OA
HETATM    4  H   UNL     1     -42.514  56.067 -55.342  1.00  0.00     0.162 HD
ENDROOT
BRANCH   2   5
HETATM    5  C   UNL     1     -42.677  58.148 -55.110  1.00  0.00     0.159 C 
BRANCH   5   6
HETATM    6  C   UNL     1     -43.764  58.098 -56.200  1.00  0.00     0.169 C 
BRANCH   6   7
HETATM    7  O   UNL     1     -44.719  57.079 -55.877  1.00  0.00    -0.389 OA
HETATM    8  H   UNL     1     -45.130  57.346 -55.035  1.00  0.00     0.210 HD
ENDBRANCH   6   7
BRANCH   6   9
HETATM    9  C   UNL     1     -43.197  57.882 -57.592  1.00  0.00    -0.025 A 
HETATM   10  C   UNL     1     -43.540  56.721 -58.309  1.00  0.00     0.046 A 
HETATM   11  C   UNL     1     -43.061  56.513 -59.606  1.00  0.00     0.075 A 
HETATM   12  C   UNL     1     -42.252  57.485 -60.199  1.00  0.00     0.037 A 
HETATM   13  C   UNL     1     -41.906  58.641 -59.504  1.00  0.00     0.003 A 
HETATM   14  C   UNL     1     -42.376  58.839 -58.206  1.00  0.00     0.010 A 
BRANCH  11  15
HETATM   15  O   UNL     1     -43.336  55.437 -60.401  1.00  0.00    -0.290 OA
BRANCH  15  16
HETATM   16  C   UNL     1     -44.668  54.954 -60.372  1.00  0.00     0.505 C 
HETATM   17  F   UNL     1     -45.010  54.504 -61.605  1.00  0.00    -0.184 F 
HETATM   18  F   UNL     1     -44.692  53.878 -59.545  1.00  0.00    -0.184 F 
ENDBRANCH  15  16
ENDBRANCH  11  15
ENDBRANCH   6   9
ENDBRANCH   5   6
ENDBRANCH   2   5
BRANCH   1  19
HETATM   19  C   UNL     1     -40.816  55.199 -53.609  1.00  0.00     0.048 A 
HETATM   20  C   UNL     1     -40.532  54.369 -54.782  1.00  0.00     0.022 A 
HETATM   21  C   UNL     1     -40.162  53.080 -54.667  1.00  0.00     0.054 A 
HETATM   22  C   UNL     1     -40.046  52.500 -53.376  1.00  0.00     0.157 A 
HETATM   23  N   UNL     1     -40.347  53.299 -52.282  1.00  0.00    -0.291 N 
HETATM   24  N   UNL     1     -39.703  51.300 -52.965  1.00  0.00    -0.130 NA
HETATM   25  C   UNL     1     -40.157  52.484 -51.186  1.00  0.00     0.130 A 
HETATM   26  C   UNL     1     -40.738  54.632 -52.387  1.00  0.00     0.117 A 
HETATM   27  C   UNL     1     -40.361  52.900 -49.781  1.00  0.00     0.094 C 
HETATM   28  N   UNL     1     -39.773  51.289 -51.592  1.00  0.00    -0.135 NA
ENDBRANCH   1  19
TORSDOF 7
ENDMDL
MODEL 7
REMARK VINA RESULT:      -7.7      1.048      1.982
REMARK  7 active torsions:
REMARK  status: ('A' for Active; 'I' for Inactive)
REMARK    1  A    between atoms: C_7  and  C_8 
REMARK       I    between atoms: C_8  and  N_9 
REMARK    2  A    between atoms: N_9  and  C_10 
REMARK    3  A    between atoms: C_10  and  C_11 
REMARK    4  A    between atoms: C_11  and  O_12 
REMARK    5  A    between atoms: C_11  and  C_13 
REMARK    6  A    between atoms: C_15  and  O_16 
REMARK    7  A    between atoms: O_16  and  C_17 
ROOT
HETATM    1  C   UNL     1     -42.363  56.758 -54.831  1.00  0.00     0.253 C 
HETATM    2  N   UNL     1     -43.357  56.215 -54.059  1.00  0.00    -0.354 N 
HETATM    3  O   UNL     1     -41.346  57.268 -54.373  1.00  0.00    -0.268 OA
HETATM    4  H   UNL     1     -44.051  55.606 -54.473  1.00  0.00     0.162 HD
ENDROOT
BRANCH   2   5
HETATM    5  C   UNL     1     -43.254  56.152 -52.608  1.00  0.00     0.159 C 
BRANCH   5   6
HETATM    6  C   UNL     1     -43.459  54.726 -52.065  1.00  0.00     0.169 C 
BRANCH   6   7
HETATM    7  O   UNL     1     -44.080  54.790 -50.775  1.00  0.00    -0.389 OA
HETATM    8  H   UNL     1     -44.580  55.626 -50.753  1.00  0.00     0.210 HD
ENDBRANCH   6   7
BRANCH   6   9
HETATM    9  C   UNL     1     -42.171  53.924 -52.003  1.00  0.00    -0.025 A 
HETATM   10  C   UNL     1     -41.706  53.266 -53.157  1.00  0.00     0.046 A 
HETATM   11  C   UNL     1     -40.505  52.550 -53.137  1.00  0.00     0.075 A 
HETATM   12  C   UNL     1     -39.752  52.512 -51.961  1.00  0.00     0.037 A 
HETATM   13  C   UNL     1     -40.198  53.160 -50.811  1.00  0.00     0.003 A 
HETATM   14  C   UNL     1     -41.402  53.863 -50.832  1.00  0.00     0.010 A 
BRANCH  11  15
HETATM   15  O   UNL     1     -39.949  51.886 -54.193  1.00  0.00    -0.290 OA
BRANCH  15  16
HETATM   16  C   UNL     1     -39.638  50.519 -53.987  1.00  0.00     0.505 C 
HETATM   17  F   UNL     1     -40.766  49.846 -53.650  1.00  0.00    -0.184 F 
HETATM   18  F   UNL     1     -39.223  50.013 -55.176  1.00  0.00    -0.184 F 
ENDBRANCH  15  16
ENDBRANCH  11  15
ENDBRANCH   6   9
ENDBRANCH   5   6
ENDBRANCH   2   5
BRANCH   1  19
HETATM   19  C   UNL     1     -42.561  56.629 -56.309  1.00  0.00     0.048 A 
HETATM   20  C   UNL     1     -42.936  55.333 -56.878  1.00  0.00     0.022 A 
HETATM   21  C   UNL     1     -43.108  55.160 -58.202  1.00  0.00     0.054 A 
HETATM   22  C   UNL     1     -42.917  56.260 -59.080  1.00  0.00     0.157 A 
HETATM   23  N   UNL     1     -42.535  57.471 -58.520  1.00  0.00    -0.291 N 
HETATM   24  N   UNL     1     -43.022  56.390 -60.382  1.00  0.00    -0.130 NA
HETATM   25  C   UNL     1     -42.420  58.335 -59.589  1.00  0.00     0.130 A 
HETATM   26  C   UNL     1     -42.347  57.661 -57.152  1.00  0.00     0.117 A 
HETATM   27  C   UNL     1     -42.028  59.758 -59.484  1.00  0.00     0.094 C 
HETATM   28  N   UNL     1     -42.709  57.691 -60.702  1.00  0.00    -0.135 NA
ENDBRANCH   1  19
TORSDOF 7
ENDMDL
MODEL 8
REMARK VINA RESULT:      -7.7      2.516      3.008
REMARK  7 active torsions:
REMARK  status: ('A' for Active; 'I' for Inactive)
REMARK    1  A    between atoms: C_7  and  C_8 
REMARK       I    between atoms: C_8  and  N_9 
REMARK    2  A    between atoms: N_9  and  C_10 
REMARK    3  A    between atoms: C_10  and  C_11 
REMARK    4  A    between atoms: C_11  and  O_12 
REMARK    5  A    between atoms: C_11  and  C_13 
REMARK    6  A    between atoms: C_15  and  O_16 
REMARK    7  A    between atoms: O_16  and  C_17 
ROOT
HETATM    1  C   UNL     1     -42.056  56.436 -55.401  1.00  0.00     0.253 C 
HETATM    2  N   UNL     1     -42.979  56.850 -54.476  1.00  0.00    -0.354 N 
HETATM    3  O   UNL     1     -40.980  55.925 -55.109  1.00  0.00    -0.268 OA
HETATM    4  H   UNL     1     -43.932  57.045 -54.756  1.00  0.00     0.162 HD
ENDROOT
BRANCH   2   5
HETATM    5  C   UNL     1     -42.772  56.660 -53.047  1.00  0.00     0.159 C 
BRANCH   5   6
HETATM    6  C   UNL     1     -43.129  55.235 -52.587  1.00  0.00     0.169 C 
BRANCH   6   7
HETATM    7  O   UNL     1     -44.104  55.302 -51.537  1.00  0.00    -0.389 OA
HETATM    8  H   UNL     1     -43.805  54.684 -50.846  1.00  0.00     0.210 HD
ENDBRANCH   6   7
BRANCH   6   9
HETATM    9  C   UNL     1     -41.918  54.433 -52.145  1.00  0.00    -0.025 A 
HETATM   10  C   UNL     1     -41.303  54.725 -50.913  1.00  0.00     0.046 A 
HETATM   11  C   UNL     1     -40.208  53.980 -50.466  1.00  0.00     0.075 A 
HETATM   12  C   UNL     1     -39.739  52.920 -51.244  1.00  0.00     0.037 A 
HETATM   13  C   UNL     1     -40.338  52.617 -52.465  1.00  0.00     0.003 A 
HETATM   14  C   UNL     1     -41.422  53.369 -52.913  1.00  0.00     0.010 A 
BRANCH  11  15
HETATM   15  O   UNL     1     -39.541  54.162 -49.287  1.00  0.00    -0.290 OA
BRANCH  15  16
HETATM   16  C   UNL     1     -40.276  53.914 -48.101  1.00  0.00     0.505 C 
HETATM   17  F   UNL     1     -39.418  53.790 -47.058  1.00  0.00    -0.184 F 
HETATM   18  F   UNL     1     -41.032  55.014 -47.854  1.00  0.00    -0.184 F 
ENDBRANCH  15  16
ENDBRANCH  11  15
ENDBRANCH   6   9
ENDBRANCH   5   6
ENDBRANCH   2   5
BRANCH   1  19
HETATM   19  C   UNL     1     -42.475  56.586 -56.831  1.00  0.00     0.048 A 
HETATM   20  C   UNL     1     -42.234  57.853 -57.525  1.00  0.00     0.022 A 
HETATM   21  C   UNL     1     -42.609  58.045 -58.804  1.00  0.00     0.054 A 
HETATM   22  C   UNL     1     -43.261  56.996 -59.505  1.00  0.00     0.157 A 
HETATM   23  N   UNL     1     -43.503  55.816 -58.817  1.00  0.00    -0.291 N 
HETATM   24  N   UNL     1     -43.720  56.894 -60.731  1.00  0.00    -0.130 NA
HETATM   25  C   UNL     1     -44.141  55.000 -59.727  1.00  0.00     0.130 A 
HETATM   26  C   UNL     1     -43.127  55.606 -57.491  1.00  0.00     0.117 A 
HETATM   27  C   UNL     1     -44.604  53.623 -59.446  1.00  0.00     0.094 C 
HETATM   28  N   UNL     1     -44.273  55.643 -60.871  1.00  0.00    -0.135 NA
ENDBRANCH   1  19
TORSDOF 7
ENDMDL
MODEL 9
REMARK VINA RESULT:      -7.6      4.082      8.150
REMARK  7 active torsions:
REMARK  status: ('A' for Active; 'I' for Inactive)
REMARK    1  A    between atoms: C_7  and  C_8 
REMARK       I    between atoms: C_8  and  N_9 
REMARK    2  A    between atoms: N_9  and  C_10 
REMARK    3  A    between atoms: C_10  and  C_11 
REMARK    4  A    between atoms: C_11  and  O_12 
REMARK    5  A    between atoms: C_11  and  C_13 
REMARK    6  A    between atoms: C_15  and  O_16 
REMARK    7  A    between atoms: O_16  and  C_17 
ROOT
HETATM    1  C   UNL     1     -42.601  54.795 -54.740  1.00  0.00     0.253 C 
HETATM    2  N   UNL     1     -42.627  56.137 -54.461  1.00  0.00    -0.354 N 
HETATM    3  O   UNL     1     -43.155  54.290 -55.710  1.00  0.00    -0.268 OA
HETATM    4  H   UNL     1     -41.975  56.535 -53.798  1.00  0.00     0.162 HD
ENDROOT
BRANCH   2   5
HETATM    5  C   UNL     1     -43.282  57.092 -55.345  1.00  0.00     0.159 C 
BRANCH   5   6
HETATM    6  C   UNL     1     -42.313  57.698 -56.377  1.00  0.00     0.169 C 
BRANCH   6   7
HETATM    7  O   UNL     1     -42.164  59.101 -56.125  1.00  0.00    -0.389 OA
HETATM    8  H   UNL     1     -43.009  59.403 -55.746  1.00  0.00     0.210 HD
ENDBRANCH   6   7
BRANCH   6   9
HETATM    9  C   UNL     1     -42.745  57.452 -57.811  1.00  0.00    -0.025 A 
HETATM   10  C   UNL     1     -43.952  56.776 -58.068  1.00  0.00     0.046 A 
HETATM   11  C   UNL     1     -44.390  56.566 -59.379  1.00  0.00     0.075 A 
HETATM   12  C   UNL     1     -43.628  57.058 -60.440  1.00  0.00     0.037 A 
HETATM   13  C   UNL     1     -42.432  57.732 -60.203  1.00  0.00     0.003 A 
HETATM   14  C   UNL     1     -41.992  57.928 -58.895  1.00  0.00     0.010 A 
BRANCH  11  15
HETATM   15  O   UNL     1     -45.546  55.938 -59.748  1.00  0.00    -0.290 OA
BRANCH  15  16
HETATM   16  C   UNL     1     -46.690  56.760 -59.903  1.00  0.00     0.505 C 
HETATM   17  F   UNL     1     -47.666  56.058 -60.530  1.00  0.00    -0.184 F 
HETATM   18  F   UNL     1     -47.155  57.047 -58.660  1.00  0.00    -0.184 F 
ENDBRANCH  15  16
ENDBRANCH  11  15
ENDBRANCH   6   9
ENDBRANCH   5   6
ENDBRANCH   2   5
BRANCH   1  19
HETATM   19  C   UNL     1     -41.779  53.966 -53.803  1.00  0.00     0.048 A 
HETATM   20  C   UNL     1     -41.493  54.465 -52.456  1.00  0.00     0.022 A 
HETATM   21  C   UNL     1     -40.744  53.767 -51.583  1.00  0.00     0.054 A 
HETATM   22  C   UNL     1     -40.206  52.512 -51.973  1.00  0.00     0.157 A 
HETATM   23  N   UNL     1     -40.467  52.073 -53.264  1.00  0.00    -0.291 N 
HETATM   24  N   UNL     1     -39.466  51.625 -51.348  1.00  0.00    -0.130 NA
HETATM   25  C   UNL     1     -39.826  50.856 -53.360  1.00  0.00     0.130 A 
HETATM   26  C   UNL     1     -41.236  52.789 -54.180  1.00  0.00     0.117 A 
HETATM   27  C   UNL     1     -39.819  50.000 -54.568  1.00  0.00     0.094 C 
HETATM   28  N   UNL     1     -39.226  50.587 -52.217  1.00  0.00    -0.135 NA
ENDBRANCH   1  19
TORSDOF 7
ENDMDL
MODEL 10
REMARK VINA RESULT:      -7.5      1.987      2.698
REMARK  7 active torsions:
REMARK  status: ('A' for Active; 'I' for Inactive)
REMARK    1  A    between atoms: C_7  and  C_8 
REMARK       I    between atoms: C_8  and  N_9 
REMARK    2  A    between atoms: N_9  and  C_10 
REMARK    3  A    between atoms: C_10  and  C_11 
REMARK    4  A    between atoms: C_11  and  O_12 
REMARK    5  A    between atoms: C_11  and  C_13 
REMARK    6  A    between atoms: C_15  and  O_16 
REMARK    7  A    between atoms: O_16  and  C_17 
ROOT
HETATM    1  C   UNL     1     -41.937  58.229 -55.032  1.00  0.00     0.253 C 
HETATM    2  N   UNL     1     -41.903  57.443 -53.909  1.00  0.00    -0.354 N 
HETATM    3  O   UNL     1     -41.641  59.418 -55.041  1.00  0.00    -0.268 OA
HETATM    4  H   UNL     1     -41.926  56.435 -53.990  1.00  0.00     0.162 HD
ENDROOT
BRANCH   2   5
HETATM    5  C   UNL     1     -41.448  57.959 -52.626  1.00  0.00     0.159 C 
BRANCH   5   6
HETATM    6  C   UNL     1     -42.017  57.161 -51.437  1.00  0.00     0.169 C 
BRANCH   6   7
HETATM    7  O   UNL     1     -41.853  57.919 -50.232  1.00  0.00    -0.389 OA
HETATM    8  H   UNL     1     -42.472  58.668 -50.293  1.00  0.00     0.210 HD
ENDBRANCH   6   7
BRANCH   6   9
HETATM    9  C   UNL     1     -41.394  55.784 -51.296  1.00  0.00    -0.025 A 
HETATM   10  C   UNL     1     -41.565  54.835 -52.321  1.00  0.00     0.046 A 
HETATM   11  C   UNL     1     -40.974  53.571 -52.232  1.00  0.00     0.075 A 
HETATM   12  C   UNL     1     -40.185  53.262 -51.122  1.00  0.00     0.037 A 
HETATM   13  C   UNL     1     -40.003  54.192 -50.100  1.00  0.00     0.003 A 
HETATM   14  C   UNL     1     -40.605  55.446 -50.186  1.00  0.00     0.010 A 
BRANCH  11  15
HETATM   15  O   UNL     1     -41.058  52.578 -53.166  1.00  0.00    -0.290 OA
BRANCH  15  16
HETATM   16  C   UNL     1     -39.924  52.391 -53.994  1.00  0.00     0.505 C 
HETATM   17  F   UNL     1     -40.107  51.292 -54.767  1.00  0.00    -0.184 F 
HETATM   18  F   UNL     1     -39.856  53.452 -54.837  1.00  0.00    -0.184 F 
ENDBRANCH  15  16
ENDBRANCH  11  15
ENDBRANCH   6   9
ENDBRANCH   5   6
ENDBRANCH   2   5
BRANCH   1  19
HETATM   19  C   UNL     1     -42.304  57.517 -56.297  1.00  0.00     0.048 A 
HETATM   20  C   UNL     1     -42.732  56.117 -56.241  1.00  0.00     0.022 A 
HETATM   21  C   UNL     1     -43.054  55.427 -57.351  1.00  0.00     0.054 A 
HETATM   22  C   UNL     1     -42.974  56.065 -58.617  1.00  0.00     0.157 A 
HETATM   23  N   UNL     1     -42.540  57.383 -58.647  1.00  0.00    -0.291 N 
HETATM   24  N   UNL     1     -43.229  55.657 -59.839  1.00  0.00    -0.130 NA
HETATM   25  C   UNL     1     -42.556  57.730 -59.981  1.00  0.00     0.130 A 
HETATM   26  C   UNL     1     -42.197  58.107 -57.506  1.00  0.00     0.117 A 
HETATM   27  C   UNL     1     -42.165  59.056 -60.512  1.00  0.00     0.094 C 
HETATM   28  N   UNL     1     -42.966  56.701 -60.695  1.00  0.00    -0.135 NA
ENDBRANCH   1  19
TORSDOF 7
ENDMDL
