MODEL 1
REMARK VINA RESULT:      -6.8      0.000      0.000
REMARK  6 active torsions:
REMARK  status: ('A' for Active; 'I' for Inactive)
REMARK    1  A    between atoms: N_2  and  C_5 
REMARK    2  A    between atoms: C_5  and  C_6 
REMARK    3  A    between atoms: C_6  and  C_7 
REMARK    4  A    between atoms: C_7  and  C_8 
REMARK    5  A    between atoms: C_12  and  N_13 
REMARK       I    between atoms: N_13  and  C_14 
REMARK    6  A    between atoms: C_14  and  C_15 
ROOT
HETATM    1  C   UNL     1     -44.496  57.467 -54.913  1.00  0.00     0.079 A 
HETATM    2  N   UNL     1     -44.771  57.455 -53.596  1.00  0.00    -0.176 NA
HETATM    3  N   UNL     1     -44.055  56.393 -53.141  1.00  0.00    -0.261 N 
HETATM    4  H   UNL     1     -44.049  56.163 -52.148  1.00  0.00     0.191 HD
HETATM    5  C   UNL     1     -43.401  55.700 -54.130  1.00  0.00     0.147 A 
HETATM    6  C   UNL     1     -43.661  56.388 -55.294  1.00  0.00     0.116 A 
HETATM    7  C   UNL     1     -43.189  56.069 -56.600  1.00  0.00     0.105 C 
HETATM    8  N   UNL     1     -42.827  55.810 -57.670  1.00  0.00    -0.191 NA
ENDROOT
BRANCH   1   9
HETATM    9  C   UNL     1     -45.073  58.552 -55.763  1.00  0.00     0.064 C 
BRANCH   9  10
HETATM   10  C   UNL     1     -46.303  58.127 -56.573  1.00  0.00     0.033 C 
BRANCH  10  11
HETATM   11  C   UNL     1     -46.216  58.242 -58.097  1.00  0.00     0.232 C 
BRANCH  11  12
HETATM   12  N   UNL     1     -45.803  56.959 -58.728  1.00  0.00    -0.079 N 
HETATM   13  C   UNL     1     -46.599  56.568 -59.917  1.00  0.00     0.266 C 
HETATM   14  H   UNL     1     -45.794  56.190 -58.048  1.00  0.00     0.276 HD
HETATM   15  H   UNL     1     -44.813  57.088 -59.036  1.00  0.00     0.276 HD
ENDBRANCH  11  12
ENDBRANCH  10  11
ENDBRANCH   9  10
ENDBRANCH   1   9
BRANCH   5  16
HETATM   16  N   UNL     1     -42.651  54.556 -53.902  1.00  0.00    -0.306 N 
HETATM   17  C   UNL     1     -41.443  54.590 -53.225  1.00  0.00     0.259 C 
HETATM   18  O   UNL     1     -40.962  55.644 -52.804  1.00  0.00    -0.267 OA
HETATM   19  H   UNL     1     -43.006  53.664 -54.239  1.00  0.00     0.170 HD
BRANCH  17  20
HETATM   20  C   UNL     1     -40.752  53.312 -53.029  1.00  0.00     0.063 A 
HETATM   21  C   UNL     1     -40.108  52.842 -51.899  1.00  0.00     0.091 A 
HETATM   22 CL   UNL     1     -39.906  53.606 -50.364  1.00  0.00    -0.075 Cl
HETATM   23  S   UNL     1     -39.417  51.298 -52.078  1.00  0.00    -0.065 SA
HETATM   24  C   UNL     1     -39.949  51.208 -53.677  1.00  0.00     0.077 A 
HETATM   25 CL   UNL     1     -39.603  49.818 -54.619  1.00  0.00    -0.076 Cl
HETATM   26  C   UNL     1     -40.640  52.321 -54.079  1.00  0.00     0.050 A 
ENDBRANCH  17  20
ENDBRANCH   5  16
TORSDOF 6
ENDMDL
MODEL 2
REMARK VINA RESULT:      -6.7      3.759      4.878
REMARK  6 active torsions:
REMARK  status: ('A' for Active; 'I' for Inactive)
REMARK    1  A    between atoms: N_2  and  C_5 
REMARK    2  A    between atoms: C_5  and  C_6 
REMARK    3  A    between atoms: C_6  and  C_7 
REMARK    4  A    between atoms: C_7  and  C_8 
REMARK    5  A    between atoms: C_12  and  N_13 
REMARK       I    between atoms: N_13  and  C_14 
REMARK    6  A    between atoms: C_14  and  C_15 
ROOT
HETATM    1  C   UNL     1     -44.228  58.050 -51.599  1.00  0.00     0.079 A 
HETATM    2  N   UNL     1     -44.972  57.256 -50.807  1.00  0.00    -0.176 NA
HETATM    3  N   UNL     1     -44.372  56.044 -50.934  1.00  0.00    -0.261 N 
HETATM    4  H   UNL     1     -44.713  55.241 -50.405  1.00  0.00     0.191 HD
HETATM    5  C   UNL     1     -43.326  56.033 -51.824  1.00  0.00     0.147 A 
HETATM    6  C   UNL     1     -43.203  57.333 -52.262  1.00  0.00     0.116 A 
HETATM    7  C   UNL     1     -42.247  57.836 -53.190  1.00  0.00     0.105 C 
HETATM    8  N   UNL     1     -41.487  58.254 -53.958  1.00  0.00    -0.191 NA
ENDROOT
BRANCH   1   9
HETATM    9  C   UNL     1     -44.556  59.505 -51.676  1.00  0.00     0.064 C 
BRANCH   9  10
HETATM   10  C   UNL     1     -43.929  60.350 -50.562  1.00  0.00     0.033 C 
BRANCH  10  11
HETATM   11  C   UNL     1     -42.433  60.656 -50.668  1.00  0.00     0.232 C 
BRANCH  11  12
HETATM   12  N   UNL     1     -41.613  59.692 -49.883  1.00  0.00    -0.079 N 
HETATM   13  C   UNL     1     -40.217  59.532 -50.361  1.00  0.00     0.266 C 
HETATM   14  H   UNL     1     -42.066  58.774 -49.822  1.00  0.00     0.276 HD
HETATM   15  H   UNL     1     -41.575  60.064 -48.908  1.00  0.00     0.276 HD
ENDBRANCH  11  12
ENDBRANCH  10  11
ENDBRANCH   9  10
ENDBRANCH   1   9
BRANCH   5  16
HETATM   16  N   UNL     1     -42.600  54.896 -52.147  1.00  0.00    -0.306 N 
HETATM   17  C   UNL     1     -41.371  54.620 -51.571  1.00  0.00     0.259 C 
HETATM   18  O   UNL     1     -40.848  55.381 -50.755  1.00  0.00    -0.267 OA
HETATM   19  H   UNL     1     -42.990  54.243 -52.822  1.00  0.00     0.170 HD
BRANCH  17  20
HETATM   20  C   UNL     1     -40.708  53.378 -51.979  1.00  0.00     0.063 A 
HETATM   21  C   UNL     1     -40.330  52.976 -53.247  1.00  0.00     0.091 A 
HETATM   22 CL   UNL     1     -40.518  53.801 -54.752  1.00  0.00    -0.075 Cl
HETATM   23  S   UNL     1     -39.588  51.446 -53.304  1.00  0.00    -0.065 SA
HETATM   24  C   UNL     1     -39.755  51.265 -51.636  1.00  0.00     0.077 A 
HETATM   25 CL   UNL     1     -39.193  49.839 -50.867  1.00  0.00    -0.076 Cl
HETATM   26  C   UNL     1     -40.359  52.337 -51.034  1.00  0.00     0.050 A 
ENDBRANCH  17  20
ENDBRANCH   5  16
TORSDOF 6
ENDMDL
MODEL 3
REMARK VINA RESULT:      -6.6      2.645      4.272
REMARK  6 active torsions:
REMARK  status: ('A' for Active; 'I' for Inactive)
REMARK    1  A    between atoms: N_2  and  C_5 
REMARK    2  A    between atoms: C_5  and  C_6 
REMARK    3  A    between atoms: C_6  and  C_7 
REMARK    4  A    between atoms: C_7  and  C_8 
REMARK    5  A    between atoms: C_12  and  N_13 
REMARK       I    between atoms: N_13  and  C_14 
REMARK    6  A    between atoms: C_14  and  C_15 
ROOT
HETATM    1  C   UNL     1     -44.425  57.905 -53.408  1.00  0.00     0.079 A 
HETATM    2  N   UNL     1     -45.056  57.189 -54.358  1.00  0.00    -0.176 NA
HETATM    3  N   UNL     1     -44.482  55.962 -54.251  1.00  0.00    -0.261 N 
HETATM    4  H   UNL     1     -44.798  55.192 -54.841  1.00  0.00     0.191 HD
HETATM    5  C   UNL     1     -43.473  55.900 -53.322  1.00  0.00     0.147 A 
HETATM    6  C   UNL     1     -43.425  57.150 -52.748  1.00  0.00     0.116 A 
HETATM    7  C   UNL     1     -42.545  57.584 -51.714  1.00  0.00     0.105 C 
HETATM    8  N   UNL     1     -41.824  57.954 -50.886  1.00  0.00    -0.191 NA
ENDROOT
BRANCH   1   9
HETATM    9  C   UNL     1     -44.834  59.323 -53.180  1.00  0.00     0.064 C 
BRANCH   9  10
HETATM   10  C   UNL     1     -45.683  59.537 -51.922  1.00  0.00     0.033 C 
BRANCH  10  11
HETATM   11  C   UNL     1     -45.248  60.643 -50.958  1.00  0.00     0.232 C 
BRANCH  11  12
HETATM   12  N   UNL     1     -44.005  60.283 -50.224  1.00  0.00    -0.079 N 
HETATM   13  C   UNL     1     -42.959  61.335 -50.218  1.00  0.00     0.266 C 
HETATM   14  H   UNL     1     -43.607  59.401 -50.567  1.00  0.00     0.276 HD
HETATM   15  H   UNL     1     -44.288  60.108 -49.233  1.00  0.00     0.276 HD
ENDBRANCH  11  12
ENDBRANCH  10  11
ENDBRANCH   9  10
ENDBRANCH   1   9
BRANCH   5  16
HETATM   16  N   UNL     1     -42.718  54.762 -53.080  1.00  0.00    -0.306 N 
HETATM   17  C   UNL     1     -41.529  54.513 -53.746  1.00  0.00     0.259 C 
HETATM   18  O   UNL     1     -41.088  55.281 -54.603  1.00  0.00    -0.267 OA
HETATM   19  H   UNL     1     -43.046  54.096 -52.385  1.00  0.00     0.170 HD
BRANCH  17  20
HETATM   20  C   UNL     1     -40.810  53.285 -53.390  1.00  0.00     0.063 A 
HETATM   21  C   UNL     1     -40.240  52.939 -52.179  1.00  0.00     0.091 A 
HETATM   22 CL   UNL     1     -40.185  53.836 -50.705  1.00  0.00    -0.075 Cl
HETATM   23  S   UNL     1     -39.483  51.416 -52.172  1.00  0.00    -0.065 SA
HETATM   24  C   UNL     1     -39.885  51.170 -53.792  1.00  0.00     0.077 A 
HETATM   25 CL   UNL     1     -39.418  49.722 -54.582  1.00  0.00    -0.076 Cl
HETATM   26  C   UNL     1     -40.582  52.216 -54.339  1.00  0.00     0.050 A 
ENDBRANCH  17  20
ENDBRANCH   5  16
TORSDOF 6
ENDMDL
MODEL 4
REMARK VINA RESULT:      -6.6      1.439      2.574
REMARK  6 active torsions:
REMARK  status: ('A' for Active; 'I' for Inactive)
REMARK    1  A    between atoms: N_2  and  C_5 
REMARK    2  A    between atoms: C_5  and  C_6 
REMARK    3  A    between atoms: C_6  and  C_7 
REMARK    4  A    between atoms: C_7  and  C_8 
REMARK    5  A    between atoms: C_12  and  N_13 
REMARK       I    between atoms: N_13  and  C_14 
REMARK    6  A    between atoms: C_14  and  C_15 
ROOT
HETATM    1  C   UNL     1     -44.473  57.441 -54.783  1.00  0.00     0.079 A 
HETATM    2  N   UNL     1     -44.728  57.425 -53.462  1.00  0.00    -0.176 NA
HETATM    3  N   UNL     1     -44.017  56.354 -53.023  1.00  0.00    -0.261 N 
HETATM    4  H   UNL     1     -43.998  56.119 -52.031  1.00  0.00     0.191 HD
HETATM    5  C   UNL     1     -43.383  55.660 -54.025  1.00  0.00     0.147 A 
HETATM    6  C   UNL     1     -43.653  56.356 -55.181  1.00  0.00     0.116 A 
HETATM    7  C   UNL     1     -43.204  56.040 -56.495  1.00  0.00     0.105 C 
HETATM    8  N   UNL     1     -42.860  55.783 -57.572  1.00  0.00    -0.191 NA
ENDROOT
BRANCH   1   9
HETATM    9  C   UNL     1     -45.051  58.536 -55.619  1.00  0.00     0.064 C 
BRANCH   9  10
HETATM   10  C   UNL     1     -44.271  59.854 -55.553  1.00  0.00     0.033 C 
BRANCH  10  11
HETATM   11  C   UNL     1     -42.747  59.776 -55.657  1.00  0.00     0.232 C 
BRANCH  11  12
HETATM   12  N   UNL     1     -42.080  60.249 -54.413  1.00  0.00    -0.079 N 
HETATM   13  C   UNL     1     -41.359  59.196 -53.656  1.00  0.00     0.266 C 
HETATM   14  H   UNL     1     -42.738  60.734 -53.793  1.00  0.00     0.276 HD
HETATM   15  H   UNL     1     -41.378  60.965 -54.710  1.00  0.00     0.276 HD
ENDBRANCH  11  12
ENDBRANCH  10  11
ENDBRANCH   9  10
ENDBRANCH   1   9
BRANCH   5  16
HETATM   16  N   UNL     1     -42.641  54.508 -53.813  1.00  0.00    -0.306 N 
HETATM   17  C   UNL     1     -41.445  54.520 -53.115  1.00  0.00     0.259 C 
HETATM   18  O   UNL     1     -40.967  55.561 -52.659  1.00  0.00    -0.267 OA
HETATM   19  H   UNL     1     -42.994  53.626 -54.178  1.00  0.00     0.170 HD
BRANCH  17  20
HETATM   20  C   UNL     1     -40.762  53.235 -52.940  1.00  0.00     0.063 A 
HETATM   21  C   UNL     1     -40.195  52.706 -51.795  1.00  0.00     0.091 A 
HETATM   22 CL   UNL     1     -40.104  53.387 -50.211  1.00  0.00    -0.075 Cl
HETATM   23  S   UNL     1     -39.484  51.176 -52.008  1.00  0.00    -0.065 SA
HETATM   24  C   UNL     1     -39.904  51.170 -53.642  1.00  0.00     0.077 A 
HETATM   25 CL   UNL     1     -39.485  49.833 -54.631  1.00  0.00    -0.076 Cl
HETATM   26  C   UNL     1     -40.571  52.301 -54.031  1.00  0.00     0.050 A 
ENDBRANCH  17  20
ENDBRANCH   5  16
TORSDOF 6
ENDMDL
MODEL 5
REMARK VINA RESULT:      -6.4      2.995      4.075
REMARK  6 active torsions:
REMARK  status: ('A' for Active; 'I' for Inactive)
REMARK    1  A    between atoms: N_2  and  C_5 
REMARK    2  A    between atoms: C_5  and  C_6 
REMARK    3  A    between atoms: C_6  and  C_7 
REMARK    4  A    between atoms: C_7  and  C_8 
REMARK    5  A    between atoms: C_12  and  N_13 
REMARK       I    between atoms: N_13  and  C_14 
REMARK    6  A    between atoms: C_14  and  C_15 
ROOT
HETATM    1  C   UNL     1     -42.279  59.091 -54.400  1.00  0.00     0.079 A 
HETATM    2  N   UNL     1     -43.180  58.356 -55.078  1.00  0.00    -0.176 NA
HETATM    3  N   UNL     1     -42.769  57.081 -54.853  1.00  0.00    -0.261 N 
HETATM    4  H   UNL     1     -43.298  56.294 -55.229  1.00  0.00     0.191 HD
HETATM    5  C   UNL     1     -41.610  56.992 -54.121  1.00  0.00     0.147 A 
HETATM    6  C   UNL     1     -41.277  58.289 -53.801  1.00  0.00     0.116 A 
HETATM    7  C   UNL     1     -40.157  58.721 -53.035  1.00  0.00     0.105 C 
HETATM    8  N   UNL     1     -39.239  59.086 -52.428  1.00  0.00    -0.191 NA
ENDROOT
BRANCH   1   9
HETATM    9  C   UNL     1     -42.437  60.576 -54.364  1.00  0.00     0.064 C 
BRANCH   9  10
HETATM   10  C   UNL     1     -42.874  61.128 -53.003  1.00  0.00     0.033 C 
BRANCH  10  11
HETATM   11  C   UNL     1     -44.143  60.541 -52.380  1.00  0.00     0.232 C 
BRANCH  11  12
HETATM   12  N   UNL     1     -43.842  59.721 -51.175  1.00  0.00    -0.079 N 
HETATM   13  C   UNL     1     -44.119  58.271 -51.325  1.00  0.00     0.266 C 
HETATM   14  H   UNL     1     -44.323  60.082 -50.343  1.00  0.00     0.276 HD
HETATM   15  H   UNL     1     -42.819  59.832 -50.991  1.00  0.00     0.276 HD
ENDBRANCH  11  12
ENDBRANCH  10  11
ENDBRANCH   9  10
ENDBRANCH   1   9
BRANCH   5  16
HETATM   16  N   UNL     1     -40.982  55.794 -53.814  1.00  0.00    -0.306 N 
HETATM   17  C   UNL     1     -41.696  54.653 -53.482  1.00  0.00     0.259 C 
HETATM   18  O   UNL     1     -42.927  54.649 -53.424  1.00  0.00    -0.267 OA
HETATM   19  H   UNL     1     -39.966  55.753 -53.842  1.00  0.00     0.170 HD
BRANCH  17  20
HETATM   20  C   UNL     1     -40.921  53.442 -53.196  1.00  0.00     0.063 A 
HETATM   21  C   UNL     1     -40.255  53.097 -52.034  1.00  0.00     0.091 A 
HETATM   22 CL   UNL     1     -40.118  53.977 -50.555  1.00  0.00    -0.075 Cl
HETATM   23  S   UNL     1     -39.459  51.596 -52.104  1.00  0.00    -0.065 SA
HETATM   24  C   UNL     1     -39.970  51.359 -53.693  1.00  0.00     0.077 A 
HETATM   25 CL   UNL     1     -39.523  49.935 -54.536  1.00  0.00    -0.076 Cl
HETATM   26  C   UNL     1     -40.732  52.391 -54.174  1.00  0.00     0.050 A 
ENDBRANCH  17  20
ENDBRANCH   5  16
TORSDOF 6
ENDMDL
MODEL 6
REMARK VINA RESULT:      -6.3      2.129      2.673
REMARK  6 active torsions:
REMARK  status: ('A' for Active; 'I' for Inactive)
REMARK    1  A    between atoms: N_2  and  C_5 
REMARK    2  A    between atoms: C_5  and  C_6 
REMARK    3  A    between atoms: C_6  and  C_7 
REMARK    4  A    between atoms: C_7  and  C_8 
REMARK    5  A    between atoms: C_12  and  N_13 
REMARK       I    between atoms: N_13  and  C_14 
REMARK    6  A    between atoms: C_14  and  C_15 
ROOT
HETATM    1  C   UNL     1     -44.594  57.935 -53.751  1.00  0.00     0.079 A 
HETATM    2  N   UNL     1     -45.248  57.128 -54.606  1.00  0.00    -0.176 NA
HETATM    3  N   UNL     1     -44.652  55.923 -54.411  1.00  0.00    -0.261 N 
HETATM    4  H   UNL     1     -44.977  55.099 -54.916  1.00  0.00     0.191 HD
HETATM    5  C   UNL     1     -43.608  55.959 -53.520  1.00  0.00     0.147 A 
HETATM    6  C   UNL     1     -43.558  57.257 -53.064  1.00  0.00     0.116 A 
HETATM    7  C   UNL     1     -42.648  57.794 -52.109  1.00  0.00     0.105 C 
HETATM    8  N   UNL     1     -41.902  58.247 -51.346  1.00  0.00    -0.191 NA
ENDROOT
BRANCH   1   9
HETATM    9  C   UNL     1     -45.016  59.363 -53.637  1.00  0.00     0.064 C 
BRANCH   9  10
HETATM   10  C   UNL     1     -45.052  60.114 -54.973  1.00  0.00     0.033 C 
BRANCH  10  11
HETATM   11  C   UNL     1     -43.761  60.155 -55.793  1.00  0.00     0.232 C 
BRANCH  11  12
HETATM   12  N   UNL     1     -43.736  59.100 -56.842  1.00  0.00    -0.079 N 
HETATM   13  C   UNL     1     -42.516  58.255 -56.845  1.00  0.00     0.266 C 
HETATM   14  H   UNL     1     -43.886  59.494 -57.778  1.00  0.00     0.276 HD
HETATM   15  H   UNL     1     -44.554  58.478 -56.654  1.00  0.00     0.276 HD
ENDBRANCH  11  12
ENDBRANCH  10  11
ENDBRANCH   9  10
ENDBRANCH   1   9
BRANCH   5  16
HETATM   16  N   UNL     1     -42.826  54.857 -53.205  1.00  0.00    -0.306 N 
HETATM   17  C   UNL     1     -41.612  54.614 -53.826  1.00  0.00     0.259 C 
HETATM   18  O   UNL     1     -41.171  55.356 -54.707  1.00  0.00    -0.267 OA
HETATM   19  H   UNL     1     -43.154  54.214 -52.488  1.00  0.00     0.170 HD
BRANCH  17  20
HETATM   20  C   UNL     1     -40.867  53.428 -53.394  1.00  0.00     0.063 A 
HETATM   21  C   UNL     1     -40.312  53.160 -52.156  1.00  0.00     0.091 A 
HETATM   22 CL   UNL     1     -40.311  54.132 -50.729  1.00  0.00    -0.075 Cl
HETATM   23  S   UNL     1     -39.514  51.661 -52.057  1.00  0.00    -0.065 SA
HETATM   24  C   UNL     1     -39.877  51.322 -53.669  1.00  0.00     0.077 A 
HETATM   25 CL   UNL     1     -39.355  49.849 -54.375  1.00  0.00    -0.076 Cl
HETATM   26  C   UNL     1     -40.591  52.318 -54.282  1.00  0.00     0.050 A 
ENDBRANCH  17  20
ENDBRANCH   5  16
TORSDOF 6
ENDMDL
MODEL 7
REMARK VINA RESULT:      -6.3      1.321      2.926
REMARK  6 active torsions:
REMARK  status: ('A' for Active; 'I' for Inactive)
REMARK    1  A    between atoms: N_2  and  C_5 
REMARK    2  A    between atoms: C_5  and  C_6 
REMARK    3  A    between atoms: C_6  and  C_7 
REMARK    4  A    between atoms: C_7  and  C_8 
REMARK    5  A    between atoms: C_12  and  N_13 
REMARK       I    between atoms: N_13  and  C_14 
REMARK    6  A    between atoms: C_14  and  C_15 
ROOT
HETATM    1  C   UNL     1     -43.548  56.998 -56.822  1.00  0.00     0.079 A 
HETATM    2  N   UNL     1     -43.158  55.966 -57.594  1.00  0.00    -0.176 NA
HETATM    3  N   UNL     1     -42.712  55.056 -56.690  1.00  0.00    -0.261 N 
HETATM    4  H   UNL     1     -42.381  54.142 -56.999  1.00  0.00     0.191 HD
HETATM    5  C   UNL     1     -42.743  55.502 -55.391  1.00  0.00     0.147 A 
HETATM    6  C   UNL     1     -43.296  56.761 -55.449  1.00  0.00     0.116 A 
HETATM    7  C   UNL     1     -43.551  57.635 -54.353  1.00  0.00     0.105 C 
HETATM    8  N   UNL     1     -43.747  58.362 -53.471  1.00  0.00    -0.191 NA
ENDROOT
BRANCH   1   9
HETATM    9  C   UNL     1     -44.160  58.196 -57.471  1.00  0.00     0.064 C 
BRANCH   9  10
HETATM   10  C   UNL     1     -45.642  58.029 -57.825  1.00  0.00     0.033 C 
BRANCH  10  11
HETATM   11  C   UNL     1     -45.979  57.561 -59.243  1.00  0.00     0.232 C 
BRANCH  11  12
HETATM   12  N   UNL     1     -45.914  56.080 -59.370  1.00  0.00    -0.079 N 
HETATM   13  C   UNL     1     -45.236  55.590 -60.595  1.00  0.00     0.266 C 
HETATM   14  H   UNL     1     -46.845  55.654 -59.294  1.00  0.00     0.276 HD
HETATM   15  H   UNL     1     -45.371  55.737 -58.546  1.00  0.00     0.276 HD
ENDBRANCH  11  12
ENDBRANCH  10  11
ENDBRANCH   9  10
ENDBRANCH   1   9
BRANCH   5  16
HETATM   16  N   UNL     1     -42.291  54.760 -54.311  1.00  0.00    -0.306 N 
HETATM   17  C   UNL     1     -40.978  54.329 -54.211  1.00  0.00     0.259 C 
HETATM   18  O   UNL     1     -40.146  54.568 -55.088  1.00  0.00    -0.267 OA
HETATM   19  H   UNL     1     -42.945  54.533 -53.566  1.00  0.00     0.170 HD
BRANCH  17  20
HETATM   20  C   UNL     1     -40.615  53.568 -53.012  1.00  0.00     0.063 A 
HETATM   21  C   UNL     1     -40.167  52.263 -52.920  1.00  0.00     0.091 A 
HETATM   22 CL   UNL     1     -39.895  51.113 -54.180  1.00  0.00    -0.075 Cl
HETATM   23  S   UNL     1     -39.859  51.739 -51.331  1.00  0.00    -0.065 SA
HETATM   24  C   UNL     1     -40.323  53.237 -50.711  1.00  0.00     0.077 A 
HETATM   25 CL   UNL     1     -40.286  53.514 -49.019  1.00  0.00    -0.076 Cl
HETATM   26  C   UNL     1     -40.705  54.127 -51.680  1.00  0.00     0.050 A 
ENDBRANCH  17  20
ENDBRANCH   5  16
TORSDOF 6
ENDMDL
MODEL 8
REMARK VINA RESULT:      -6.3      4.631      7.805
REMARK  6 active torsions:
REMARK  status: ('A' for Active; 'I' for Inactive)
REMARK    1  A    between atoms: N_2  and  C_5 
REMARK    2  A    between atoms: C_5  and  C_6 
REMARK    3  A    between atoms: C_6  and  C_7 
REMARK    4  A    between atoms: C_7  and  C_8 
REMARK    5  A    between atoms: C_12  and  N_13 
REMARK       I    between atoms: N_13  and  C_14 
REMARK    6  A    between atoms: C_14  and  C_15 
ROOT
HETATM    1  C   UNL     1     -40.820  53.428 -53.390  1.00  0.00     0.079 A 
HETATM    2  N   UNL     1     -40.404  53.552 -52.116  1.00  0.00    -0.176 NA
HETATM    3  N   UNL     1     -40.936  54.741 -51.732  1.00  0.00    -0.261 N 
HETATM    4  H   UNL     1     -40.807  55.080 -50.779  1.00  0.00     0.191 HD
HETATM    5  C   UNL     1     -41.609  55.398 -52.734  1.00  0.00     0.147 A 
HETATM    6  C   UNL     1     -41.560  54.556 -53.822  1.00  0.00     0.116 A 
HETATM    7  C   UNL     1     -42.130  54.785 -55.107  1.00  0.00     0.105 C 
HETATM    8  N   UNL     1     -42.574  54.967 -56.162  1.00  0.00    -0.191 NA
ENDROOT
BRANCH   1   9
HETATM    9  C   UNL     1     -40.470  52.189 -54.148  1.00  0.00     0.064 C 
BRANCH   9  10
HETATM   10  C   UNL     1     -39.456  51.285 -53.439  1.00  0.00     0.033 C 
BRANCH  10  11
HETATM   11  C   UNL     1     -39.687  49.774 -53.513  1.00  0.00     0.232 C 
BRANCH  11  12
HETATM   12  N   UNL     1     -39.530  49.122 -52.184  1.00  0.00    -0.079 N 
HETATM   13  C   UNL     1     -39.517  50.056 -51.032  1.00  0.00     0.266 C 
HETATM   14  H   UNL     1     -38.698  48.522 -52.154  1.00  0.00     0.276 HD
HETATM   15  H   UNL     1     -40.351  48.486 -52.069  1.00  0.00     0.276 HD
ENDBRANCH  11  12
ENDBRANCH  10  11
ENDBRANCH   9  10
ENDBRANCH   1   9
BRANCH   5  16
HETATM   16  N   UNL     1     -42.190  56.647 -52.581  1.00  0.00    -0.306 N 
HETATM   17  C   UNL     1     -43.080  56.925 -51.555  1.00  0.00     0.259 C 
HETATM   18  O   UNL     1     -43.416  56.069 -50.735  1.00  0.00    -0.267 OA
HETATM   19  H   UNL     1     -41.947  57.384 -53.240  1.00  0.00     0.170 HD
BRANCH  17  20
HETATM   20  C   UNL     1     -43.613  58.289 -51.487  1.00  0.00     0.063 A 
HETATM   21  C   UNL     1     -42.968  59.450 -51.100  1.00  0.00     0.091 A 
HETATM   22 CL   UNL     1     -41.339  59.666 -50.571  1.00  0.00    -0.075 Cl
HETATM   23  S   UNL     1     -43.944  60.842 -51.150  1.00  0.00    -0.065 SA
HETATM   24  C   UNL     1     -45.265  59.939 -51.683  1.00  0.00     0.077 A 
HETATM   25 CL   UNL     1     -46.767  60.710 -51.985  1.00  0.00    -0.076 Cl
HETATM   26  C   UNL     1     -44.985  58.605 -51.826  1.00  0.00     0.050 A 
ENDBRANCH  17  20
ENDBRANCH   5  16
TORSDOF 6
ENDMDL
MODEL 9
REMARK VINA RESULT:      -6.2      4.310      7.241
REMARK  6 active torsions:
REMARK  status: ('A' for Active; 'I' for Inactive)
REMARK    1  A    between atoms: N_2  and  C_5 
REMARK    2  A    between atoms: C_5  and  C_6 
REMARK    3  A    between atoms: C_6  and  C_7 
REMARK    4  A    between atoms: C_7  and  C_8 
REMARK    5  A    between atoms: C_12  and  N_13 
REMARK       I    between atoms: N_13  and  C_14 
REMARK    6  A    between atoms: C_14  and  C_15 
ROOT
HETATM    1  C   UNL     1     -42.909  54.723 -52.125  1.00  0.00     0.079 A 
HETATM    2  N   UNL     1     -43.698  55.807 -52.009  1.00  0.00    -0.176 NA
HETATM    3  N   UNL     1     -43.997  56.112 -53.299  1.00  0.00    -0.261 N 
HETATM    4  H   UNL     1     -44.622  56.888 -53.514  1.00  0.00     0.191 HD
HETATM    5  C   UNL     1     -43.371  55.305 -54.218  1.00  0.00     0.147 A 
HETATM    6  C   UNL     1     -42.666  54.383 -53.478  1.00  0.00     0.116 A 
HETATM    7  C   UNL     1     -41.862  53.319 -53.979  1.00  0.00     0.105 C 
HETATM    8  N   UNL     1     -41.190  52.461 -54.373  1.00  0.00    -0.191 NA
ENDROOT
BRANCH   1   9
HETATM    9  C   UNL     1     -42.414  54.053 -50.885  1.00  0.00     0.064 C 
BRANCH   9  10
HETATM   10  C   UNL     1     -40.933  54.307 -50.583  1.00  0.00     0.033 C 
BRANCH  10  11
HETATM   11  C   UNL     1     -40.051  53.087 -50.307  1.00  0.00     0.232 C 
BRANCH  11  12
HETATM   12  N   UNL     1     -39.616  52.419 -51.564  1.00  0.00    -0.079 N 
HETATM   13  C   UNL     1     -39.555  50.939 -51.492  1.00  0.00     0.266 C 
HETATM   14  H   UNL     1     -38.718  52.788 -51.896  1.00  0.00     0.276 HD
HETATM   15  H   UNL     1     -40.321  52.674 -52.292  1.00  0.00     0.276 HD
ENDBRANCH  11  12
ENDBRANCH  10  11
ENDBRANCH   9  10
ENDBRANCH   1   9
BRANCH   5  16
HETATM   16  N   UNL     1     -43.491  55.464 -55.590  1.00  0.00    -0.306 N 
HETATM   17  C   UNL     1     -42.943  56.548 -56.257  1.00  0.00     0.259 C 
HETATM   18  O   UNL     1     -42.333  57.438 -55.661  1.00  0.00    -0.267 OA
HETATM   19  H   UNL     1     -43.993  54.757 -56.122  1.00  0.00     0.170 HD
BRANCH  17  20
HETATM   20  C   UNL     1     -43.120  56.595 -57.711  1.00  0.00     0.063 A 
HETATM   21  C   UNL     1     -42.665  57.546 -58.606  1.00  0.00     0.091 A 
HETATM   22 CL   UNL     1     -41.750  58.978 -58.302  1.00  0.00    -0.075 Cl
HETATM   23  S   UNL     1     -43.091  57.244 -60.225  1.00  0.00    -0.065 SA
HETATM   24  C   UNL     1     -43.906  55.834 -59.784  1.00  0.00     0.077 A 
HETATM   25 CL   UNL     1     -44.681  54.881 -60.979  1.00  0.00    -0.076 Cl
HETATM   26  C   UNL     1     -43.862  55.586 -58.437  1.00  0.00     0.050 A 
ENDBRANCH  17  20
ENDBRANCH   5  16
TORSDOF 6
ENDMDL
MODEL 10
REMARK VINA RESULT:      -6.2      2.074      2.161
REMARK  6 active torsions:
REMARK  status: ('A' for Active; 'I' for Inactive)
REMARK    1  A    between atoms: N_2  and  C_5 
REMARK    2  A    between atoms: C_5  and  C_6 
REMARK    3  A    between atoms: C_6  and  C_7 
REMARK    4  A    between atoms: C_7  and  C_8 
REMARK    5  A    between atoms: C_12  and  N_13 
REMARK       I    between atoms: N_13  and  C_14 
REMARK    6  A    between atoms: C_14  and  C_15 
ROOT
HETATM    1  C   UNL     1     -42.198  58.444 -55.195  1.00  0.00     0.079 A 
HETATM    2  N   UNL     1     -41.547  58.863 -54.094  1.00  0.00    -0.176 NA
HETATM    3  N   UNL     1     -40.921  57.739 -53.659  1.00  0.00    -0.261 N 
HETATM    4  H   UNL     1     -40.314  57.771 -52.840  1.00  0.00     0.191 HD
HETATM    5  C   UNL     1     -41.209  56.620 -54.402  1.00  0.00     0.147 A 
HETATM    6  C   UNL     1     -42.029  57.055 -55.418  1.00  0.00     0.116 A 
HETATM    7  C   UNL     1     -42.588  56.266 -56.464  1.00  0.00     0.105 C 
HETATM    8  N   UNL     1     -43.064  55.631 -57.309  1.00  0.00    -0.191 NA
ENDROOT
BRANCH   1   9
HETATM    9  C   UNL     1     -42.974  59.435 -55.999  1.00  0.00     0.064 C 
BRANCH   9  10
HETATM   10  C   UNL     1     -42.262  59.904 -57.273  1.00  0.00     0.033 C 
BRANCH  10  11
HETATM   11  C   UNL     1     -43.055  59.853 -58.581  1.00  0.00     0.232 C 
BRANCH  11  12
HETATM   12  N   UNL     1     -43.730  58.540 -58.770  1.00  0.00    -0.079 N 
HETATM   13  C   UNL     1     -43.637  57.986 -60.143  1.00  0.00     0.266 C 
HETATM   14  H   UNL     1     -44.713  58.576 -58.476  1.00  0.00     0.276 HD
HETATM   15  H   UNL     1     -43.257  57.870 -58.123  1.00  0.00     0.276 HD
ENDBRANCH  11  12
ENDBRANCH  10  11
ENDBRANCH   9  10
ENDBRANCH   1   9
BRANCH   5  16
HETATM   16  N   UNL     1     -40.720  55.355 -54.111  1.00  0.00    -0.306 N 
HETATM   17  C   UNL     1     -41.107  54.660 -52.977  1.00  0.00     0.259 C 
HETATM   18  O   UNL     1     -41.894  55.136 -52.157  1.00  0.00    -0.267 OA
HETATM   19  H   UNL     1     -40.062  54.925 -54.757  1.00  0.00     0.170 HD
BRANCH  17  20
HETATM   20  C   UNL     1     -40.536  53.323 -52.788  1.00  0.00     0.063 A 
HETATM   21  C   UNL     1     -40.061  52.743 -51.626  1.00  0.00     0.091 A 
HETATM   22 CL   UNL     1     -39.982  53.403 -50.033  1.00  0.00    -0.075 Cl
HETATM   23  S   UNL     1     -39.466  51.162 -51.826  1.00  0.00    -0.065 SA
HETATM   24  C   UNL     1     -39.816  51.201 -53.475  1.00  0.00     0.077 A 
HETATM   25 CL   UNL     1     -39.465  49.843 -54.460  1.00  0.00    -0.076 Cl
HETATM   26  C   UNL     1     -40.375  52.385 -53.879  1.00  0.00     0.050 A 
ENDBRANCH  17  20
ENDBRANCH   5  16
TORSDOF 6
ENDMDL
