MODEL 1
REMARK VINA RESULT:      -8.3      0.000      0.000
REMARK  3 active torsions:
REMARK  status: ('A' for Active; 'I' for Inactive)
REMARK    1  A    between atoms: C_6  and  N_7 
REMARK       I    between atoms: N_7  and  C_8 
REMARK    2  A    between atoms: C_8  and  C_9 
REMARK    3  A    between atoms: C_9  and  C_10 
ROOT
HETATM    1  C   UNL     1     -43.117  56.125 -56.304  1.00  0.00     0.286 C 
HETATM    2  N   UNL     1     -43.589  55.051 -57.297  1.00  0.00    -0.056 N 
HETATM    3  H   UNL     1     -42.854  54.321 -57.364  1.00  0.00     0.278 HD
HETATM    4  H   UNL     1     -44.430  54.588 -56.931  1.00  0.00     0.278 HD
HETATM    5  C   UNL     1     -43.812  55.533 -58.708  1.00  0.00     0.209 C 
HETATM    6  C   UNL     1     -44.641  56.832 -58.682  1.00  0.00     0.115 C 
HETATM    7  N   UNL     1     -43.953  57.851 -57.907  1.00  0.00    -0.353 N 
HETATM    8  C   UNL     1     -43.229  57.591 -56.776  1.00  0.00     0.249 C 
HETATM    9  O   UNL     1     -42.698  58.511 -56.159  1.00  0.00    -0.271 OA
HETATM   10  C   UNL     1     -44.496  54.436 -59.514  1.00  0.00     0.035 C 
HETATM   11  C   UNL     1     -44.767  54.916 -60.940  1.00  0.00     0.002 C 
HETATM   12  C   UNL     1     -45.562  56.221 -60.958  1.00  0.00     0.002 C 
HETATM   13  C   UNL     1     -44.907  57.311 -60.111  1.00  0.00     0.027 C 
HETATM   14  H   UNL     1     -44.072  58.838 -58.130  1.00  0.00     0.163 HD
ENDROOT
BRANCH   1  15
HETATM   15  C   UNL     1     -41.700  55.836 -55.795  1.00  0.00     0.146 C 
BRANCH  15  16
HETATM   16  C   UNL     1     -41.788  54.740 -54.765  1.00  0.00     0.224 C 
HETATM   17  N   UNL     1     -40.581  54.358 -54.232  1.00  0.00    -0.327 N 
HETATM   18  H   UNL     1     -39.781  54.961 -54.402  1.00  0.00     0.169 HD
HETATM   19  O   UNL     1     -42.891  54.222 -54.590  1.00  0.00    -0.273 OA
BRANCH  17  20
HETATM   20  C   UNL     1     -40.315  53.223 -53.425  1.00  0.00     0.040 A 
HETATM   21  C   UNL     1     -40.426  53.342 -52.023  1.00  0.00    -0.035 A 
HETATM   22  C   UNL     1     -40.131  52.231 -51.208  1.00  0.00     0.015 A 
HETATM   23  C   UNL     1     -40.868  54.615 -51.348  1.00  0.00     0.050 C 
HETATM   24  C   UNL     1     -39.718  51.015 -51.757  1.00  0.00    -0.061 A 
HETATM   25  C   UNL     1     -39.439  49.828 -50.883  1.00  0.00     0.048 C 
HETATM   26  C   UNL     1     -39.620  50.904 -53.144  1.00  0.00     0.009 A 
HETATM   27  C   UNL     1     -39.914  51.996 -53.967  1.00  0.00     0.030 A 
ENDBRANCH  17  20
ENDBRANCH  15  16
ENDBRANCH   1  15
TORSDOF 3
ENDMDL
MODEL 2
REMARK VINA RESULT:      -8.2      2.700      3.621
REMARK  3 active torsions:
REMARK  status: ('A' for Active; 'I' for Inactive)
REMARK    1  A    between atoms: C_6  and  N_7 
REMARK       I    between atoms: N_7  and  C_8 
REMARK    2  A    between atoms: C_8  and  C_9 
REMARK    3  A    between atoms: C_9  and  C_10 
ROOT
HETATM    1  C   UNL     1     -43.632  56.924 -52.110  1.00  0.00     0.286 C 
HETATM    2  N   UNL     1     -43.835  55.924 -53.259  1.00  0.00    -0.056 N 
HETATM    3  H   UNL     1     -43.523  54.987 -52.938  1.00  0.00     0.278 HD
HETATM    4  H   UNL     1     -44.837  55.842 -53.474  1.00  0.00     0.278 HD
HETATM    5  C   UNL     1     -43.039  56.210 -54.508  1.00  0.00     0.209 C 
HETATM    6  C   UNL     1     -43.185  57.697 -54.881  1.00  0.00     0.115 C 
HETATM    7  N   UNL     1     -42.722  58.537 -53.789  1.00  0.00    -0.353 N 
HETATM    8  C   UNL     1     -42.906  58.240 -52.466  1.00  0.00     0.249 C 
HETATM    9  O   UNL     1     -42.509  59.014 -51.600  1.00  0.00    -0.271 OA
HETATM   10  C   UNL     1     -43.512  55.291 -55.628  1.00  0.00     0.035 C 
HETATM   11  C   UNL     1     -42.745  55.588 -56.917  1.00  0.00     0.002 C 
HETATM   12  C   UNL     1     -42.840  57.063 -57.306  1.00  0.00     0.002 C 
HETATM   13  C   UNL     1     -42.413  57.992 -56.170  1.00  0.00     0.027 C 
HETATM   14  H   UNL     1     -42.318  59.453 -53.977  1.00  0.00     0.163 HD
ENDROOT
BRANCH   1  15
HETATM   15  C   UNL     1     -42.967  56.261 -50.898  1.00  0.00     0.146 C 
BRANCH  15  16
HETATM   16  C   UNL     1     -42.649  54.834 -51.262  1.00  0.00     0.224 C 
HETATM   17  N   UNL     1     -41.388  54.642 -51.772  1.00  0.00    -0.327 N 
HETATM   18  H   UNL     1     -40.720  55.401 -51.669  1.00  0.00     0.169 HD
HETATM   19  O   UNL     1     -43.565  54.016 -51.179  1.00  0.00    -0.273 OA
BRANCH  17  20
HETATM   20  C   UNL     1     -40.881  53.478 -52.404  1.00  0.00     0.040 A 
HETATM   21  C   UNL     1     -40.264  52.487 -51.611  1.00  0.00    -0.035 A 
HETATM   22  C   UNL     1     -39.725  51.341 -52.231  1.00  0.00     0.015 A 
HETATM   23  C   UNL     1     -40.167  52.589 -50.111  1.00  0.00     0.050 C 
HETATM   24  C   UNL     1     -39.777  51.171 -53.617  1.00  0.00    -0.061 A 
HETATM   25  C   UNL     1     -39.232  49.931 -54.263  1.00  0.00     0.048 C 
HETATM   26  C   UNL     1     -40.398  52.151 -54.390  1.00  0.00     0.009 A 
HETATM   27  C   UNL     1     -40.942  53.292 -53.790  1.00  0.00     0.030 A 
ENDBRANCH  17  20
ENDBRANCH  15  16
ENDBRANCH   1  15
TORSDOF 3
ENDMDL
MODEL 3
REMARK VINA RESULT:      -8.1      1.570      1.840
REMARK  3 active torsions:
REMARK  status: ('A' for Active; 'I' for Inactive)
REMARK    1  A    between atoms: C_6  and  N_7 
REMARK       I    between atoms: N_7  and  C_8 
REMARK    2  A    between atoms: C_8  and  C_9 
REMARK    3  A    between atoms: C_9  and  C_10 
ROOT
HETATM    1  C   UNL     1     -43.674  56.998 -54.575  1.00  0.00     0.286 C 
HETATM    2  N   UNL     1     -43.490  55.959 -55.692  1.00  0.00    -0.056 N 
HETATM    3  H   UNL     1     -42.710  55.327 -55.426  1.00  0.00     0.278 HD
HETATM    4  H   UNL     1     -44.331  55.373 -55.763  1.00  0.00     0.278 HD
HETATM    5  C   UNL     1     -43.113  56.523 -57.039  1.00  0.00     0.209 C 
HETATM    6  C   UNL     1     -44.036  57.710 -57.375  1.00  0.00     0.115 C 
HETATM    7  N   UNL     1     -43.926  58.737 -56.353  1.00  0.00    -0.353 N 
HETATM    8  C   UNL     1     -43.764  58.474 -55.020  1.00  0.00     0.249 C 
HETATM    9  O   UNL     1     -43.706  59.397 -54.212  1.00  0.00    -0.271 OA
HETATM   10  C   UNL     1     -43.196  55.421 -58.088  1.00  0.00     0.035 C 
HETATM   11  C   UNL     1     -42.855  55.978 -59.470  1.00  0.00     0.002 C 
HETATM   12  C   UNL     1     -43.729  57.178 -59.830  1.00  0.00     0.002 C 
HETATM   13  C   UNL     1     -43.689  58.267 -58.758  1.00  0.00     0.027 C 
HETATM   14  H   UNL     1     -44.067  59.718 -56.589  1.00  0.00     0.163 HD
ENDROOT
BRANCH   1  15
HETATM   15  C   UNL     1     -42.618  56.837 -53.476  1.00  0.00     0.146 C 
BRANCH  15  16
HETATM   16  C   UNL     1     -42.468  55.366 -53.184  1.00  0.00     0.224 C 
HETATM   17  N   UNL     1     -41.174  54.908 -53.212  1.00  0.00    -0.327 N 
HETATM   18  H   UNL     1     -40.430  55.600 -53.212  1.00  0.00     0.169 HD
HETATM   19  O   UNL     1     -43.503  54.709 -53.068  1.00  0.00    -0.273 OA
BRANCH  17  20
HETATM   20  C   UNL     1     -40.736  53.559 -53.201  1.00  0.00     0.040 A 
HETATM   21  C   UNL     1     -40.206  53.023 -52.007  1.00  0.00    -0.035 A 
HETATM   22  C   UNL     1     -39.736  51.695 -51.993  1.00  0.00     0.015 A 
HETATM   23  C   UNL     1     -40.134  53.811 -50.725  1.00  0.00     0.050 C 
HETATM   24  C   UNL     1     -39.772  50.898 -53.141  1.00  0.00    -0.061 A 
HETATM   25  C   UNL     1     -39.301  49.474 -53.106  1.00  0.00     0.048 C 
HETATM   26  C   UNL     1     -40.306  51.433 -54.312  1.00  0.00     0.009 A 
HETATM   27  C   UNL     1     -40.781  52.748 -54.342  1.00  0.00     0.030 A 
ENDBRANCH  17  20
ENDBRANCH  15  16
ENDBRANCH   1  15
TORSDOF 3
ENDMDL
MODEL 4
REMARK VINA RESULT:      -8.1      3.635      8.186
REMARK  3 active torsions:
REMARK  status: ('A' for Active; 'I' for Inactive)
REMARK    1  A    between atoms: C_6  and  N_7 
REMARK       I    between atoms: N_7  and  C_8 
REMARK    2  A    between atoms: C_8  and  C_9 
REMARK    3  A    between atoms: C_9  and  C_10 
ROOT
HETATM    1  C   UNL     1     -41.034  54.840 -50.471  1.00  0.00     0.286 C 
HETATM    2  N   UNL     1     -40.908  54.620 -51.987  1.00  0.00    -0.056 N 
HETATM    3  H   UNL     1     -41.761  54.996 -52.445  1.00  0.00     0.278 HD
HETATM    4  H   UNL     1     -40.116  55.163 -52.352  1.00  0.00     0.278 HD
HETATM    5  C   UNL     1     -40.817  53.179 -52.422  1.00  0.00     0.209 C 
HETATM    6  C   UNL     1     -39.781  52.443 -51.551  1.00  0.00     0.115 C 
HETATM    7  N   UNL     1     -40.158  52.521 -50.149  1.00  0.00    -0.353 N 
HETATM    8  C   UNL     1     -40.740  53.618 -49.575  1.00  0.00     0.249 C 
HETATM    9  O   UNL     1     -41.005  53.618 -48.375  1.00  0.00    -0.271 OA
HETATM   10  C   UNL     1     -40.462  53.120 -53.903  1.00  0.00     0.035 C 
HETATM   11  C   UNL     1     -40.327  51.668 -54.359  1.00  0.00     0.002 C 
HETATM   12  C   UNL     1     -39.329  50.893 -53.499  1.00  0.00     0.002 C 
HETATM   13  C   UNL     1     -39.651  50.988 -52.008  1.00  0.00     0.027 C 
HETATM   14  H   UNL     1     -39.904  51.775 -49.504  1.00  0.00     0.163 HD
ENDROOT
BRANCH   1  15
HETATM   15  C   UNL     1     -42.387  55.458 -50.103  1.00  0.00     0.146 C 
BRANCH  15  16
HETATM   16  C   UNL     1     -42.658  56.593 -51.056  1.00  0.00     0.224 C 
HETATM   17  N   UNL     1     -43.862  56.513 -51.712  1.00  0.00    -0.327 N 
HETATM   18  H   UNL     1     -44.543  55.844 -51.364  1.00  0.00     0.169 HD
HETATM   19  O   UNL     1     -41.748  57.401 -51.239  1.00  0.00    -0.273 OA
BRANCH  17  20
HETATM   20  C   UNL     1     -44.297  57.291 -52.815  1.00  0.00     0.040 A 
HETATM   21  C   UNL     1     -44.227  56.735 -54.111  1.00  0.00    -0.035 A 
HETATM   22  C   UNL     1     -44.624  57.510 -55.219  1.00  0.00     0.015 A 
HETATM   23  C   UNL     1     -43.757  55.327 -54.367  1.00  0.00     0.050 C 
HETATM   24  C   UNL     1     -45.074  58.824 -55.064  1.00  0.00    -0.061 A 
HETATM   25  C   UNL     1     -45.527  59.629 -56.247  1.00  0.00     0.048 C 
HETATM   26  C   UNL     1     -45.149  59.360 -53.780  1.00  0.00     0.009 A 
HETATM   27  C   UNL     1     -44.764  58.603 -52.669  1.00  0.00     0.030 A 
ENDBRANCH  17  20
ENDBRANCH  15  16
ENDBRANCH   1  15
TORSDOF 3
ENDMDL
MODEL 5
REMARK VINA RESULT:      -8.0      4.239      5.477
REMARK  3 active torsions:
REMARK  status: ('A' for Active; 'I' for Inactive)
REMARK    1  A    between atoms: C_6  and  N_7 
REMARK       I    between atoms: N_7  and  C_8 
REMARK    2  A    between atoms: C_8  and  C_9 
REMARK    3  A    between atoms: C_9  and  C_10 
ROOT
HETATM    1  C   UNL     1     -43.015  56.993 -51.812  1.00  0.00     0.286 C 
HETATM    2  N   UNL     1     -42.291  58.057 -52.653  1.00  0.00    -0.056 N 
HETATM    3  H   UNL     1     -41.333  58.182 -52.271  1.00  0.00     0.278 HD
HETATM    4  H   UNL     1     -42.179  57.719 -53.618  1.00  0.00     0.278 HD
HETATM    5  C   UNL     1     -42.918  59.428 -52.634  1.00  0.00     0.209 C 
HETATM    6  C   UNL     1     -44.434  59.303 -52.874  1.00  0.00     0.115 C 
HETATM    7  N   UNL     1     -45.037  58.462 -51.854  1.00  0.00    -0.353 N 
HETATM    8  C   UNL     1     -44.432  57.358 -51.318  1.00  0.00     0.249 C 
HETATM    9  O   UNL     1     -45.017  56.681 -50.478  1.00  0.00    -0.271 OA
HETATM   10  C   UNL     1     -42.244  60.306 -53.682  1.00  0.00     0.035 C 
HETATM   11  C   UNL     1     -42.888  61.691 -53.707  1.00  0.00     0.002 C 
HETATM   12  C   UNL     1     -44.401  61.610 -53.914  1.00  0.00     0.002 C 
HETATM   13  C   UNL     1     -45.077  60.692 -52.895  1.00  0.00     0.027 C 
HETATM   14  H   UNL     1     -46.002  58.613 -51.562  1.00  0.00     0.163 HD
ENDROOT
BRANCH   1  15
HETATM   15  C   UNL     1     -42.148  56.516 -50.641  1.00  0.00     0.146 C 
BRANCH  15  16
HETATM   16  C   UNL     1     -41.810  55.066 -50.870  1.00  0.00     0.224 C 
HETATM   17  N   UNL     1     -40.863  54.846 -51.840  1.00  0.00    -0.327 N 
HETATM   18  H   UNL     1     -40.329  55.647 -52.164  1.00  0.00     0.169 HD
HETATM   19  O   UNL     1     -42.482  54.231 -50.263  1.00  0.00    -0.273 OA
BRANCH  17  20
HETATM   20  C   UNL     1     -40.505  53.608 -52.430  1.00  0.00     0.040 A 
HETATM   21  C   UNL     1     -40.890  53.352 -53.764  1.00  0.00    -0.035 A 
HETATM   22  C   UNL     1     -40.569  52.112 -54.352  1.00  0.00     0.015 A 
HETATM   23  C   UNL     1     -41.622  54.364 -54.607  1.00  0.00     0.050 C 
HETATM   24  C   UNL     1     -39.889  51.122 -53.638  1.00  0.00    -0.061 A 
HETATM   25  C   UNL     1     -39.523  49.818 -54.283  1.00  0.00     0.048 C 
HETATM   26  C   UNL     1     -39.505  51.388 -52.324  1.00  0.00     0.009 A 
HETATM   27  C   UNL     1     -39.811  52.616 -51.728  1.00  0.00     0.030 A 
ENDBRANCH  17  20
ENDBRANCH  15  16
ENDBRANCH   1  15
TORSDOF 3
ENDMDL
MODEL 6
REMARK VINA RESULT:      -7.9      2.156      7.840
REMARK  3 active torsions:
REMARK  status: ('A' for Active; 'I' for Inactive)
REMARK    1  A    between atoms: C_6  and  N_7 
REMARK       I    between atoms: N_7  and  C_8 
REMARK    2  A    between atoms: C_8  and  C_9 
REMARK    3  A    between atoms: C_9  and  C_10 
ROOT
HETATM    1  C   UNL     1     -40.682  54.395 -51.638  1.00  0.00     0.286 C 
HETATM    2  N   UNL     1     -40.440  53.699 -52.987  1.00  0.00    -0.056 N 
HETATM    3  H   UNL     1     -41.172  54.012 -53.654  1.00  0.00     0.278 HD
HETATM    4  H   UNL     1     -39.539  54.003 -53.377  1.00  0.00     0.278 HD
HETATM    5  C   UNL     1     -40.534  52.194 -52.960  1.00  0.00     0.209 C 
HETATM    6  C   UNL     1     -39.719  51.650 -51.771  1.00  0.00     0.115 C 
HETATM    7  N   UNL     1     -40.218  52.206 -50.524  1.00  0.00    -0.353 N 
HETATM    8  C   UNL     1     -40.676  53.488 -50.388  1.00  0.00     0.249 C 
HETATM    9  O   UNL     1     -41.057  53.894 -49.294  1.00  0.00    -0.271 OA
HETATM   10  C   UNL     1     -40.045  51.634 -54.291  1.00  0.00     0.035 C 
HETATM   11  C   UNL     1     -40.095  50.107 -54.273  1.00  0.00     0.002 C 
HETATM   12  C   UNL     1     -39.322  49.527 -53.089  1.00  0.00     0.002 C 
HETATM   13  C   UNL     1     -39.774  50.120 -51.755  1.00  0.00     0.027 C 
HETATM   14  H   UNL     1     -40.151  51.674 -49.658  1.00  0.00     0.163 HD
ENDROOT
BRANCH   1  15
HETATM   15  C   UNL     1     -41.951  55.254 -51.668  1.00  0.00     0.146 C 
BRANCH  15  16
HETATM   16  C   UNL     1     -41.972  56.013 -52.968  1.00  0.00     0.224 C 
HETATM   17  N   UNL     1     -43.060  55.754 -53.764  1.00  0.00    -0.327 N 
HETATM   18  H   UNL     1     -43.842  55.259 -53.344  1.00  0.00     0.169 HD
HETATM   19  O   UNL     1     -40.979  56.689 -53.239  1.00  0.00    -0.273 OA
BRANCH  17  20
HETATM   20  C   UNL     1     -43.249  56.133 -55.118  1.00  0.00     0.040 A 
HETATM   21  C   UNL     1     -44.014  57.284 -55.403  1.00  0.00    -0.035 A 
HETATM   22  C   UNL     1     -44.238  57.652 -56.745  1.00  0.00     0.015 A 
HETATM   23  C   UNL     1     -44.598  58.160 -54.325  1.00  0.00     0.050 C 
HETATM   24  C   UNL     1     -43.728  56.893 -57.802  1.00  0.00    -0.061 A 
HETATM   25  C   UNL     1     -43.942  57.312 -59.227  1.00  0.00     0.048 C 
HETATM   26  C   UNL     1     -42.965  55.763 -57.510  1.00  0.00     0.009 A 
HETATM   27  C   UNL     1     -42.730  55.387 -56.184  1.00  0.00     0.030 A 
ENDBRANCH  17  20
ENDBRANCH  15  16
ENDBRANCH   1  15
TORSDOF 3
ENDMDL
MODEL 7
REMARK VINA RESULT:      -7.9      1.541      2.190
REMARK  3 active torsions:
REMARK  status: ('A' for Active; 'I' for Inactive)
REMARK    1  A    between atoms: C_6  and  N_7 
REMARK       I    between atoms: N_7  and  C_8 
REMARK    2  A    between atoms: C_8  and  C_9 
REMARK    3  A    between atoms: C_9  and  C_10 
ROOT
HETATM    1  C   UNL     1     -43.630  57.490 -54.859  1.00  0.00     0.286 C 
HETATM    2  N   UNL     1     -43.443  56.317 -55.834  1.00  0.00    -0.056 N 
HETATM    3  H   UNL     1     -42.653  55.733 -55.497  1.00  0.00     0.278 HD
HETATM    4  H   UNL     1     -44.278  55.717 -55.818  1.00  0.00     0.278 HD
HETATM    5  C   UNL     1     -43.088  56.705 -57.247  1.00  0.00     0.209 C 
HETATM    6  C   UNL     1     -44.029  57.828 -57.724  1.00  0.00     0.115 C 
HETATM    7  N   UNL     1     -43.921  58.980 -56.845  1.00  0.00    -0.353 N 
HETATM    8  C   UNL     1     -43.743  58.895 -55.491  1.00  0.00     0.249 C 
HETATM    9  O   UNL     1     -43.688  59.915 -54.811  1.00  0.00    -0.271 OA
HETATM   10  C   UNL     1     -43.167  55.475 -58.143  1.00  0.00     0.035 C 
HETATM   11  C   UNL     1     -42.847  55.851 -59.590  1.00  0.00     0.002 C 
HETATM   12  C   UNL     1     -43.740  56.985 -60.092  1.00  0.00     0.002 C 
HETATM   13  C   UNL     1     -43.703  58.205 -59.171  1.00  0.00     0.027 C 
HETATM   14  H   UNL     1     -44.077  59.921 -57.204  1.00  0.00     0.163 HD
ENDROOT
BRANCH   1  15
HETATM   15  C   UNL     1     -42.561  57.484 -53.761  1.00  0.00     0.146 C 
BRANCH  15  16
HETATM   16  C   UNL     1     -42.432  56.076 -53.241  1.00  0.00     0.224 C 
HETATM   17  N   UNL     1     -41.140  55.627 -53.122  1.00  0.00    -0.327 N 
HETATM   18  H   UNL     1     -40.396  56.316 -53.183  1.00  0.00     0.169 HD
HETATM   19  O   UNL     1     -43.474  55.438 -53.087  1.00  0.00    -0.273 OA
BRANCH  17  20
HETATM   20  C   UNL     1     -40.708  54.298 -52.881  1.00  0.00     0.040 A 
HETATM   21  C   UNL     1     -40.386  53.476 -53.982  1.00  0.00    -0.035 A 
HETATM   22  C   UNL     1     -39.988  52.142 -53.758  1.00  0.00     0.015 A 
HETATM   23  C   UNL     1     -40.433  53.968 -55.406  1.00  0.00     0.050 C 
HETATM   24  C   UNL     1     -39.916  51.612 -52.468  1.00  0.00    -0.061 A 
HETATM   25  C   UNL     1     -39.458  50.201 -52.237  1.00  0.00     0.048 C 
HETATM   26  C   UNL     1     -40.227  52.435 -51.386  1.00  0.00     0.009 A 
HETATM   27  C   UNL     1     -40.619  53.761 -51.591  1.00  0.00     0.030 A 
ENDBRANCH  17  20
ENDBRANCH  15  16
ENDBRANCH   1  15
TORSDOF 3
ENDMDL
MODEL 8
REMARK VINA RESULT:      -7.7      1.869      8.475
REMARK  3 active torsions:
REMARK  status: ('A' for Active; 'I' for Inactive)
REMARK    1  A    between atoms: C_6  and  N_7 
REMARK       I    between atoms: N_7  and  C_8 
REMARK    2  A    between atoms: C_8  and  C_9 
REMARK    3  A    between atoms: C_9  and  C_10 
ROOT
HETATM    1  C   UNL     1     -41.623  53.859 -53.958  1.00  0.00     0.286 C 
HETATM    2  N   UNL     1     -42.175  54.740 -52.827  1.00  0.00    -0.056 N 
HETATM    3  H   UNL     1     -42.235  55.718 -53.172  1.00  0.00     0.278 HD
HETATM    4  H   UNL     1     -43.135  54.451 -52.599  1.00  0.00     0.278 HD
HETATM    5  C   UNL     1     -41.323  54.800 -51.584  1.00  0.00     0.209 C 
HETATM    6  C   UNL     1     -40.905  53.373 -51.179  1.00  0.00     0.115 C 
HETATM    7  N   UNL     1     -40.171  52.738 -52.260  1.00  0.00    -0.353 N 
HETATM    8  C   UNL     1     -40.460  52.914 -53.586  1.00  0.00     0.249 C 
HETATM    9  O   UNL     1     -39.810  52.321 -54.443  1.00  0.00    -0.271 OA
HETATM   10  C   UNL     1     -42.095  55.505 -50.476  1.00  0.00     0.035 C 
HETATM   11  C   UNL     1     -41.265  55.544 -49.193  1.00  0.00     0.002 C 
HETATM   12  C   UNL     1     -40.805  54.149 -48.772  1.00  0.00     0.002 C 
HETATM   13  C   UNL     1     -40.071  53.417 -49.896  1.00  0.00     0.027 C 
HETATM   14  H   UNL     1     -39.455  52.041 -52.060  1.00  0.00     0.163 HD
ENDROOT
BRANCH   1  15
HETATM   15  C   UNL     1     -41.260  54.691 -55.193  1.00  0.00     0.146 C 
BRANCH  15  16
HETATM   16  C   UNL     1     -42.465  54.741 -56.095  1.00  0.00     0.224 C 
HETATM   17  N   UNL     1     -42.378  55.658 -57.114  1.00  0.00    -0.327 N 
HETATM   18  H   UNL     1     -41.466  56.062 -57.306  1.00  0.00     0.169 HD
HETATM   19  O   UNL     1     -43.436  54.056 -55.773  1.00  0.00    -0.273 OA
BRANCH  17  20
HETATM   20  C   UNL     1     -43.419  56.092 -57.975  1.00  0.00     0.040 A 
HETATM   21  C   UNL     1     -44.104  57.287 -57.667  1.00  0.00    -0.035 A 
HETATM   22  C   UNL     1     -45.163  57.712 -58.495  1.00  0.00     0.015 A 
HETATM   23  C   UNL     1     -43.741  58.151 -56.487  1.00  0.00     0.050 C 
HETATM   24  C   UNL     1     -45.557  56.967 -59.610  1.00  0.00    -0.061 A 
HETATM   25  C   UNL     1     -46.663  57.445 -60.505  1.00  0.00     0.048 C 
HETATM   26  C   UNL     1     -44.868  55.794 -59.911  1.00  0.00     0.009 A 
HETATM   27  C   UNL     1     -43.812  55.361 -59.102  1.00  0.00     0.030 A 
ENDBRANCH  17  20
ENDBRANCH  15  16
ENDBRANCH   1  15
TORSDOF 3
ENDMDL
MODEL 9
REMARK VINA RESULT:      -7.6      3.427      4.537
REMARK  3 active torsions:
REMARK  status: ('A' for Active; 'I' for Inactive)
REMARK    1  A    between atoms: C_6  and  N_7 
REMARK       I    between atoms: N_7  and  C_8 
REMARK    2  A    between atoms: C_8  and  C_9 
REMARK    3  A    between atoms: C_9  and  C_10 
ROOT
HETATM    1  C   UNL     1     -42.499  57.650 -51.577  1.00  0.00     0.286 C 
HETATM    2  N   UNL     1     -42.703  57.130 -53.009  1.00  0.00    -0.056 N 
HETATM    3  H   UNL     1     -42.112  56.286 -53.138  1.00  0.00     0.278 HD
HETATM    4  H   UNL     1     -43.677  56.827 -53.132  1.00  0.00     0.278 HD
HETATM    5  C   UNL     1     -42.294  58.083 -54.104  1.00  0.00     0.209 C 
HETATM    6  C   UNL     1     -42.873  59.480 -53.811  1.00  0.00     0.115 C 
HETATM    7  N   UNL     1     -42.398  59.961 -52.525  1.00  0.00    -0.353 N 
HETATM    8  C   UNL     1     -42.209  59.160 -51.432  1.00  0.00     0.249 C 
HETATM    9  O   UNL     1     -41.830  59.645 -50.369  1.00  0.00    -0.271 OA
HETATM   10  C   UNL     1     -42.766  57.539 -55.447  1.00  0.00     0.035 C 
HETATM   11  C   UNL     1     -42.396  58.508 -56.570  1.00  0.00     0.002 C 
HETATM   12  C   UNL     1     -42.927  59.916 -56.303  1.00  0.00     0.002 C 
HETATM   13  C   UNL     1     -42.497  60.448 -54.936  1.00  0.00     0.027 C 
HETATM   14  H   UNL     1     -42.278  60.959 -52.358  1.00  0.00     0.163 HD
ENDROOT
BRANCH   1  15
HETATM   15  C   UNL     1     -41.445  56.830 -50.825  1.00  0.00     0.146 C 
BRANCH  15  16
HETATM   16  C   UNL     1     -41.570  55.394 -51.262  1.00  0.00     0.224 C 
HETATM   17  N   UNL     1     -40.400  54.829 -51.708  1.00  0.00    -0.327 N 
HETATM   18  H   UNL     1     -39.536  55.326 -51.517  1.00  0.00     0.169 HD
HETATM   19  O   UNL     1     -42.703  54.912 -51.288  1.00  0.00    -0.273 OA
BRANCH  17  20
HETATM   20  C   UNL     1     -40.243  53.592 -52.384  1.00  0.00     0.040 A 
HETATM   21  C   UNL     1     -40.334  53.568 -53.793  1.00  0.00    -0.035 A 
HETATM   22  C   UNL     1     -40.214  52.340 -54.474  1.00  0.00     0.015 A 
HETATM   23  C   UNL     1     -40.541  54.814 -54.614  1.00  0.00     0.050 C 
HETATM   24  C   UNL     1     -40.018  51.141 -53.784  1.00  0.00    -0.061 A 
HETATM   25  C   UNL     1     -39.857  49.844 -54.521  1.00  0.00     0.048 C 
HETATM   26  C   UNL     1     -39.920  51.176 -52.394  1.00  0.00     0.009 A 
HETATM   27  C   UNL     1     -40.032  52.387 -51.702  1.00  0.00     0.030 A 
ENDBRANCH  17  20
ENDBRANCH  15  16
ENDBRANCH   1  15
TORSDOF 3
ENDMDL
MODEL 10
REMARK VINA RESULT:      -7.6      4.116      5.817
REMARK  3 active torsions:
REMARK  status: ('A' for Active; 'I' for Inactive)
REMARK    1  A    between atoms: C_6  and  N_7 
REMARK       I    between atoms: N_7  and  C_8 
REMARK    2  A    between atoms: C_8  and  C_9 
REMARK    3  A    between atoms: C_9  and  C_10 
ROOT
HETATM    1  C   UNL     1     -41.756  57.608 -52.611  1.00  0.00     0.286 C 
HETATM    2  N   UNL     1     -43.177  57.646 -52.027  1.00  0.00    -0.056 N 
HETATM    3  H   UNL     1     -43.824  57.204 -52.709  1.00  0.00     0.278 HD
HETATM    4  H   UNL     1     -43.216  57.074 -51.174  1.00  0.00     0.278 HD
HETATM    5  C   UNL     1     -43.733  59.025 -51.776  1.00  0.00     0.209 C 
HETATM    6  C   UNL     1     -42.682  59.875 -51.036  1.00  0.00     0.115 C 
HETATM    7  N   UNL     1     -41.462  59.961 -51.821  1.00  0.00    -0.353 N 
HETATM    8  C   UNL     1     -40.965  58.934 -52.575  1.00  0.00     0.249 C 
HETATM    9  O   UNL     1     -39.912  59.075 -53.191  1.00  0.00    -0.271 OA
HETATM   10  C   UNL     1     -45.032  58.909 -50.987  1.00  0.00     0.035 C 
HETATM   11  C   UNL     1     -45.595  60.298 -50.688  1.00  0.00     0.002 C 
HETATM   12  C   UNL     1     -44.571  61.185 -49.979  1.00  0.00     0.002 C 
HETATM   13  C   UNL     1     -43.248  61.266 -50.741  1.00  0.00     0.027 C 
HETATM   14  H   UNL     1     -40.864  60.784 -51.759  1.00  0.00     0.163 HD
ENDROOT
BRANCH   1  15
HETATM   15  C   UNL     1     -41.745  57.019 -54.026  1.00  0.00     0.146 C 
BRANCH  15  16
HETATM   16  C   UNL     1     -41.054  55.681 -53.971  1.00  0.00     0.224 C 
HETATM   17  N   UNL     1     -41.538  54.827 -53.011  1.00  0.00    -0.327 N 
HETATM   18  H   UNL     1     -42.425  55.064 -52.576  1.00  0.00     0.169 HD
HETATM   19  O   UNL     1     -40.068  55.529 -54.693  1.00  0.00    -0.273 OA
BRANCH  17  20
HETATM   20  C   UNL     1     -40.961  53.609 -52.569  1.00  0.00     0.040 A 
HETATM   21  C   UNL     1     -40.889  53.352 -51.183  1.00  0.00    -0.035 A 
HETATM   22  C   UNL     1     -40.288  52.161 -50.730  1.00  0.00     0.015 A 
HETATM   23  C   UNL     1     -41.448  54.298 -50.151  1.00  0.00     0.050 C 
HETATM   24  C   UNL     1     -39.749  51.233 -51.624  1.00  0.00    -0.061 A 
HETATM   25  C   UNL     1     -39.141  49.951 -51.133  1.00  0.00     0.048 C 
HETATM   26  C   UNL     1     -39.834  51.491 -52.991  1.00  0.00     0.009 A 
HETATM   27  C   UNL     1     -40.432  52.666 -53.458  1.00  0.00     0.030 A 
ENDBRANCH  17  20
ENDBRANCH  15  16
ENDBRANCH   1  15
TORSDOF 3
ENDMDL
