MODEL 1
REMARK VINA RESULT:      -7.6      0.000      0.000
REMARK  8 active torsions:
REMARK  status: ('A' for Active; 'I' for Inactive)
REMARK    1  A    between atoms: C_2  and  O_3 
REMARK    2  A    between atoms: O_3  and  C_4 
REMARK       I    between atoms: C_4  and  N_5 
REMARK    3  A    between atoms: C_8  and  N_9 
REMARK       I    between atoms: N_9  and  C_10 
REMARK    4  A    between atoms: C_10  and  C_11 
REMARK    5  A    between atoms: C_12  and  C_13 
REMARK    6  A    between atoms: N_18  and  C_19 
REMARK    7  A    between atoms: C_19  and  C_20 
REMARK    8  A    between atoms: C_20  and  O_21 
ROOT
HETATM    1  C   UNL     1     -44.631  58.682 -52.029  1.00  0.00     0.139 C 
HETATM    2  C   UNL     1     -43.612  59.504 -51.214  1.00  0.00     0.145 C 
HETATM    3  N   UNL     1     -43.933  60.927 -51.389  1.00  0.00    -0.335 N 
HETATM    4  C   UNL     1     -44.232  61.431 -52.654  1.00  0.00     0.255 C 
HETATM    5  O   UNL     1     -44.507  62.608 -52.862  1.00  0.00    -0.267 OA
HETATM    6  C   UNL     1     -44.306  60.441 -53.774  1.00  0.00     0.039 A 
HETATM    7  C   UNL     1     -44.532  59.072 -53.494  1.00  0.00    -0.027 A 
HETATM    8  C   UNL     1     -44.226  60.897 -55.092  1.00  0.00     0.017 A 
HETATM    9  C   UNL     1     -44.361  59.996 -56.145  1.00  0.00     0.001 A 
HETATM   10  C   UNL     1     -44.603  58.647 -55.881  1.00  0.00     0.001 A 
HETATM   11  C   UNL     1     -44.702  58.186 -54.564  1.00  0.00     0.009 A 
ENDROOT
BRANCH   1  12
HETATM   12  C   UNL     1     -44.551  57.225 -51.603  1.00  0.00     0.229 C 
HETATM   13  N   UNL     1     -43.897  56.438 -52.535  1.00  0.00    -0.356 N 
HETATM   14  H   UNL     1     -43.475  56.912 -53.331  1.00  0.00     0.162 HD
HETATM   15  O   UNL     1     -45.034  56.783 -50.569  1.00  0.00    -0.273 OA
BRANCH  13  16
HETATM   16  C   UNL     1     -43.762  54.983 -52.519  1.00  0.00     0.087 C 
HETATM   17  C   UNL     1     -43.253  54.372 -53.826  1.00  0.00     0.045 C 
HETATM   18  C   UNL     1     -41.746  54.141 -53.883  1.00  0.00     0.130 C 
HETATM   19  N   UNL     1     -41.235  53.544 -52.656  1.00  0.00    -0.328 N 
HETATM   20  C   UNL     1     -40.127  52.706 -52.653  1.00  0.00     0.362 C 
HETATM   21  C   UNL     1     -41.563  54.244 -51.424  1.00  0.00     0.130 C 
HETATM   22  O   UNL     1     -39.513  52.385 -51.642  1.00  0.00    -0.238 OA
HETATM   23  C   UNL     1     -43.063  54.442 -51.269  1.00  0.00     0.045 C 
BRANCH  20  24
HETATM   24  O   UNL     1     -39.807  52.259 -53.899  1.00  0.00    -0.304 OA
BRANCH  24  25
HETATM   25  C   UNL     1     -40.402  51.015 -54.293  1.00  0.00     0.176 C 
HETATM   26  C   UNL     1     -39.360  49.914 -54.329  1.00  0.00     0.034 C 
ENDBRANCH  24  25
ENDBRANCH  20  24
ENDBRANCH  13  16
ENDBRANCH   1  12
BRANCH   2  27
HETATM   27  C   UNL     1     -42.131  59.279 -51.526  1.00  0.00     0.006 A 
HETATM   28  S   UNL     1     -40.971  59.458 -50.256  1.00  0.00    -0.104 SA
HETATM   29  C   UNL     1     -39.665  59.076 -51.283  1.00  0.00     0.050 A 
HETATM   30  C   UNL     1     -40.083  58.778 -52.557  1.00  0.00     0.008 A 
HETATM   31  C   UNL     1     -41.498  58.886 -52.694  1.00  0.00     0.017 A 
ENDBRANCH   2  27
BRANCH   3  32
HETATM   32  C   UNL     1     -44.277  61.715 -50.203  1.00  0.00     0.153 C 
BRANCH  32  33
HETATM   33  C   UNL     1     -45.725  61.459 -49.746  1.00  0.00     0.187 C 
BRANCH  33  34
HETATM   34  O   UNL     1     -45.806  60.440 -48.730  1.00  0.00    -0.394 OA
HETATM   35  C   UNL     1     -45.546  60.955 -47.427  1.00  0.00     0.201 C 
ENDBRANCH  33  34
ENDBRANCH  32  33
ENDBRANCH   3  32
TORSDOF 8
ENDMDL
MODEL 2
REMARK VINA RESULT:      -7.4      3.378      5.723
REMARK  8 active torsions:
REMARK  status: ('A' for Active; 'I' for Inactive)
REMARK    1  A    between atoms: C_2  and  O_3 
REMARK    2  A    between atoms: O_3  and  C_4 
REMARK       I    between atoms: C_4  and  N_5 
REMARK    3  A    between atoms: C_8  and  N_9 
REMARK       I    between atoms: N_9  and  C_10 
REMARK    4  A    between atoms: C_10  and  C_11 
REMARK    5  A    between atoms: C_12  and  C_13 
REMARK    6  A    between atoms: N_18  and  C_19 
REMARK    7  A    between atoms: C_19  and  C_20 
REMARK    8  A    between atoms: C_20  and  O_21 
ROOT
HETATM    1  C   UNL     1     -43.555  58.242 -55.220  1.00  0.00     0.139 C 
HETATM    2  C   UNL     1     -43.641  58.184 -56.759  1.00  0.00     0.145 C 
HETATM    3  N   UNL     1     -42.913  59.340 -57.298  1.00  0.00    -0.335 N 
HETATM    4  C   UNL     1     -43.085  60.605 -56.737  1.00  0.00     0.255 C 
HETATM    5  O   UNL     1     -42.505  61.606 -57.144  1.00  0.00    -0.267 OA
HETATM    6  C   UNL     1     -43.952  60.690 -55.521  1.00  0.00     0.039 A 
HETATM    7  C   UNL     1     -44.180  59.538 -54.732  1.00  0.00    -0.027 A 
HETATM    8  C   UNL     1     -44.466  61.932 -55.138  1.00  0.00     0.017 A 
HETATM    9  C   UNL     1     -45.218  62.038 -53.970  1.00  0.00     0.001 A 
HETATM   10  C   UNL     1     -45.433  60.912 -53.175  1.00  0.00     0.001 A 
HETATM   11  C   UNL     1     -44.907  59.670 -53.543  1.00  0.00     0.009 A 
ENDROOT
BRANCH   1  12
HETATM   12  C   UNL     1     -43.987  56.903 -54.645  1.00  0.00     0.229 C 
HETATM   13  N   UNL     1     -42.930  56.017 -54.524  1.00  0.00    -0.356 N 
HETATM   14  H   UNL     1     -41.999  56.369 -54.737  1.00  0.00     0.162 HD
HETATM   15  O   UNL     1     -45.139  56.620 -54.348  1.00  0.00    -0.273 OA
BRANCH  13  16
HETATM   16  C   UNL     1     -43.003  54.608 -54.144  1.00  0.00     0.087 C 
HETATM   17  C   UNL     1     -42.036  53.689 -54.896  1.00  0.00     0.045 C 
HETATM   18  C   UNL     1     -40.712  53.431 -54.185  1.00  0.00     0.130 C 
HETATM   19  N   UNL     1     -40.895  53.144 -52.769  1.00  0.00    -0.328 N 
HETATM   20  C   UNL     1     -40.026  52.317 -52.069  1.00  0.00     0.362 C 
HETATM   21  C   UNL     1     -41.656  54.127 -52.013  1.00  0.00     0.130 C 
HETATM   22  O   UNL     1     -39.985  52.243 -50.846  1.00  0.00    -0.238 OA
HETATM   23  C   UNL     1     -43.024  54.377 -52.631  1.00  0.00     0.045 C 
BRANCH  20  24
HETATM   24  O   UNL     1     -39.233  51.576 -52.892  1.00  0.00    -0.304 OA
BRANCH  24  25
HETATM   25  C   UNL     1     -39.616  50.205 -53.067  1.00  0.00     0.176 C 
HETATM   26  C   UNL     1     -39.796  49.885 -54.539  1.00  0.00     0.034 C 
ENDBRANCH  24  25
ENDBRANCH  20  24
ENDBRANCH  13  16
ENDBRANCH   1  12
BRANCH   2  27
HETATM   27  C   UNL     1     -45.041  58.138 -57.374  1.00  0.00     0.006 A 
HETATM   28  S   UNL     1     -45.249  57.411 -58.929  1.00  0.00    -0.104 SA
HETATM   29  C   UNL     1     -46.928  57.708 -58.934  1.00  0.00     0.050 A 
HETATM   30  C   UNL     1     -47.348  58.311 -57.773  1.00  0.00     0.008 A 
HETATM   31  C   UNL     1     -46.266  58.550 -56.874  1.00  0.00     0.017 A 
ENDBRANCH   2  27
BRANCH   3  32
HETATM   32  C   UNL     1     -41.765  59.094 -58.175  1.00  0.00     0.153 C 
BRANCH  32  33
HETATM   33  C   UNL     1     -42.018  59.603 -59.605  1.00  0.00     0.187 C 
BRANCH  33  34
HETATM   34  O   UNL     1     -42.111  58.528 -60.561  1.00  0.00    -0.394 OA
HETATM   35  C   UNL     1     -41.667  57.286 -60.021  1.00  0.00     0.201 C 
ENDBRANCH  33  34
ENDBRANCH  32  33
ENDBRANCH   3  32
TORSDOF 8
ENDMDL
MODEL 3
REMARK VINA RESULT:      -7.2      2.435      8.070
REMARK  8 active torsions:
REMARK  status: ('A' for Active; 'I' for Inactive)
REMARK    1  A    between atoms: C_2  and  O_3 
REMARK    2  A    between atoms: O_3  and  C_4 
REMARK       I    between atoms: C_4  and  N_5 
REMARK    3  A    between atoms: C_8  and  N_9 
REMARK       I    between atoms: N_9  and  C_10 
REMARK    4  A    between atoms: C_10  and  C_11 
REMARK    5  A    between atoms: C_12  and  C_13 
REMARK    6  A    between atoms: N_18  and  C_19 
REMARK    7  A    between atoms: C_19  and  C_20 
REMARK    8  A    between atoms: C_20  and  O_21 
ROOT
HETATM    1  C   UNL     1     -43.669  56.792 -52.533  1.00  0.00     0.139 C 
HETATM    2  C   UNL     1     -42.754  57.908 -53.079  1.00  0.00     0.145 C 
HETATM    3  N   UNL     1     -42.071  57.392 -54.273  1.00  0.00    -0.335 N 
HETATM    4  C   UNL     1     -41.517  56.113 -54.269  1.00  0.00     0.255 C 
HETATM    5  O   UNL     1     -40.935  55.629 -55.234  1.00  0.00    -0.267 OA
HETATM    6  C   UNL     1     -41.745  55.283 -53.045  1.00  0.00     0.039 A 
HETATM    7  C   UNL     1     -42.824  55.580 -52.180  1.00  0.00    -0.027 A 
HETATM    8  C   UNL     1     -40.928  54.173 -52.814  1.00  0.00     0.017 A 
HETATM    9  C   UNL     1     -41.171  53.353 -51.715  1.00  0.00     0.001 A 
HETATM   10  C   UNL     1     -42.244  53.626 -50.866  1.00  0.00     0.001 A 
HETATM   11  C   UNL     1     -43.077  54.725 -51.101  1.00  0.00     0.009 A 
ENDROOT
BRANCH   1  12
HETATM   12  C   UNL     1     -44.637  57.390 -51.525  1.00  0.00     0.229 C 
HETATM   13  N   UNL     1     -45.119  58.624 -51.925  1.00  0.00    -0.356 N 
HETATM   14  H   UNL     1     -44.856  58.949 -52.854  1.00  0.00     0.162 HD
HETATM   15  O   UNL     1     -44.941  56.860 -50.465  1.00  0.00    -0.273 OA
BRANCH  13  16
HETATM   16  C   UNL     1     -45.951  59.539 -51.146  1.00  0.00     0.087 C 
HETATM   17  C   UNL     1     -45.276  60.117 -49.900  1.00  0.00     0.045 C 
HETATM   18  C   UNL     1     -44.615  61.477 -50.101  1.00  0.00     0.130 C 
HETATM   19  N   UNL     1     -45.462  62.394 -50.853  1.00  0.00    -0.328 N 
HETATM   20  C   UNL     1     -45.412  63.768 -50.657  1.00  0.00     0.362 C 
HETATM   21  C   UNL     1     -45.945  61.906 -52.135  1.00  0.00     0.130 C 
HETATM   22  O   UNL     1     -45.907  64.588 -51.422  1.00  0.00    -0.238 OA
HETATM   23  C   UNL     1     -46.681  60.582 -51.995  1.00  0.00     0.045 C 
BRANCH  20  24
HETATM   24  O   UNL     1     -44.770  64.108 -49.505  1.00  0.00    -0.304 OA
BRANCH  24  25
HETATM   25  C   UNL     1     -45.575  64.740 -48.500  1.00  0.00     0.176 C 
HETATM   26  C   UNL     1     -45.989  63.736 -47.440  1.00  0.00     0.034 C 
ENDBRANCH  24  25
ENDBRANCH  20  24
ENDBRANCH  13  16
ENDBRANCH   1  12
BRANCH   2  27
HETATM   27  C   UNL     1     -41.716  58.488 -52.115  1.00  0.00     0.006 A 
HETATM   28  S   UNL     1     -40.122  58.813 -52.700  1.00  0.00    -0.104 SA
HETATM   29  C   UNL     1     -39.597  59.395 -51.186  1.00  0.00     0.050 A 
HETATM   30  C   UNL     1     -40.606  59.387 -50.253  1.00  0.00     0.008 A 
HETATM   31  C   UNL     1     -41.825  58.875 -50.789  1.00  0.00     0.017 A 
ENDBRANCH   2  27
BRANCH   3  32
HETATM   32  C   UNL     1     -42.286  58.077 -55.550  1.00  0.00     0.153 C 
BRANCH  32  33
HETATM   33  C   UNL     1     -43.640  57.702 -56.180  1.00  0.00     0.187 C 
BRANCH  33  34
HETATM   34  O   UNL     1     -43.510  56.683 -57.191  1.00  0.00    -0.394 OA
HETATM   35  C   UNL     1     -44.032  57.102 -58.449  1.00  0.00     0.201 C 
ENDBRANCH  33  34
ENDBRANCH  32  33
ENDBRANCH   3  32
TORSDOF 8
ENDMDL
MODEL 4
REMARK VINA RESULT:      -7.2      4.007      6.040
REMARK  8 active torsions:
REMARK  status: ('A' for Active; 'I' for Inactive)
REMARK    1  A    between atoms: C_2  and  O_3 
REMARK    2  A    between atoms: O_3  and  C_4 
REMARK       I    between atoms: C_4  and  N_5 
REMARK    3  A    between atoms: C_8  and  N_9 
REMARK       I    between atoms: N_9  and  C_10 
REMARK    4  A    between atoms: C_10  and  C_11 
REMARK    5  A    between atoms: C_12  and  C_13 
REMARK    6  A    between atoms: N_18  and  C_19 
REMARK    7  A    between atoms: C_19  and  C_20 
REMARK    8  A    between atoms: C_20  and  O_21 
ROOT
HETATM    1  C   UNL     1     -43.898  57.677 -57.337  1.00  0.00     0.139 C 
HETATM    2  C   UNL     1     -44.099  59.141 -57.779  1.00  0.00     0.145 C 
HETATM    3  N   UNL     1     -45.519  59.324 -58.108  1.00  0.00    -0.335 N 
HETATM    4  C   UNL     1     -46.195  58.372 -58.870  1.00  0.00     0.255 C 
HETATM    5  O   UNL     1     -47.378  58.472 -59.176  1.00  0.00    -0.267 OA
HETATM    6  C   UNL     1     -45.433  57.136 -59.233  1.00  0.00     0.039 A 
HETATM    7  C   UNL     1     -44.305  56.751 -58.471  1.00  0.00    -0.027 A 
HETATM    8  C   UNL     1     -45.897  56.335 -60.280  1.00  0.00     0.017 A 
HETATM    9  C   UNL     1     -45.237  55.147 -60.585  1.00  0.00     0.001 A 
HETATM   10  C   UNL     1     -44.135  54.748 -59.828  1.00  0.00     0.001 A 
HETATM   11  C   UNL     1     -43.677  55.536 -58.768  1.00  0.00     0.009 A 
ENDROOT
BRANCH   1  12
HETATM   12  C   UNL     1     -42.541  57.540 -56.667  1.00  0.00     0.229 C 
HETATM   13  N   UNL     1     -42.603  56.799 -55.500  1.00  0.00    -0.356 N 
HETATM   14  H   UNL     1     -43.495  56.364 -55.269  1.00  0.00     0.162 HD
HETATM   15  O   UNL     1     -41.511  58.047 -57.088  1.00  0.00    -0.273 OA
BRANCH  13  16
HETATM   16  C   UNL     1     -41.526  56.586 -54.534  1.00  0.00     0.087 C 
HETATM   17  C   UNL     1     -41.978  56.520 -53.073  1.00  0.00     0.045 C 
HETATM   18  C   UNL     1     -42.232  55.112 -52.543  1.00  0.00     0.130 C 
HETATM   19  N   UNL     1     -41.180  54.181 -52.930  1.00  0.00    -0.328 N 
HETATM   20  C   UNL     1     -40.834  53.094 -52.138  1.00  0.00     0.362 C 
HETATM   21  C   UNL     1     -40.887  54.108 -54.352  1.00  0.00     0.130 C 
HETATM   22  O   UNL     1     -40.147  52.156 -52.524  1.00  0.00    -0.238 OA
HETATM   23  C   UNL     1     -40.552  55.474 -54.931  1.00  0.00     0.045 C 
BRANCH  20  24
HETATM   24  O   UNL     1     -41.324  53.194 -50.871  1.00  0.00    -0.304 OA
BRANCH  24  25
HETATM   25  C   UNL     1     -40.372  53.017 -49.812  1.00  0.00     0.176 C 
HETATM   26  C   UNL     1     -39.718  54.339 -49.459  1.00  0.00     0.034 C 
ENDBRANCH  24  25
ENDBRANCH  20  24
ENDBRANCH  13  16
ENDBRANCH   1  12
BRANCH   2  27
HETATM   27  C   UNL     1     -43.243  59.637 -58.946  1.00  0.00     0.006 A 
HETATM   28  S   UNL     1     -42.589  61.237 -58.884  1.00  0.00    -0.104 SA
HETATM   29  C   UNL     1     -41.820  61.069 -60.396  1.00  0.00     0.050 A 
HETATM   30  C   UNL     1     -42.009  59.820 -60.934  1.00  0.00     0.008 A 
HETATM   31  C   UNL     1     -42.819  58.995 -60.098  1.00  0.00     0.017 A 
ENDBRANCH   2  27
BRANCH   3  32
HETATM   32  C   UNL     1     -46.288  60.312 -57.347  1.00  0.00     0.153 C 
BRANCH  32  33
HETATM   33  C   UNL     1     -45.454  60.940 -56.216  1.00  0.00     0.187 C 
BRANCH  33  34
HETATM   34  O   UNL     1     -45.643  60.265 -54.956  1.00  0.00    -0.394 OA
HETATM   35  C   UNL     1     -44.430  60.152 -54.217  1.00  0.00     0.201 C 
ENDBRANCH  33  34
ENDBRANCH  32  33
ENDBRANCH   3  32
TORSDOF 8
ENDMDL
MODEL 5
REMARK VINA RESULT:      -7.2      3.789      6.448
REMARK  8 active torsions:
REMARK  status: ('A' for Active; 'I' for Inactive)
REMARK    1  A    between atoms: C_2  and  O_3 
REMARK    2  A    between atoms: O_3  and  C_4 
REMARK       I    between atoms: C_4  and  N_5 
REMARK    3  A    between atoms: C_8  and  N_9 
REMARK       I    between atoms: N_9  and  C_10 
REMARK    4  A    between atoms: C_10  and  C_11 
REMARK    5  A    between atoms: C_12  and  C_13 
REMARK    6  A    between atoms: N_18  and  C_19 
REMARK    7  A    between atoms: C_19  and  C_20 
REMARK    8  A    between atoms: C_20  and  O_21 
ROOT
HETATM    1  C   UNL     1     -41.606  58.033 -53.155  1.00  0.00     0.139 C 
HETATM    2  C   UNL     1     -42.053  58.787 -51.887  1.00  0.00     0.145 C 
HETATM    3  N   UNL     1     -41.548  58.051 -50.719  1.00  0.00    -0.335 N 
HETATM    4  C   UNL     1     -41.660  56.663 -50.660  1.00  0.00     0.255 C 
HETATM    5  O   UNL     1     -41.258  55.995 -49.713  1.00  0.00    -0.267 OA
HETATM    6  C   UNL     1     -42.216  55.979 -51.870  1.00  0.00     0.039 A 
HETATM    7  C   UNL     1     -42.176  56.625 -53.128  1.00  0.00    -0.027 A 
HETATM    8  C   UNL     1     -42.700  54.674 -51.751  1.00  0.00     0.017 A 
HETATM    9  C   UNL     1     -43.157  54.001 -52.881  1.00  0.00     0.001 A 
HETATM   10  C   UNL     1     -43.105  54.621 -54.130  1.00  0.00     0.001 A 
HETATM   11  C   UNL     1     -42.605  55.921 -54.259  1.00  0.00     0.009 A 
ENDROOT
BRANCH   1  12
HETATM   12  C   UNL     1     -41.803  58.931 -54.365  1.00  0.00     0.229 C 
HETATM   13  N   UNL     1     -42.568  58.329 -55.349  1.00  0.00    -0.356 N 
HETATM   14  H   UNL     1     -42.977  57.422 -55.132  1.00  0.00     0.162 HD
HETATM   15  O   UNL     1     -41.321  60.050 -54.478  1.00  0.00    -0.273 OA
BRANCH  13  16
HETATM   16  C   UNL     1     -42.838  58.841 -56.691  1.00  0.00     0.087 C 
HETATM   17  C   UNL     1     -42.217  58.025 -57.827  1.00  0.00     0.045 C 
HETATM   18  C   UNL     1     -43.138  56.977 -58.442  1.00  0.00     0.130 C 
HETATM   19  N   UNL     1     -44.476  57.498 -58.688  1.00  0.00    -0.328 N 
HETATM   20  C   UNL     1     -45.268  57.027 -59.727  1.00  0.00     0.362 C 
HETATM   21  C   UNL     1     -45.142  58.103 -57.545  1.00  0.00     0.130 C 
HETATM   22  O   UNL     1     -46.471  57.243 -59.825  1.00  0.00    -0.238 OA
HETATM   23  C   UNL     1     -44.304  59.212 -56.926  1.00  0.00     0.045 C 
BRANCH  20  24
HETATM   24  O   UNL     1     -44.557  56.315 -60.645  1.00  0.00    -0.304 OA
BRANCH  24  25
HETATM   25  C   UNL     1     -45.070  55.015 -60.967  1.00  0.00     0.176 C 
HETATM   26  C   UNL     1     -44.798  54.040 -59.837  1.00  0.00     0.034 C 
ENDBRANCH  24  25
ENDBRANCH  20  24
ENDBRANCH  13  16
ENDBRANCH   1  12
BRANCH   2  27
HETATM   27  C   UNL     1     -43.554  59.032 -51.718  1.00  0.00     0.006 A 
HETATM   28  S   UNL     1     -44.188  60.605 -52.052  1.00  0.00    -0.104 SA
HETATM   29  C   UNL     1     -45.783  60.132 -51.678  1.00  0.00     0.050 A 
HETATM   30  C   UNL     1     -45.859  58.801 -51.343  1.00  0.00     0.008 A 
HETATM   31  C   UNL     1     -44.582  58.169 -51.374  1.00  0.00     0.017 A 
ENDBRANCH   2  27
BRANCH   3  32
HETATM   32  C   UNL     1     -40.630  58.737 -49.807  1.00  0.00     0.153 C 
BRANCH  32  33
HETATM   33  C   UNL     1     -39.981  59.968 -50.465  1.00  0.00     0.187 C 
BRANCH  33  34
HETATM   34  O   UNL     1     -38.792  59.630 -51.206  1.00  0.00    -0.394 OA
HETATM   35  C   UNL     1     -37.699  59.303 -50.352  1.00  0.00     0.201 C 
ENDBRANCH  33  34
ENDBRANCH  32  33
ENDBRANCH   3  32
TORSDOF 8
ENDMDL
MODEL 6
REMARK VINA RESULT:      -7.1      4.063      6.647
REMARK  8 active torsions:
REMARK  status: ('A' for Active; 'I' for Inactive)
REMARK    1  A    between atoms: C_2  and  O_3 
REMARK    2  A    between atoms: O_3  and  C_4 
REMARK       I    between atoms: C_4  and  N_5 
REMARK    3  A    between atoms: C_8  and  N_9 
REMARK       I    between atoms: N_9  and  C_10 
REMARK    4  A    between atoms: C_10  and  C_11 
REMARK    5  A    between atoms: C_12  and  C_13 
REMARK    6  A    between atoms: N_18  and  C_19 
REMARK    7  A    between atoms: C_19  and  C_20 
REMARK    8  A    between atoms: C_20  and  O_21 
ROOT
HETATM    1  C   UNL     1     -42.733  58.972 -56.982  1.00  0.00     0.139 C 
HETATM    2  C   UNL     1     -43.396  58.236 -58.165  1.00  0.00     0.145 C 
HETATM    3  N   UNL     1     -42.718  58.657 -59.398  1.00  0.00    -0.335 N 
HETATM    4  C   UNL     1     -42.427  60.003 -59.619  1.00  0.00     0.255 C 
HETATM    5  O   UNL     1     -41.864  60.413 -60.628  1.00  0.00    -0.267 OA
HETATM    6  C   UNL     1     -42.745  60.952 -58.506  1.00  0.00     0.039 A 
HETATM    7  C   UNL     1     -42.874  60.471 -57.182  1.00  0.00    -0.027 A 
HETATM    8  C   UNL     1     -42.835  62.318 -58.783  1.00  0.00     0.017 A 
HETATM    9  C   UNL     1     -43.064  63.220 -57.746  1.00  0.00     0.001 A 
HETATM   10  C   UNL     1     -43.174  62.759 -56.434  1.00  0.00     0.001 A 
HETATM   11  C   UNL     1     -43.067  61.394 -56.147  1.00  0.00     0.009 A 
ENDROOT
BRANCH   1  12
HETATM   12  C   UNL     1     -43.162  58.314 -55.681  1.00  0.00     0.229 C 
HETATM   13  N   UNL     1     -42.758  56.992 -55.601  1.00  0.00    -0.356 N 
HETATM   14  H   UNL     1     -42.162  56.641 -56.349  1.00  0.00     0.162 HD
HETATM   15  O   UNL     1     -43.816  58.871 -54.811  1.00  0.00    -0.273 OA
BRANCH  13  16
HETATM   16  C   UNL     1     -43.113  56.024 -54.566  1.00  0.00     0.087 C 
HETATM   17  C   UNL     1     -43.139  54.567 -55.031  1.00  0.00     0.045 C 
HETATM   18  C   UNL     1     -41.847  53.793 -54.791  1.00  0.00     0.130 C 
HETATM   19  N   UNL     1     -41.304  54.029 -53.460  1.00  0.00    -0.328 N 
HETATM   20  C   UNL     1     -40.565  53.065 -52.787  1.00  0.00     0.362 C 
HETATM   21  C   UNL     1     -41.099  55.422 -53.095  1.00  0.00     0.130 C 
HETATM   22  O   UNL     1     -39.884  53.293 -51.794  1.00  0.00    -0.238 OA
HETATM   23  C   UNL     1     -42.375  56.238 -53.242  1.00  0.00     0.045 C 
BRANCH  20  24
HETATM   24  O   UNL     1     -40.697  51.827 -53.338  1.00  0.00    -0.304 OA
BRANCH  24  25
HETATM   25  C   UNL     1     -39.474  51.152 -53.668  1.00  0.00     0.176 C 
HETATM   26  C   UNL     1     -39.587  49.669 -53.368  1.00  0.00     0.034 C 
ENDBRANCH  24  25
ENDBRANCH  20  24
ENDBRANCH  13  16
ENDBRANCH   1  12
BRANCH   2  27
HETATM   27  C   UNL     1     -44.906  58.415 -58.333  1.00  0.00     0.006 A 
HETATM   28  S   UNL     1     -45.544  58.696 -59.916  1.00  0.00    -0.104 SA
HETATM   29  C   UNL     1     -47.148  58.777 -59.344  1.00  0.00     0.050 A 
HETATM   30  C   UNL     1     -47.223  58.558 -57.990  1.00  0.00     0.008 A 
HETATM   31  C   UNL     1     -45.938  58.342 -57.412  1.00  0.00     0.017 A 
ENDBRANCH   2  27
BRANCH   3  32
HETATM   32  C   UNL     1     -42.048  57.637 -60.208  1.00  0.00     0.153 C 
BRANCH  32  33
HETATM   33  C   UNL     1     -42.481  56.214 -59.809  1.00  0.00     0.187 C 
BRANCH  33  34
HETATM   34  O   UNL     1     -43.568  55.724 -60.619  1.00  0.00    -0.394 OA
HETATM   35  C   UNL     1     -44.451  54.881 -59.885  1.00  0.00     0.201 C 
ENDBRANCH  33  34
ENDBRANCH  32  33
ENDBRANCH   3  32
TORSDOF 8
ENDMDL
MODEL 7
REMARK VINA RESULT:      -7.1      4.163      6.345
REMARK  8 active torsions:
REMARK  status: ('A' for Active; 'I' for Inactive)
REMARK    1  A    between atoms: C_2  and  O_3 
REMARK    2  A    between atoms: O_3  and  C_4 
REMARK       I    between atoms: C_4  and  N_5 
REMARK    3  A    between atoms: C_8  and  N_9 
REMARK       I    between atoms: N_9  and  C_10 
REMARK    4  A    between atoms: C_10  and  C_11 
REMARK    5  A    between atoms: C_12  and  C_13 
REMARK    6  A    between atoms: N_18  and  C_19 
REMARK    7  A    between atoms: C_19  and  C_20 
REMARK    8  A    between atoms: C_20  and  O_21 
ROOT
HETATM    1  C   UNL     1     -44.842  57.667 -58.055  1.00  0.00     0.139 C 
HETATM    2  C   UNL     1     -44.373  59.136 -58.044  1.00  0.00     0.145 C 
HETATM    3  N   UNL     1     -45.561  59.990 -57.915  1.00  0.00    -0.335 N 
HETATM    4  C   UNL     1     -46.701  59.732 -58.677  1.00  0.00     0.255 C 
HETATM    5  O   UNL     1     -47.721  60.410 -58.613  1.00  0.00    -0.267 OA
HETATM    6  C   UNL     1     -46.676  58.504 -59.532  1.00  0.00     0.039 A 
HETATM    7  C   UNL     1     -45.782  57.450 -59.229  1.00  0.00    -0.027 A 
HETATM    8  C   UNL     1     -47.594  58.385 -60.578  1.00  0.00     0.017 A 
HETATM    9  C   UNL     1     -47.627  57.219 -61.338  1.00  0.00     0.001 A 
HETATM   10  C   UNL     1     -46.764  56.165 -61.037  1.00  0.00     0.001 A 
HETATM   11  C   UNL     1     -45.854  56.271 -59.980  1.00  0.00     0.009 A 
ENDROOT
BRANCH   1  12
HETATM   12  C   UNL     1     -43.643  56.759 -57.838  1.00  0.00     0.229 C 
HETATM   13  N   UNL     1     -43.655  56.161 -56.590  1.00  0.00    -0.356 N 
HETATM   14  H   UNL     1     -44.476  56.313 -56.007  1.00  0.00     0.162 HD
HETATM   15  O   UNL     1     -42.748  56.592 -58.655  1.00  0.00    -0.273 OA
BRANCH  13  16
HETATM   16  C   UNL     1     -42.598  55.346 -55.994  1.00  0.00     0.087 C 
HETATM   17  C   UNL     1     -41.533  56.135 -55.229  1.00  0.00     0.045 C 
HETATM   18  C   UNL     1     -41.776  56.255 -53.729  1.00  0.00     0.130 C 
HETATM   19  N   UNL     1     -42.183  54.987 -53.135  1.00  0.00    -0.328 N 
HETATM   20  C   UNL     1     -41.880  54.663 -51.819  1.00  0.00     0.362 C 
HETATM   21  C   UNL     1     -43.326  54.334 -53.751  1.00  0.00     0.130 C 
HETATM   22  O   UNL     1     -42.403  53.741 -51.202  1.00  0.00    -0.238 OA
HETATM   23  C   UNL     1     -43.116  54.117 -55.243  1.00  0.00     0.045 C 
BRANCH  20  24
HETATM   24  O   UNL     1     -40.918  55.469 -51.290  1.00  0.00    -0.304 OA
BRANCH  24  25
HETATM   25  C   UNL     1     -41.312  56.260 -50.159  1.00  0.00     0.176 C 
HETATM   26  C   UNL     1     -41.068  57.733 -50.429  1.00  0.00     0.034 C 
ENDBRANCH  24  25
ENDBRANCH  20  24
ENDBRANCH  13  16
ENDBRANCH   1  12
BRANCH   2  27
HETATM   27  C   UNL     1     -43.540  59.607 -59.238  1.00  0.00     0.006 A 
HETATM   28  S   UNL     1     -42.172  60.626 -58.953  1.00  0.00    -0.104 SA
HETATM   29  C   UNL     1     -41.789  60.713 -60.612  1.00  0.00     0.050 A 
HETATM   30  C   UNL     1     -42.645  59.960 -61.379  1.00  0.00     0.008 A 
HETATM   31  C   UNL     1     -43.645  59.319 -60.589  1.00  0.00     0.017 A 
ENDBRANCH   2  27
BRANCH   3  32
HETATM   32  C   UNL     1     -45.662  60.874 -56.751  1.00  0.00     0.153 C 
BRANCH  32  33
HETATM   33  C   UNL     1     -44.562  60.582 -55.714  1.00  0.00     0.187 C 
BRANCH  33  34
HETATM   34  O   UNL     1     -45.098  60.073 -54.477  1.00  0.00    -0.394 OA
HETATM   35  C   UNL     1     -44.999  58.654 -54.389  1.00  0.00     0.201 C 
ENDBRANCH  33  34
ENDBRANCH  32  33
ENDBRANCH   3  32
TORSDOF 8
ENDMDL
MODEL 8
REMARK VINA RESULT:      -7.0      1.857      2.503
REMARK  8 active torsions:
REMARK  status: ('A' for Active; 'I' for Inactive)
REMARK    1  A    between atoms: C_2  and  O_3 
REMARK    2  A    between atoms: O_3  and  C_4 
REMARK       I    between atoms: C_4  and  N_5 
REMARK    3  A    between atoms: C_8  and  N_9 
REMARK       I    between atoms: N_9  and  C_10 
REMARK    4  A    between atoms: C_10  and  C_11 
REMARK    5  A    between atoms: C_12  and  C_13 
REMARK    6  A    between atoms: N_18  and  C_19 
REMARK    7  A    between atoms: C_19  and  C_20 
REMARK    8  A    between atoms: C_20  and  O_21 
ROOT
HETATM    1  C   UNL     1     -44.187  58.751 -55.170  1.00  0.00     0.139 C 
HETATM    2  C   UNL     1     -43.727  59.531 -53.922  1.00  0.00     0.145 C 
HETATM    3  N   UNL     1     -43.696  60.959 -54.266  1.00  0.00    -0.335 N 
HETATM    4  C   UNL     1     -43.140  61.381 -55.473  1.00  0.00     0.255 C 
HETATM    5  O   UNL     1     -43.086  62.558 -55.814  1.00  0.00    -0.267 OA
HETATM    6  C   UNL     1     -42.686  60.311 -56.416  1.00  0.00     0.039 A 
HETATM    7  C   UNL     1     -43.211  59.002 -56.306  1.00  0.00    -0.027 A 
HETATM    8  C   UNL     1     -41.800  60.643 -57.444  1.00  0.00     0.017 A 
HETATM    9  C   UNL     1     -41.422  59.673 -58.370  1.00  0.00     0.001 A 
HETATM   10  C   UNL     1     -41.948  58.384 -58.282  1.00  0.00     0.001 A 
HETATM   11  C   UNL     1     -42.849  58.050 -57.265  1.00  0.00     0.009 A 
ENDROOT
BRANCH   1  12
HETATM   12  C   UNL     1     -44.563  57.335 -54.762  1.00  0.00     0.229 C 
HETATM   13  N   UNL     1     -43.457  56.513 -54.634  1.00  0.00    -0.356 N 
HETATM   14  H   UNL     1     -42.540  56.946 -54.732  1.00  0.00     0.162 HD
HETATM   15  O   UNL     1     -45.711  56.950 -54.593  1.00  0.00    -0.273 OA
BRANCH  13  16
HETATM   16  C   UNL     1     -43.455  55.072 -54.395  1.00  0.00     0.087 C 
HETATM   17  C   UNL     1     -42.512  54.273 -55.298  1.00  0.00     0.045 C 
HETATM   18  C   UNL     1     -41.134  54.000 -54.706  1.00  0.00     0.130 C 
HETATM   19  N   UNL     1     -41.209  53.566 -53.317  1.00  0.00    -0.328 N 
HETATM   20  C   UNL     1     -40.265  52.710 -52.763  1.00  0.00     0.362 C 
HETATM   21  C   UNL     1     -41.948  54.437 -52.417  1.00  0.00     0.130 C 
HETATM   22  O   UNL     1     -40.137  52.517 -51.559  1.00  0.00    -0.238 OA
HETATM   23  C   UNL     1     -43.363  54.692 -52.915  1.00  0.00     0.045 C 
BRANCH  20  24
HETATM   24  O   UNL     1     -39.507  52.087 -53.707  1.00  0.00    -0.304 OA
BRANCH  24  25
HETATM   25  C   UNL     1     -39.401  50.662 -53.589  1.00  0.00     0.176 C 
HETATM   26  C   UNL     1     -40.282  49.975 -54.615  1.00  0.00     0.034 C 
ENDBRANCH  24  25
ENDBRANCH  20  24
ENDBRANCH  13  16
ENDBRANCH   1  12
BRANCH   2  27
HETATM   27  C   UNL     1     -42.383  59.131 -53.309  1.00  0.00     0.006 A 
HETATM   28  S   UNL     1     -42.355  58.469 -51.712  1.00  0.00    -0.104 SA
HETATM   29  C   UNL     1     -40.661  58.282 -51.731  1.00  0.00     0.050 A 
HETATM   30  C   UNL     1     -40.113  58.671 -52.930  1.00  0.00     0.008 A 
HETATM   31  C   UNL     1     -41.103  59.150 -53.838  1.00  0.00     0.017 A 
ENDBRANCH   2  27
BRANCH   3  32
HETATM   32  C   UNL     1     -44.552  61.877 -53.511  1.00  0.00     0.153 C 
BRANCH  32  33
HETATM   33  C   UNL     1     -45.329  61.151 -52.398  1.00  0.00     0.187 C 
BRANCH  33  34
HETATM   34  O   UNL     1     -44.731  61.339 -51.100  1.00  0.00    -0.394 OA
HETATM   35  C   UNL     1     -44.556  62.716 -50.781  1.00  0.00     0.201 C 
ENDBRANCH  33  34
ENDBRANCH  32  33
ENDBRANCH   3  32
TORSDOF 8
ENDMDL
MODEL 9
REMARK VINA RESULT:      -6.7      3.778      8.088
REMARK  8 active torsions:
REMARK  status: ('A' for Active; 'I' for Inactive)
REMARK    1  A    between atoms: C_2  and  O_3 
REMARK    2  A    between atoms: O_3  and  C_4 
REMARK       I    between atoms: C_4  and  N_5 
REMARK    3  A    between atoms: C_8  and  N_9 
REMARK       I    between atoms: N_9  and  C_10 
REMARK    4  A    between atoms: C_10  and  C_11 
REMARK    5  A    between atoms: C_12  and  C_13 
REMARK    6  A    between atoms: N_18  and  C_19 
REMARK    7  A    between atoms: C_19  and  C_20 
REMARK    8  A    between atoms: C_20  and  O_21 
ROOT
HETATM    1  C   UNL     1     -42.140  58.970 -57.150  1.00  0.00     0.139 C 
HETATM    2  C   UNL     1     -43.356  58.022 -57.196  1.00  0.00     0.145 C 
HETATM    3  N   UNL     1     -43.107  57.017 -58.238  1.00  0.00    -0.335 N 
HETATM    4  C   UNL     1     -42.600  57.400 -59.479  1.00  0.00     0.255 C 
HETATM    5  O   UNL     1     -42.374  56.607 -60.388  1.00  0.00    -0.267 OA
HETATM    6  C   UNL     1     -42.237  58.842 -59.643  1.00  0.00     0.039 A 
HETATM    7  C   UNL     1     -41.975  59.639 -58.504  1.00  0.00    -0.027 A 
HETATM    8  C   UNL     1     -42.087  59.364 -60.931  1.00  0.00     0.017 A 
HETATM    9  C   UNL     1     -41.683  60.686 -61.098  1.00  0.00     0.001 A 
HETATM   10  C   UNL     1     -41.404  61.476 -59.982  1.00  0.00     0.001 A 
HETATM   11  C   UNL     1     -41.535  60.954 -58.690  1.00  0.00     0.009 A 
ENDROOT
BRANCH   1  12
HETATM   12  C   UNL     1     -42.199  59.795 -55.874  1.00  0.00     0.229 C 
HETATM   13  N   UNL     1     -42.065  59.017 -54.738  1.00  0.00    -0.356 N 
HETATM   14  H   UNL     1     -41.858  58.028 -54.871  1.00  0.00     0.162 HD
HETATM   15  O   UNL     1     -42.374  61.005 -55.844  1.00  0.00    -0.273 OA
BRANCH  13  16
HETATM   16  C   UNL     1     -42.212  59.452 -53.350  1.00  0.00     0.087 C 
HETATM   17  C   UNL     1     -42.927  60.794 -53.171  1.00  0.00     0.045 C 
HETATM   18  C   UNL     1     -44.426  60.694 -52.912  1.00  0.00     0.130 C 
HETATM   19  N   UNL     1     -44.746  59.663 -51.933  1.00  0.00    -0.328 N 
HETATM   20  C   UNL     1     -45.850  59.764 -51.096  1.00  0.00     0.362 C 
HETATM   21  C   UNL     1     -44.223  58.336 -52.212  1.00  0.00     0.130 C 
HETATM   22  O   UNL     1     -46.303  58.830 -50.443  1.00  0.00    -0.238 OA
HETATM   23  C   UNL     1     -42.714  58.354 -52.409  1.00  0.00     0.045 C 
BRANCH  20  24
HETATM   24  O   UNL     1     -46.366  61.024 -51.060  1.00  0.00    -0.304 OA
BRANCH  24  25
HETATM   25  C   UNL     1     -46.135  61.764 -49.853  1.00  0.00     0.176 C 
HETATM   26  C   UNL     1     -45.516  63.114 -50.166  1.00  0.00     0.034 C 
ENDBRANCH  24  25
ENDBRANCH  20  24
ENDBRANCH  13  16
ENDBRANCH   1  12
BRANCH   2  27
HETATM   27  C   UNL     1     -44.726  58.661 -57.428  1.00  0.00     0.006 A 
HETATM   28  S   UNL     1     -45.841  57.885 -58.498  1.00  0.00    -0.104 SA
HETATM   29  C   UNL     1     -47.032  59.080 -58.255  1.00  0.00     0.050 A 
HETATM   30  C   UNL     1     -46.627  60.036 -57.355  1.00  0.00     0.008 A 
HETATM   31  C   UNL     1     -45.307  59.790 -56.874  1.00  0.00     0.017 A 
ENDBRANCH   2  27
BRANCH   3  32
HETATM   32  C   UNL     1     -43.061  55.605 -57.849  1.00  0.00     0.153 C 
BRANCH  32  33
HETATM   33  C   UNL     1     -42.483  55.420 -56.434  1.00  0.00     0.187 C 
BRANCH  33  34
HETATM   34  O   UNL     1     -43.223  54.456 -55.661  1.00  0.00    -0.394 OA
HETATM   35  C   UNL     1     -43.602  54.963 -54.385  1.00  0.00     0.201 C 
ENDBRANCH  33  34
ENDBRANCH  32  33
ENDBRANCH   3  32
TORSDOF 8
ENDMDL
MODEL 10
REMARK VINA RESULT:      -6.5      3.545      6.308
REMARK  8 active torsions:
REMARK  status: ('A' for Active; 'I' for Inactive)
REMARK    1  A    between atoms: C_2  and  O_3 
REMARK    2  A    between atoms: O_3  and  C_4 
REMARK       I    between atoms: C_4  and  N_5 
REMARK    3  A    between atoms: C_8  and  N_9 
REMARK       I    between atoms: N_9  and  C_10 
REMARK    4  A    between atoms: C_10  and  C_11 
REMARK    5  A    between atoms: C_12  and  C_13 
REMARK    6  A    between atoms: N_18  and  C_19 
REMARK    7  A    between atoms: C_19  and  C_20 
REMARK    8  A    between atoms: C_20  and  O_21 
ROOT
HETATM    1  C   UNL     1     -41.874  58.667 -53.148  1.00  0.00     0.139 C 
HETATM    2  C   UNL     1     -43.067  58.104 -52.348  1.00  0.00     0.145 C 
HETATM    3  N   UNL     1     -43.505  59.138 -51.400  1.00  0.00    -0.335 N 
HETATM    4  C   UNL     1     -42.568  59.852 -50.654  1.00  0.00     0.255 C 
HETATM    5  O   UNL     1     -42.873  60.724 -49.847  1.00  0.00    -0.267 OA
HETATM    6  C   UNL     1     -41.126  59.581 -50.946  1.00  0.00     0.039 A 
HETATM    7  C   UNL     1     -40.750  59.020 -52.190  1.00  0.00    -0.027 A 
HETATM    8  C   UNL     1     -40.159  59.960 -50.011  1.00  0.00     0.017 A 
HETATM    9  C   UNL     1     -38.809  59.776 -50.300  1.00  0.00     0.001 A 
HETATM   10  C   UNL     1     -38.426  59.240 -51.530  1.00  0.00     0.001 A 
HETATM   11  C   UNL     1     -39.388  58.876 -52.478  1.00  0.00     0.009 A 
ENDROOT
BRANCH   1  12
HETATM   12  C   UNL     1     -41.621  57.780 -54.356  1.00  0.00     0.229 C 
HETATM   13  N   UNL     1     -42.126  58.324 -55.524  1.00  0.00    -0.356 N 
HETATM   14  H   UNL     1     -42.518  59.263 -55.470  1.00  0.00     0.162 HD
HETATM   15  O   UNL     1     -41.061  56.694 -54.307  1.00  0.00    -0.273 OA
BRANCH  13  16
HETATM   16  C   UNL     1     -42.186  57.687 -56.838  1.00  0.00     0.087 C 
HETATM   17  C   UNL     1     -43.246  56.590 -56.972  1.00  0.00     0.045 C 
HETATM   18  C   UNL     1     -44.581  57.054 -57.545  1.00  0.00     0.130 C 
HETATM   19  N   UNL     1     -44.410  57.922 -58.702  1.00  0.00    -0.328 N 
HETATM   20  C   UNL     1     -45.348  57.974 -59.726  1.00  0.00     0.362 C 
HETATM   21  C   UNL     1     -43.549  59.078 -58.509  1.00  0.00     0.130 C 
HETATM   22  O   UNL     1     -45.381  58.852 -60.581  1.00  0.00    -0.238 OA
HETATM   23  C   UNL     1     -42.170  58.677 -58.005  1.00  0.00     0.045 C 
BRANCH  20  24
HETATM   24  O   UNL     1     -46.217  56.927 -59.691  1.00  0.00    -0.304 OA
BRANCH  24  25
HETATM   25  C   UNL     1     -46.132  56.002 -60.785  1.00  0.00     0.176 C 
HETATM   26  C   UNL     1     -45.182  54.868 -60.450  1.00  0.00     0.034 C 
ENDBRANCH  24  25
ENDBRANCH  20  24
ENDBRANCH  13  16
ENDBRANCH   1  12
BRANCH   2  27
HETATM   27  C   UNL     1     -42.840  56.792 -51.595  1.00  0.00     0.006 A 
HETATM   28  S   UNL     1     -44.209  55.929 -50.986  1.00  0.00    -0.104 SA
HETATM   29  C   UNL     1     -43.239  54.686 -50.337  1.00  0.00     0.050 A 
HETATM   30  C   UNL     1     -41.905  54.883 -50.601  1.00  0.00     0.008 A 
HETATM   31  C   UNL     1     -41.677  56.087 -51.330  1.00  0.00     0.017 A 
ENDBRANCH   2  27
BRANCH   3  32
HETATM   32  C   UNL     1     -44.875  59.645 -51.505  1.00  0.00     0.153 C 
BRANCH  32  33
HETATM   33  C   UNL     1     -45.195  60.138 -52.928  1.00  0.00     0.187 C 
BRANCH  33  34
HETATM   34  O   UNL     1     -44.415  61.292 -53.297  1.00  0.00    -0.394 OA
HETATM   35  C   UNL     1     -45.160  62.219 -54.081  1.00  0.00     0.201 C 
ENDBRANCH  33  34
ENDBRANCH  32  33
ENDBRANCH   3  32
TORSDOF 8
ENDMDL
