MODEL 1
REMARK VINA RESULT:      -7.8      0.000      0.000
REMARK  3 active torsions:
REMARK  status: ('A' for Active; 'I' for Inactive)
REMARK    1  A    between atoms: C_6  and  N_7 
REMARK       I    between atoms: N_7  and  C_8 
REMARK    2  A    between atoms: C_8  and  C_9 
REMARK    3  A    between atoms: C_9  and  C_10 
ROOT
HETATM    1  C   UNL     1     -41.447  54.117 -51.654  1.00  0.00     0.286 C 
HETATM    2  N   UNL     1     -40.839  53.637 -52.972  1.00  0.00    -0.056 N 
HETATM    3  H   UNL     1     -41.480  53.958 -53.727  1.00  0.00     0.278 HD
HETATM    4  H   UNL     1     -39.937  54.097 -53.142  1.00  0.00     0.278 HD
HETATM    5  C   UNL     1     -40.706  52.144 -52.975  1.00  0.00     0.209 C 
HETATM    6  C   UNL     1     -39.753  51.742 -51.826  1.00  0.00     0.115 C 
HETATM    7  N   UNL     1     -40.156  52.311 -50.542  1.00  0.00    -0.353 N 
HETATM    8  C   UNL     1     -40.663  53.591 -50.433  1.00  0.00     0.249 C 
HETATM    9  O   UNL     1     -40.554  54.214 -49.386  1.00  0.00    -0.271 OA
HETATM   10  C   UNL     1     -40.183  51.655 -54.318  1.00  0.00     0.035 C 
HETATM   11  C   UNL     1     -40.023  50.133 -54.288  1.00  0.00     0.002 C 
HETATM   12  C   UNL     1     -39.160  49.660 -53.117  1.00  0.00     0.002 C 
HETATM   13  C   UNL     1     -39.629  50.220 -51.770  1.00  0.00     0.027 C 
HETATM   14  H   UNL     1     -39.630  52.033 -49.714  1.00  0.00     0.163 HD
ENDROOT
BRANCH   1  15
HETATM   15  C   UNL     1     -41.592  55.642 -51.634  1.00  0.00     0.146 C 
BRANCH  15  16
HETATM   16  C   UNL     1     -43.054  56.011 -51.650  1.00  0.00     0.224 C 
HETATM   17  N   UNL     1     -43.747  56.201 -52.801  1.00  0.00    -0.327 N 
HETATM   18  H   UNL     1     -44.670  56.589 -52.628  1.00  0.00     0.169 HD
HETATM   19  O   UNL     1     -43.636  56.160 -50.567  1.00  0.00    -0.273 OA
BRANCH  17  20
HETATM   20  C   UNL     1     -43.433  56.001 -54.160  1.00  0.00     0.036 A 
HETATM   21  C   UNL     1     -43.030  57.000 -55.045  1.00  0.00     0.053 A 
HETATM   22  C   UNL     1     -42.741  56.684 -56.377  1.00  0.00     0.036 A 
HETATM   23  C   UNL     1     -42.841  55.376 -56.841  1.00  0.00     0.024 A 
HETATM   24 CL   UNL     1     -42.243  57.932 -57.453  1.00  0.00    -0.084 Cl
HETATM   25  C   UNL     1     -43.216  54.368 -55.958  1.00  0.00     0.004 A 
HETATM   26  C   UNL     1     -43.499  54.678 -54.626  1.00  0.00     0.029 A 
ENDBRANCH  17  20
ENDBRANCH  15  16
ENDBRANCH   1  15
TORSDOF 3
ENDMDL
MODEL 2
REMARK VINA RESULT:      -7.7      3.532      7.153
REMARK  3 active torsions:
REMARK  status: ('A' for Active; 'I' for Inactive)
REMARK    1  A    between atoms: C_6  and  N_7 
REMARK       I    between atoms: N_7  and  C_8 
REMARK    2  A    between atoms: C_8  and  C_9 
REMARK    3  A    between atoms: C_9  and  C_10 
ROOT
HETATM    1  C   UNL     1     -42.336  56.489 -56.675  1.00  0.00     0.286 C 
HETATM    2  N   UNL     1     -43.211  55.366 -57.232  1.00  0.00    -0.056 N 
HETATM    3  H   UNL     1     -42.657  54.489 -57.143  1.00  0.00     0.278 HD
HETATM    4  H   UNL     1     -44.049  55.240 -56.651  1.00  0.00     0.278 HD
HETATM    5  C   UNL     1     -43.567  55.639 -58.662  1.00  0.00     0.209 C 
HETATM    6  C   UNL     1     -44.375  56.956 -58.715  1.00  0.00     0.115 C 
HETATM    7  N   UNL     1     -43.693  58.058 -58.041  1.00  0.00    -0.353 N 
HETATM    8  C   UNL     1     -42.987  57.876 -56.868  1.00  0.00     0.249 C 
HETATM    9  O   UNL     1     -42.833  58.805 -56.087  1.00  0.00    -0.271 OA
HETATM   10  C   UNL     1     -44.364  54.481 -59.246  1.00  0.00     0.035 C 
HETATM   11  C   UNL     1     -44.745  54.795 -60.695  1.00  0.00     0.002 C 
HETATM   12  C   UNL     1     -45.473  56.134 -60.830  1.00  0.00     0.002 C 
HETATM   13  C   UNL     1     -44.717  57.290 -60.167  1.00  0.00     0.027 C 
HETATM   14  H   UNL     1     -44.117  58.983 -58.097  1.00  0.00     0.163 HD
ENDROOT
BRANCH   1  15
HETATM   15  C   UNL     1     -41.961  56.227 -55.212  1.00  0.00     0.146 C 
BRANCH  15  16
HETATM   16  C   UNL     1     -43.131  55.606 -54.494  1.00  0.00     0.224 C 
HETATM   17  N   UNL     1     -43.026  54.454 -53.783  1.00  0.00    -0.327 N 
HETATM   18  H   UNL     1     -43.935  54.102 -53.496  1.00  0.00     0.169 HD
HETATM   19  O   UNL     1     -44.235  56.165 -54.572  1.00  0.00    -0.273 OA
BRANCH  17  20
HETATM   20  C   UNL     1     -41.932  53.652 -53.404  1.00  0.00     0.036 A 
HETATM   21  C   UNL     1     -41.428  52.582 -54.141  1.00  0.00     0.053 A 
HETATM   22  C   UNL     1     -40.332  51.855 -53.665  1.00  0.00     0.036 A 
HETATM   23  C   UNL     1     -39.720  52.188 -52.460  1.00  0.00     0.024 A 
HETATM   24 CL   UNL     1     -39.724  50.537 -54.592  1.00  0.00    -0.084 Cl
HETATM   25  C   UNL     1     -40.198  53.271 -51.731  1.00  0.00     0.004 A 
HETATM   26  C   UNL     1     -41.289  54.004 -52.206  1.00  0.00     0.029 A 
ENDBRANCH  17  20
ENDBRANCH  15  16
ENDBRANCH   1  15
TORSDOF 3
ENDMDL
MODEL 3
REMARK VINA RESULT:      -7.6      1.439      2.034
REMARK  3 active torsions:
REMARK  status: ('A' for Active; 'I' for Inactive)
REMARK    1  A    between atoms: C_6  and  N_7 
REMARK       I    between atoms: N_7  and  C_8 
REMARK    2  A    between atoms: C_8  and  C_9 
REMARK    3  A    between atoms: C_9  and  C_10 
ROOT
HETATM    1  C   UNL     1     -42.253  55.263 -51.273  1.00  0.00     0.286 C 
HETATM    2  N   UNL     1     -41.654  54.969 -52.648  1.00  0.00    -0.056 N 
HETATM    3  H   UNL     1     -42.387  55.211 -53.347  1.00  0.00     0.278 HD
HETATM    4  H   UNL     1     -40.859  55.591 -52.835  1.00  0.00     0.278 HD
HETATM    5  C   UNL     1     -41.263  53.526 -52.752  1.00  0.00     0.209 C 
HETATM    6  C   UNL     1     -40.184  53.241 -51.681  1.00  0.00     0.115 C 
HETATM    7  N   UNL     1     -40.599  53.660 -50.344  1.00  0.00    -0.353 N 
HETATM    8  C   UNL     1     -41.315  54.821 -50.129  1.00  0.00     0.249 C 
HETATM    9  O   UNL     1     -41.251  55.398 -49.052  1.00  0.00    -0.271 OA
HETATM   10  C   UNL     1     -40.747  53.210 -54.149  1.00  0.00     0.035 C 
HETATM   11  C   UNL     1     -40.322  51.741 -54.222  1.00  0.00     0.002 C 
HETATM   12  C   UNL     1     -39.318  51.369 -53.129  1.00  0.00     0.002 C 
HETATM   13  C   UNL     1     -39.793  51.764 -51.728  1.00  0.00     0.027 C 
HETATM   14  H   UNL     1     -39.982  53.437 -49.565  1.00  0.00     0.163 HD
ENDROOT
BRANCH   1  15
HETATM   15  C   UNL     1     -42.662  56.735 -51.149  1.00  0.00     0.146 C 
BRANCH  15  16
HETATM   16  C   UNL     1     -44.138  56.874 -51.418  1.00  0.00     0.224 C 
HETATM   17  N   UNL     1     -44.630  57.233 -52.630  1.00  0.00    -0.327 N 
HETATM   18  H   UNL     1     -45.628  57.426 -52.592  1.00  0.00     0.169 HD
HETATM   19  O   UNL     1     -44.929  56.666 -50.486  1.00  0.00    -0.273 OA
BRANCH  17  20
HETATM   20  C   UNL     1     -44.037  57.420 -53.894  1.00  0.00     0.036 A 
HETATM   21  C   UNL     1     -43.818  56.414 -54.834  1.00  0.00     0.053 A 
HETATM   22  C   UNL     1     -43.220  56.718 -56.062  1.00  0.00     0.036 A 
HETATM   23  C   UNL     1     -42.843  58.021 -56.372  1.00  0.00     0.024 A 
HETATM   24 CL   UNL     1     -42.960  55.461 -57.210  1.00  0.00    -0.084 Cl
HETATM   25  C   UNL     1     -43.082  59.036 -55.452  1.00  0.00     0.004 A 
HETATM   26  C   UNL     1     -43.685  58.738 -54.227  1.00  0.00     0.029 A 
ENDBRANCH  17  20
ENDBRANCH  15  16
ENDBRANCH   1  15
TORSDOF 3
ENDMDL
MODEL 4
REMARK VINA RESULT:      -7.5      2.637      3.632
REMARK  3 active torsions:
REMARK  status: ('A' for Active; 'I' for Inactive)
REMARK    1  A    between atoms: C_6  and  N_7 
REMARK       I    between atoms: N_7  and  C_8 
REMARK    2  A    between atoms: C_8  and  C_9 
REMARK    3  A    between atoms: C_9  and  C_10 
ROOT
HETATM    1  C   UNL     1     -43.183  54.974 -54.056  1.00  0.00     0.286 C 
HETATM    2  N   UNL     1     -41.933  54.308 -54.632  1.00  0.00    -0.056 N 
HETATM    3  H   UNL     1     -42.204  53.928 -55.563  1.00  0.00     0.278 HD
HETATM    4  H   UNL     1     -41.201  55.007 -54.806  1.00  0.00     0.278 HD
HETATM    5  C   UNL     1     -41.452  53.219 -53.722  1.00  0.00     0.209 C 
HETATM    6  C   UNL     1     -41.081  53.855 -52.363  1.00  0.00     0.115 C 
HETATM    7  N   UNL     1     -42.163  54.669 -51.813  1.00  0.00    -0.353 N 
HETATM    8  C   UNL     1     -42.959  55.467 -52.611  1.00  0.00     0.249 C 
HETATM    9  O   UNL     1     -43.508  56.457 -52.146  1.00  0.00    -0.271 OA
HETATM   10  C   UNL     1     -40.260  52.497 -54.334  1.00  0.00     0.035 C 
HETATM   11  C   UNL     1     -39.765  51.412 -53.374  1.00  0.00     0.002 C 
HETATM   12  C   UNL     1     -39.463  51.961 -51.979  1.00  0.00     0.002 C 
HETATM   13  C   UNL     1     -40.628  52.765 -51.392  1.00  0.00     0.027 C 
HETATM   14  H   UNL     1     -42.034  55.061 -50.881  1.00  0.00     0.163 HD
ENDROOT
BRANCH   1  15
HETATM   15  C   UNL     1     -43.691  56.090 -54.975  1.00  0.00     0.146 C 
BRANCH  15  16
HETATM   16  C   UNL     1     -42.536  56.673 -55.747  1.00  0.00     0.224 C 
HETATM   17  N   UNL     1     -42.531  56.762 -57.102  1.00  0.00    -0.327 N 
HETATM   18  H   UNL     1     -41.620  57.036 -57.460  1.00  0.00     0.169 HD
HETATM   19  O   UNL     1     -41.546  57.073 -55.116  1.00  0.00    -0.273 OA
BRANCH  17  20
HETATM   20  C   UNL     1     -43.508  56.520 -58.086  1.00  0.00     0.036 A 
HETATM   21  C   UNL     1     -44.590  57.354 -58.365  1.00  0.00     0.053 A 
HETATM   22  C   UNL     1     -45.501  57.012 -59.370  1.00  0.00     0.036 A 
HETATM   23  C   UNL     1     -45.342  55.846 -60.115  1.00  0.00     0.024 A 
HETATM   24 CL   UNL     1     -46.829  58.057 -59.700  1.00  0.00    -0.084 Cl
HETATM   25  C   UNL     1     -44.251  55.021 -59.862  1.00  0.00     0.004 A 
HETATM   26  C   UNL     1     -43.335  55.363 -58.863  1.00  0.00     0.029 A 
ENDBRANCH  17  20
ENDBRANCH  15  16
ENDBRANCH   1  15
TORSDOF 3
ENDMDL
MODEL 5
REMARK VINA RESULT:      -7.5      3.123      4.336
REMARK  3 active torsions:
REMARK  status: ('A' for Active; 'I' for Inactive)
REMARK    1  A    between atoms: C_6  and  N_7 
REMARK       I    between atoms: N_7  and  C_8 
REMARK    2  A    between atoms: C_8  and  C_9 
REMARK    3  A    between atoms: C_9  and  C_10 
ROOT
HETATM    1  C   UNL     1     -42.935  55.344 -53.137  1.00  0.00     0.286 C 
HETATM    2  N   UNL     1     -41.863  54.729 -54.036  1.00  0.00    -0.056 N 
HETATM    3  H   UNL     1     -42.308  54.573 -54.964  1.00  0.00     0.278 HD
HETATM    4  H   UNL     1     -41.096  55.395 -54.191  1.00  0.00     0.278 HD
HETATM    5  C   UNL     1     -41.365  53.441 -53.452  1.00  0.00     0.209 C 
HETATM    6  C   UNL     1     -40.729  53.748 -52.078  1.00  0.00     0.115 C 
HETATM    7  N   UNL     1     -41.625  54.502 -51.203  1.00  0.00    -0.353 N 
HETATM    8  C   UNL     1     -42.445  55.504 -51.682  1.00  0.00     0.249 C 
HETATM    9  O   UNL     1     -42.813  56.410 -50.946  1.00  0.00    -0.271 OA
HETATM   10  C   UNL     1     -40.361  52.781 -54.387  1.00  0.00     0.035 C 
HETATM   11  C   UNL     1     -39.842  51.486 -53.757  1.00  0.00     0.002 C 
HETATM   12  C   UNL     1     -39.277  51.707 -52.353  1.00  0.00     0.002 C 
HETATM   13  C   UNL     1     -40.250  52.448 -51.431  1.00  0.00     0.027 C 
HETATM   14  H   UNL     1     -41.317  54.679 -50.248  1.00  0.00     0.163 HD
ENDROOT
BRANCH   1  15
HETATM   15  C   UNL     1     -43.458  56.662 -53.719  1.00  0.00     0.146 C 
BRANCH  15  16
HETATM   16  C   UNL     1     -42.387  57.299 -54.567  1.00  0.00     0.224 C 
HETATM   17  N   UNL     1     -41.578  58.286 -54.105  1.00  0.00    -0.327 N 
HETATM   18  H   UNL     1     -41.023  58.701 -54.849  1.00  0.00     0.169 HD
HETATM   19  O   UNL     1     -42.255  56.913 -55.738  1.00  0.00    -0.273 OA
BRANCH  17  20
HETATM   20  C   UNL     1     -41.386  58.858 -52.832  1.00  0.00     0.036 A 
HETATM   21  C   UNL     1     -42.293  59.696 -52.184  1.00  0.00     0.053 A 
HETATM   22  C   UNL     1     -41.996  60.206 -50.916  1.00  0.00     0.036 A 
HETATM   23  C   UNL     1     -40.804  59.883 -50.275  1.00  0.00     0.024 A 
HETATM   24 CL   UNL     1     -43.130  61.238 -50.133  1.00  0.00    -0.084 Cl
HETATM   25  C   UNL     1     -39.905  59.026 -50.902  1.00  0.00     0.004 A 
HETATM   26  C   UNL     1     -40.200  58.509 -52.166  1.00  0.00     0.029 A 
ENDBRANCH  17  20
ENDBRANCH  15  16
ENDBRANCH   1  15
TORSDOF 3
ENDMDL
MODEL 6
REMARK VINA RESULT:      -7.5      2.899      4.055
REMARK  3 active torsions:
REMARK  status: ('A' for Active; 'I' for Inactive)
REMARK    1  A    between atoms: C_6  and  N_7 
REMARK       I    between atoms: N_7  and  C_8 
REMARK    2  A    between atoms: C_8  and  C_9 
REMARK    3  A    between atoms: C_9  and  C_10 
ROOT
HETATM    1  C   UNL     1     -43.227  54.827 -53.623  1.00  0.00     0.286 C 
HETATM    2  N   UNL     1     -42.042  54.212 -54.368  1.00  0.00    -0.056 N 
HETATM    3  H   UNL     1     -42.412  53.870 -55.280  1.00  0.00     0.278 HD
HETATM    4  H   UNL     1     -41.343  54.931 -54.590  1.00  0.00     0.278 HD
HETATM    5  C   UNL     1     -41.446  53.091 -53.572  1.00  0.00     0.209 C 
HETATM    6  C   UNL     1     -40.931  53.670 -52.234  1.00  0.00     0.115 C 
HETATM    7  N   UNL     1     -41.953  54.437 -51.527  1.00  0.00    -0.353 N 
HETATM    8  C   UNL     1     -42.846  55.257 -52.190  1.00  0.00     0.249 C 
HETATM    9  O   UNL     1     -43.351  56.213 -51.619  1.00  0.00    -0.271 OA
HETATM   10  C   UNL     1     -40.323  52.419 -54.349  1.00  0.00     0.035 C 
HETATM   11  C   UNL     1     -39.707  51.300 -53.505  1.00  0.00     0.002 C 
HETATM   12  C   UNL     1     -39.255  51.790 -52.128  1.00  0.00     0.002 C 
HETATM   13  C   UNL     1     -40.356  52.544 -51.375  1.00  0.00     0.027 C 
HETATM   14  H   UNL     1     -41.724  54.788 -50.598  1.00  0.00     0.163 HD
ENDROOT
BRANCH   1  15
HETATM   15  C   UNL     1     -43.851  55.975 -54.423  1.00  0.00     0.146 C 
BRANCH  15  16
HETATM   16  C   UNL     1     -42.821  56.558 -55.357  1.00  0.00     0.224 C 
HETATM   17  N   UNL     1     -42.077  57.647 -55.037  1.00  0.00    -0.327 N 
HETATM   18  H   UNL     1     -41.548  57.992 -55.834  1.00  0.00     0.169 HD
HETATM   19  O   UNL     1     -42.663  56.027 -56.465  1.00  0.00    -0.273 OA
BRANCH  17  20
HETATM   20  C   UNL     1     -41.924  58.396 -53.854  1.00  0.00     0.036 A 
HETATM   21  C   UNL     1     -40.792  58.387 -53.039  1.00  0.00     0.053 A 
HETATM   22  C   UNL     1     -40.751  59.176 -51.885  1.00  0.00     0.036 A 
HETATM   23  C   UNL     1     -41.826  59.987 -51.533  1.00  0.00     0.024 A 
HETATM   24 CL   UNL     1     -39.344  59.152 -50.893  1.00  0.00    -0.084 Cl
HETATM   25  C   UNL     1     -42.949  60.024 -52.354  1.00  0.00     0.004 A 
HETATM   26  C   UNL     1     -42.991  59.242 -53.511  1.00  0.00     0.029 A 
ENDBRANCH  17  20
ENDBRANCH  15  16
ENDBRANCH   1  15
TORSDOF 3
ENDMDL
MODEL 7
REMARK VINA RESULT:      -7.4      3.623      7.017
REMARK  3 active torsions:
REMARK  status: ('A' for Active; 'I' for Inactive)
REMARK    1  A    between atoms: C_6  and  N_7 
REMARK       I    between atoms: N_7  and  C_8 
REMARK    2  A    between atoms: C_8  and  C_9 
REMARK    3  A    between atoms: C_9  and  C_10 
ROOT
HETATM    1  C   UNL     1     -41.887  57.783 -53.563  1.00  0.00     0.286 C 
HETATM    2  N   UNL     1     -42.993  57.315 -52.618  1.00  0.00    -0.056 N 
HETATM    3  H   UNL     1     -43.565  56.627 -53.151  1.00  0.00     0.278 HD
HETATM    4  H   UNL     1     -42.594  56.804 -51.821  1.00  0.00     0.278 HD
HETATM    5  C   UNL     1     -43.826  58.477 -52.168  1.00  0.00     0.209 C 
HETATM    6  C   UNL     1     -42.911  59.456 -51.397  1.00  0.00     0.115 C 
HETATM    7  N   UNL     1     -41.719  59.825 -52.159  1.00  0.00    -0.353 N 
HETATM    8  C   UNL     1     -41.039  58.913 -52.942  1.00  0.00     0.249 C 
HETATM    9  O   UNL     1     -39.848  59.067 -53.179  1.00  0.00    -0.271 OA
HETATM   10  C   UNL     1     -44.981  58.004 -51.296  1.00  0.00     0.035 C 
HETATM   11  C   UNL     1     -45.797  59.208 -50.821  1.00  0.00     0.002 C 
HETATM   12  C   UNL     1     -44.932  60.261 -50.125  1.00  0.00     0.002 C 
HETATM   13  C   UNL     1     -43.718  60.678 -50.961  1.00  0.00     0.027 C 
HETATM   14  H   UNL     1     -41.100  60.529 -51.759  1.00  0.00     0.163 HD
ENDROOT
BRANCH   1  15
HETATM   15  C   UNL     1     -41.026  56.607 -54.036  1.00  0.00     0.146 C 
BRANCH  15  16
HETATM   16  C   UNL     1     -41.883  55.625 -54.792  1.00  0.00     0.224 C 
HETATM   17  N   UNL     1     -41.776  54.282 -54.628  1.00  0.00    -0.327 N 
HETATM   18  H   UNL     1     -42.317  53.771 -55.320  1.00  0.00     0.169 HD
HETATM   19  O   UNL     1     -42.707  56.066 -55.606  1.00  0.00    -0.273 OA
BRANCH  17  20
HETATM   20  C   UNL     1     -41.051  53.476 -53.728  1.00  0.00     0.036 A 
HETATM   21  C   UNL     1     -41.056  53.618 -52.341  1.00  0.00     0.053 A 
HETATM   22  C   UNL     1     -40.296  52.756 -51.543  1.00  0.00     0.036 A 
HETATM   23  C   UNL     1     -39.532  51.741 -52.112  1.00  0.00     0.024 A 
HETATM   24 CL   UNL     1     -40.317  52.948 -49.833  1.00  0.00    -0.084 Cl
HETATM   25  C   UNL     1     -39.542  51.574 -53.493  1.00  0.00     0.004 A 
HETATM   26  C   UNL     1     -40.306  52.429 -54.293  1.00  0.00     0.029 A 
ENDBRANCH  17  20
ENDBRANCH  15  16
ENDBRANCH   1  15
TORSDOF 3
ENDMDL
MODEL 8
REMARK VINA RESULT:      -7.4      3.359      7.058
REMARK  3 active torsions:
REMARK  status: ('A' for Active; 'I' for Inactive)
REMARK    1  A    between atoms: C_6  and  N_7 
REMARK       I    between atoms: N_7  and  C_8 
REMARK    2  A    between atoms: C_8  and  C_9 
REMARK    3  A    between atoms: C_9  and  C_10 
ROOT
HETATM    1  C   UNL     1     -43.486  56.265 -52.677  1.00  0.00     0.286 C 
HETATM    2  N   UNL     1     -44.446  57.205 -53.406  1.00  0.00    -0.056 N 
HETATM    3  H   UNL     1     -44.045  57.358 -54.355  1.00  0.00     0.278 HD
HETATM    4  H   UNL     1     -45.357  56.752 -53.546  1.00  0.00     0.278 HD
HETATM    5  C   UNL     1     -44.582  58.498 -52.660  1.00  0.00     0.209 C 
HETATM    6  C   UNL     1     -45.170  58.190 -51.265  1.00  0.00     0.115 C 
HETATM    7  N   UNL     1     -44.416  57.159 -50.555  1.00  0.00    -0.353 N 
HETATM    8  C   UNL     1     -43.892  56.057 -51.202  1.00  0.00     0.249 C 
HETATM    9  O   UNL     1     -43.696  55.015 -50.592  1.00  0.00    -0.271 OA
HETATM   10  C   UNL     1     -45.468  59.469 -53.428  1.00  0.00     0.035 C 
HETATM   11  C   UNL     1     -45.620  60.769 -52.634  1.00  0.00     0.002 C 
HETATM   12  C   UNL     1     -46.116  60.525 -51.207  1.00  0.00     0.002 C 
HETATM   13  C   UNL     1     -45.280  59.483 -50.457  1.00  0.00     0.027 C 
HETATM   14  H   UNL     1     -44.686  56.951 -49.595  1.00  0.00     0.163 HD
ENDROOT
BRANCH   1  15
HETATM   15  C   UNL     1     -43.333  54.937 -53.426  1.00  0.00     0.146 C 
BRANCH  15  16
HETATM   16  C   UNL     1     -42.340  55.101 -54.548  1.00  0.00     0.224 C 
HETATM   17  N   UNL     1     -41.170  54.415 -54.596  1.00  0.00    -0.327 N 
HETATM   18  H   UNL     1     -40.560  54.758 -55.333  1.00  0.00     0.169 HD
HETATM   19  O   UNL     1     -42.600  55.909 -55.452  1.00  0.00    -0.273 OA
BRANCH  17  20
HETATM   20  C   UNL     1     -40.635  53.367 -53.821  1.00  0.00     0.036 A 
HETATM   21  C   UNL     1     -40.293  52.105 -54.305  1.00  0.00     0.053 A 
HETATM   22  C   UNL     1     -39.766  51.140 -53.440  1.00  0.00     0.036 A 
HETATM   23  C   UNL     1     -39.564  51.421 -52.092  1.00  0.00     0.024 A 
HETATM   24 CL   UNL     1     -39.349  49.588 -54.058  1.00  0.00    -0.084 Cl
HETATM   25  C   UNL     1     -39.876  52.686 -51.605  1.00  0.00     0.004 A 
HETATM   26  C   UNL     1     -40.397  53.655 -52.468  1.00  0.00     0.029 A 
ENDBRANCH  17  20
ENDBRANCH  15  16
ENDBRANCH   1  15
TORSDOF 3
ENDMDL
MODEL 9
REMARK VINA RESULT:      -7.4      3.355      6.398
REMARK  3 active torsions:
REMARK  status: ('A' for Active; 'I' for Inactive)
REMARK    1  A    between atoms: C_6  and  N_7 
REMARK       I    between atoms: N_7  and  C_8 
REMARK    2  A    between atoms: C_8  and  C_9 
REMARK    3  A    between atoms: C_9  and  C_10 
ROOT
HETATM    1  C   UNL     1     -43.463  58.028 -55.206  1.00  0.00     0.286 C 
HETATM    2  N   UNL     1     -42.415  58.403 -56.253  1.00  0.00    -0.056 N 
HETATM    3  H   UNL     1     -42.351  59.442 -56.249  1.00  0.00     0.278 HD
HETATM    4  H   UNL     1     -41.489  58.055 -55.978  1.00  0.00     0.278 HD
HETATM    5  C   UNL     1     -42.817  57.891 -57.604  1.00  0.00     0.209 C 
HETATM    6  C   UNL     1     -42.899  56.349 -57.530  1.00  0.00     0.115 C 
HETATM    7  N   UNL     1     -43.746  55.887 -56.432  1.00  0.00    -0.353 N 
HETATM    8  C   UNL     1     -43.755  56.512 -55.201  1.00  0.00     0.249 C 
HETATM    9  O   UNL     1     -44.065  55.891 -54.192  1.00  0.00    -0.271 OA
HETATM   10  C   UNL     1     -41.820  58.338 -58.664  1.00  0.00     0.035 C 
HETATM   11  C   UNL     1     -42.231  57.777 -60.028  1.00  0.00     0.002 C 
HETATM   12  C   UNL     1     -42.418  56.259 -60.002  1.00  0.00     0.002 C 
HETATM   13  C   UNL     1     -43.352  55.795 -58.880  1.00  0.00     0.027 C 
HETATM   14  H   UNL     1     -43.921  54.886 -56.358  1.00  0.00     0.163 HD
ENDROOT
BRANCH   1  15
HETATM   15  C   UNL     1     -43.069  58.545 -53.818  1.00  0.00     0.146 C 
BRANCH  15  16
HETATM   16  C   UNL     1     -41.577  58.743 -53.757  1.00  0.00     0.224 C 
HETATM   17  N   UNL     1     -40.722  57.760 -53.374  1.00  0.00    -0.327 N 
HETATM   18  H   UNL     1     -39.777  58.109 -53.245  1.00  0.00     0.169 HD
HETATM   19  O   UNL     1     -41.117  59.856 -54.054  1.00  0.00    -0.273 OA
BRANCH  17  20
HETATM   20  C   UNL     1     -40.893  56.390 -53.095  1.00  0.00     0.036 A 
HETATM   21  C   UNL     1     -40.568  55.348 -53.962  1.00  0.00     0.053 A 
HETATM   22  C   UNL     1     -40.780  54.020 -53.576  1.00  0.00     0.036 A 
HETATM   23  C   UNL     1     -41.307  53.714 -52.325  1.00  0.00     0.024 A 
HETATM   24 CL   UNL     1     -40.370  52.748 -54.661  1.00  0.00    -0.084 Cl
HETATM   25  C   UNL     1     -41.609  54.745 -51.442  1.00  0.00     0.004 A 
HETATM   26  C   UNL     1     -41.393  56.073 -51.822  1.00  0.00     0.029 A 
ENDBRANCH  17  20
ENDBRANCH  15  16
ENDBRANCH   1  15
TORSDOF 3
ENDMDL
MODEL 10
REMARK VINA RESULT:      -7.4      2.625      6.249
REMARK  3 active torsions:
REMARK  status: ('A' for Active; 'I' for Inactive)
REMARK    1  A    between atoms: C_6  and  N_7 
REMARK       I    between atoms: N_7  and  C_8 
REMARK    2  A    between atoms: C_8  and  C_9 
REMARK    3  A    between atoms: C_9  and  C_10 
ROOT
HETATM    1  C   UNL     1     -43.083  55.963 -52.058  1.00  0.00     0.286 C 
HETATM    2  N   UNL     1     -43.128  55.489 -53.511  1.00  0.00    -0.056 N 
HETATM    3  H   UNL     1     -42.206  55.045 -53.705  1.00  0.00     0.278 HD
HETATM    4  H   UNL     1     -43.835  54.753 -53.629  1.00  0.00     0.278 HD
HETATM    5  C   UNL     1     -43.376  56.645 -54.432  1.00  0.00     0.209 C 
HETATM    6  C   UNL     1     -44.751  57.257 -54.079  1.00  0.00     0.115 C 
HETATM    7  N   UNL     1     -44.871  57.579 -52.658  1.00  0.00    -0.353 N 
HETATM    8  C   UNL     1     -44.345  56.764 -51.675  1.00  0.00     0.249 C 
HETATM    9  O   UNL     1     -44.825  56.763 -50.549  1.00  0.00    -0.271 OA
HETATM   10  C   UNL     1     -43.335  56.191 -55.885  1.00  0.00     0.035 C 
HETATM   11  C   UNL     1     -43.623  57.380 -56.806  1.00  0.00     0.002 C 
HETATM   12  C   UNL     1     -44.932  58.088 -56.451  1.00  0.00     0.002 C 
HETATM   13  C   UNL     1     -45.018  58.469 -54.970  1.00  0.00     0.027 C 
HETATM   14  H   UNL     1     -45.714  58.061 -52.351  1.00  0.00     0.163 HD
ENDROOT
BRANCH   1  15
HETATM   15  C   UNL     1     -42.828  54.794 -51.101  1.00  0.00     0.146 C 
BRANCH  15  16
HETATM   16  C   UNL     1     -41.456  54.928 -50.493  1.00  0.00     0.224 C 
HETATM   17  N   UNL     1     -40.409  54.150 -50.869  1.00  0.00    -0.327 N 
HETATM   18  H   UNL     1     -39.608  54.271 -50.255  1.00  0.00     0.169 HD
HETATM   19  O   UNL     1     -41.286  55.775 -49.603  1.00  0.00    -0.273 OA
BRANCH  17  20
HETATM   20  C   UNL     1     -40.231  53.206 -51.898  1.00  0.00     0.036 A 
HETATM   21  C   UNL     1     -39.971  51.849 -51.706  1.00  0.00     0.053 A 
HETATM   22  C   UNL     1     -39.813  51.001 -52.807  1.00  0.00     0.036 A 
HETATM   23  C   UNL     1     -39.923  51.487 -54.107  1.00  0.00     0.024 A 
HETATM   24 CL   UNL     1     -39.494  49.329 -52.548  1.00  0.00    -0.084 Cl
HETATM   25  C   UNL     1     -40.210  52.833 -54.309  1.00  0.00     0.004 A 
HETATM   26  C   UNL     1     -40.374  53.682 -53.211  1.00  0.00     0.029 A 
ENDBRANCH  17  20
ENDBRANCH  15  16
ENDBRANCH   1  15
TORSDOF 3
ENDMDL
