MODEL 1
REMARK VINA RESULT:      -8.0      0.000      0.000
REMARK  14 active torsions:
REMARK  status: ('A' for Active; 'I' for Inactive)
REMARK    1  A    between atoms: C_2  and  N_3 
REMARK    2  A    between atoms: N_3  and  C_5 
REMARK    3  A    between atoms: N_3  and  C_39 
REMARK    4  A    between atoms: C_5  and  C_6 
REMARK    5  A    between atoms: C_6  and  C_7 
REMARK    6  A    between atoms: C_7  and  N_8 
REMARK    7  A    between atoms: C_11  and  O_12 
REMARK    8  A    between atoms: C_13  and  C_14 
REMARK    9  A    between atoms: C_14  and  C_15 
REMARK   10  A    between atoms: C_18  and  O_19 
REMARK   11  A    between atoms: O_19  and  C_20 
REMARK   12  A    between atoms: C_20  and  C_21 
REMARK   13  A    between atoms: C_31  and  C_32 
REMARK   14  A    between atoms: C_35  and  O_36 
ROOT
HETATM    1  N   UNL     1     -43.886  59.857 -55.056  1.00  0.00    -0.333 N 
HETATM    2  C   UNL     1     -45.062  60.360 -54.550  1.00  0.00     0.278 A 
HETATM    3  O   UNL     1     -45.925  61.006 -55.122  1.00  0.00    -0.265 OA
HETATM    4  C   UNL     1     -45.068  60.106 -53.093  1.00  0.00     0.146 A 
HETATM    5  C   UNL     1     -43.959  59.416 -52.808  1.00  0.00     0.059 A 
HETATM    6  C   UNL     1     -43.138  59.132 -54.030  1.00  0.00     0.161 A 
ENDROOT
BRANCH   5   7
HETATM    7  C   UNL     1     -43.389  59.079 -51.489  1.00  0.00     0.193 C 
HETATM    8  O   UNL     1     -43.273  59.975 -50.655  1.00  0.00    -0.287 OA
BRANCH   7   9
HETATM    9  C   UNL     1     -43.006  57.689 -51.139  1.00  0.00     0.015 A 
HETATM   10  C   UNL     1     -43.941  56.654 -51.028  1.00  0.00     0.018 A 
HETATM   11  C   UNL     1     -43.528  55.365 -50.664  1.00  0.00     0.038 A 
HETATM   12  C   UNL     1     -42.177  55.099 -50.435  1.00  0.00     0.069 A 
HETATM   13  C   UNL     1     -41.240  56.119 -50.606  1.00  0.00     0.038 A 
HETATM   14  C   UNL     1     -41.648  57.408 -50.955  1.00  0.00     0.018 A 
BRANCH  12  15
HETATM   15  O   UNL     1     -41.648  53.892 -50.074  1.00  0.00    -0.347 OA
BRANCH  15  16
HETATM   16  C   UNL     1     -40.256  53.696 -50.325  1.00  0.00     0.214 C 
BRANCH  16  17
HETATM   17  C   UNL     1     -40.098  52.684 -51.435  1.00  0.00    -0.034 A 
HETATM   18  C   UNL     1     -40.236  53.059 -52.777  1.00  0.00     0.010 A 
HETATM   19  C   UNL     1     -40.051  52.123 -53.799  1.00  0.00     0.007 A 
HETATM   20  C   UNL     1     -39.727  50.796 -53.496  1.00  0.00    -0.062 A 
HETATM   21  C   UNL     1     -39.508  49.785 -54.583  1.00  0.00     0.048 C 
HETATM   22  C   UNL     1     -39.585  50.419 -52.155  1.00  0.00     0.007 A 
HETATM   23  C   UNL     1     -39.769  51.355 -51.135  1.00  0.00     0.010 A 
ENDBRANCH  16  17
ENDBRANCH  15  16
ENDBRANCH  12  15
ENDBRANCH   7   9
ENDBRANCH   5   7
BRANCH   4  24
HETATM   24  O   UNL     1     -46.002  60.635 -52.255  1.00  0.00    -0.355 OA
HETATM   25  H   UNL     1     -46.161  59.971 -51.555  1.00  0.00     0.218 HD
ENDBRANCH   4  24
BRANCH   6  26
HETATM   26  C   UNL     1     -42.976  57.656 -54.347  1.00  0.00    -0.030 A 
HETATM   27  C   UNL     1     -41.720  57.072 -54.592  1.00  0.00     0.012 A 
HETATM   28  C   UNL     1     -41.610  55.707 -54.877  1.00  0.00     0.037 A 
HETATM   29  C   UNL     1     -42.757  54.921 -54.915  1.00  0.00     0.065 A 
HETATM   30  C   UNL     1     -44.006  55.476 -54.680  1.00  0.00     0.037 A 
HETATM   31  C   UNL     1     -44.118  56.839 -54.402  1.00  0.00     0.012 A 
BRANCH  29  32
HETATM   32  O   UNL     1     -42.699  53.588 -55.186  1.00  0.00    -0.361 OA
HETATM   33  H   UNL     1     -41.962  53.192 -54.694  1.00  0.00     0.217 HD
ENDBRANCH  29  32
ENDBRANCH   6  26
BRANCH   1  34
HETATM   34  C   UNL     1     -43.487  59.819 -56.460  1.00  0.00     0.129 C 
BRANCH  34  35
HETATM   35  C   UNL     1     -44.396  58.991 -57.376  1.00  0.00     0.048 C 
BRANCH  35  36
HETATM   36  C   UNL     1     -43.676  57.771 -57.948  1.00  0.00     0.236 C 
BRANCH  36  37
HETATM   37  N   UNL     1     -44.669  56.711 -58.419  1.00  0.00    -0.072 N 
HETATM   38  H   UNL     1     -45.163  56.352 -57.591  1.00  0.00     0.279 HD
BRANCH  37  39
HETATM   39  C   UNL     1     -43.961  55.541 -59.085  1.00  0.00     0.230 C 
HETATM   40  C   UNL     1     -42.663  55.988 -59.733  1.00  0.00     0.034 C 
ENDBRANCH  37  39
BRANCH  37  41
HETATM   41  C   UNL     1     -45.722  57.330 -59.339  1.00  0.00     0.230 C 
HETATM   42  C   UNL     1     -46.478  56.256 -60.103  1.00  0.00     0.034 C 
ENDBRANCH  37  41
ENDBRANCH  36  37
ENDBRANCH  35  36
ENDBRANCH  34  35
ENDBRANCH   1  34
TORSDOF 14
ENDMDL
MODEL 2
REMARK VINA RESULT:      -7.8      3.039      6.634
REMARK  14 active torsions:
REMARK  status: ('A' for Active; 'I' for Inactive)
REMARK    1  A    between atoms: C_2  and  N_3 
REMARK    2  A    between atoms: N_3  and  C_5 
REMARK    3  A    between atoms: N_3  and  C_39 
REMARK    4  A    between atoms: C_5  and  C_6 
REMARK    5  A    between atoms: C_6  and  C_7 
REMARK    6  A    between atoms: C_7  and  N_8 
REMARK    7  A    between atoms: C_11  and  O_12 
REMARK    8  A    between atoms: C_13  and  C_14 
REMARK    9  A    between atoms: C_14  and  C_15 
REMARK   10  A    between atoms: C_18  and  O_19 
REMARK   11  A    between atoms: O_19  and  C_20 
REMARK   12  A    between atoms: C_20  and  C_21 
REMARK   13  A    between atoms: C_31  and  C_32 
REMARK   14  A    between atoms: C_35  and  O_36 
ROOT
HETATM    1  N   UNL     1     -43.797  60.663 -51.112  1.00  0.00    -0.333 N 
HETATM    2  C   UNL     1     -43.214  61.653 -51.871  1.00  0.00     0.278 A 
HETATM    3  O   UNL     1     -42.907  62.787 -51.541  1.00  0.00    -0.265 OA
HETATM    4  C   UNL     1     -43.128  61.159 -53.262  1.00  0.00     0.146 A 
HETATM    5  C   UNL     1     -43.584  59.902 -53.264  1.00  0.00     0.059 A 
HETATM    6  C   UNL     1     -43.987  59.443 -51.895  1.00  0.00     0.161 A 
ENDROOT
BRANCH   5   7
HETATM    7  C   UNL     1     -43.892  59.028 -54.413  1.00  0.00     0.193 C 
HETATM    8  O   UNL     1     -44.654  59.449 -55.281  1.00  0.00    -0.287 OA
BRANCH   7   9
HETATM    9  C   UNL     1     -43.267  57.691 -54.563  1.00  0.00     0.015 A 
HETATM   10  C   UNL     1     -41.880  57.507 -54.617  1.00  0.00     0.018 A 
HETATM   11  C   UNL     1     -41.344  56.225 -54.790  1.00  0.00     0.038 A 
HETATM   12  C   UNL     1     -42.188  55.117 -54.884  1.00  0.00     0.069 A 
HETATM   13  C   UNL     1     -43.568  55.296 -54.768  1.00  0.00     0.038 A 
HETATM   14  C   UNL     1     -44.107  56.574 -54.609  1.00  0.00     0.018 A 
BRANCH  12  15
HETATM   15  O   UNL     1     -41.793  53.821 -55.056  1.00  0.00    -0.347 OA
BRANCH  15  16
HETATM   16  C   UNL     1     -40.394  53.554 -54.967  1.00  0.00     0.214 C 
BRANCH  16  17
HETATM   17  C   UNL     1     -40.161  52.520 -53.891  1.00  0.00    -0.034 A 
HETATM   18  C   UNL     1     -39.929  51.178 -54.219  1.00  0.00     0.010 A 
HETATM   19  C   UNL     1     -39.678  50.235 -53.218  1.00  0.00     0.007 A 
HETATM   20  C   UNL     1     -39.655  50.617 -51.873  1.00  0.00    -0.062 A 
HETATM   21  C   UNL     1     -39.368  49.619 -50.789  1.00  0.00     0.048 C 
HETATM   22  C   UNL     1     -39.882  51.958 -51.542  1.00  0.00     0.007 A 
HETATM   23  C   UNL     1     -40.132  52.900 -52.542  1.00  0.00     0.010 A 
ENDBRANCH  16  17
ENDBRANCH  15  16
ENDBRANCH  12  15
ENDBRANCH   7   9
ENDBRANCH   5   7
BRANCH   4  24
HETATM   24  O   UNL     1     -42.767  61.954 -54.307  1.00  0.00    -0.355 OA
HETATM   25  H   UNL     1     -42.275  62.709 -53.930  1.00  0.00     0.218 HD
ENDBRANCH   4  24
BRANCH   6  26
HETATM   26  C   UNL     1     -43.185  58.269 -51.366  1.00  0.00    -0.030 A 
HETATM   27  C   UNL     1     -41.801  58.349 -51.124  1.00  0.00     0.012 A 
HETATM   28  C   UNL     1     -41.097  57.246 -50.632  1.00  0.00     0.037 A 
HETATM   29  C   UNL     1     -41.774  56.059 -50.377  1.00  0.00     0.065 A 
HETATM   30  C   UNL     1     -43.137  55.956 -50.610  1.00  0.00     0.037 A 
HETATM   31  C   UNL     1     -43.841  57.053 -51.107  1.00  0.00     0.012 A 
BRANCH  29  32
HETATM   32  O   UNL     1     -41.131  54.960 -49.895  1.00  0.00    -0.361 OA
HETATM   33  H   UNL     1     -40.482  54.655 -50.549  1.00  0.00     0.217 HD
ENDBRANCH  29  32
ENDBRANCH   6  26
BRANCH   1  34
HETATM   34  C   UNL     1     -44.012  60.685 -49.669  1.00  0.00     0.129 C 
BRANCH  34  35
HETATM   35  C   UNL     1     -45.479  60.652 -49.225  1.00  0.00     0.048 C 
BRANCH  35  36
HETATM   36  C   UNL     1     -45.695  61.384 -47.902  1.00  0.00     0.236 C 
BRANCH  36  37
HETATM   37  N   UNL     1     -45.572  60.430 -46.715  1.00  0.00    -0.072 N 
HETATM   38  H   UNL     1     -45.111  59.573 -47.046  1.00  0.00     0.279 HD
BRANCH  37  39
HETATM   39  C   UNL     1     -46.938  60.045 -46.167  1.00  0.00     0.230 C 
HETATM   40  C   UNL     1     -46.889  58.685 -45.493  1.00  0.00     0.034 C 
ENDBRANCH  37  39
BRANCH  37  41
HETATM   41  C   UNL     1     -44.680  61.033 -45.630  1.00  0.00     0.230 C 
HETATM   42  C   UNL     1     -45.117  62.447 -45.288  1.00  0.00     0.034 C 
ENDBRANCH  37  41
ENDBRANCH  36  37
ENDBRANCH  35  36
ENDBRANCH  34  35
ENDBRANCH   1  34
TORSDOF 14
ENDMDL
MODEL 3
REMARK VINA RESULT:      -7.4      1.247      1.991
REMARK  14 active torsions:
REMARK  status: ('A' for Active; 'I' for Inactive)
REMARK    1  A    between atoms: C_2  and  N_3 
REMARK    2  A    between atoms: N_3  and  C_5 
REMARK    3  A    between atoms: N_3  and  C_39 
REMARK    4  A    between atoms: C_5  and  C_6 
REMARK    5  A    between atoms: C_6  and  C_7 
REMARK    6  A    between atoms: C_7  and  N_8 
REMARK    7  A    between atoms: C_11  and  O_12 
REMARK    8  A    between atoms: C_13  and  C_14 
REMARK    9  A    between atoms: C_14  and  C_15 
REMARK   10  A    between atoms: C_18  and  O_19 
REMARK   11  A    between atoms: O_19  and  C_20 
REMARK   12  A    between atoms: C_20  and  C_21 
REMARK   13  A    between atoms: C_31  and  C_32 
REMARK   14  A    between atoms: C_35  and  O_36 
ROOT
HETATM    1  N   UNL     1     -44.300  60.020 -54.502  1.00  0.00    -0.333 N 
HETATM    2  C   UNL     1     -45.270  60.460 -53.631  1.00  0.00     0.278 A 
HETATM    3  O   UNL     1     -46.305  61.058 -53.880  1.00  0.00    -0.265 OA
HETATM    4  C   UNL     1     -44.787  60.207 -52.257  1.00  0.00     0.146 A 
HETATM    5  C   UNL     1     -43.613  59.578 -52.361  1.00  0.00     0.059 A 
HETATM    6  C   UNL     1     -43.222  59.337 -53.789  1.00  0.00     0.161 A 
ENDROOT
BRANCH   5   7
HETATM    7  C   UNL     1     -42.626  59.272 -51.306  1.00  0.00     0.193 C 
HETATM    8  O   UNL     1     -42.123  60.208 -50.686  1.00  0.00    -0.287 OA
BRANCH   7   9
HETATM    9  C   UNL     1     -42.274  57.876 -50.950  1.00  0.00     0.015 A 
HETATM   10  C   UNL     1     -40.973  57.488 -50.611  1.00  0.00     0.018 A 
HETATM   11  C   UNL     1     -40.691  56.149 -50.313  1.00  0.00     0.038 A 
HETATM   12  C   UNL     1     -41.710  55.196 -50.324  1.00  0.00     0.069 A 
HETATM   13  C   UNL     1     -43.018  55.597 -50.603  1.00  0.00     0.038 A 
HETATM   14  C   UNL     1     -43.302  56.928 -50.915  1.00  0.00     0.018 A 
BRANCH  12  15
HETATM   15  O   UNL     1     -41.566  53.865 -50.055  1.00  0.00    -0.347 OA
BRANCH  15  16
HETATM   16  C   UNL     1     -40.241  53.337 -50.095  1.00  0.00     0.214 C 
BRANCH  16  17
HETATM   17  C   UNL     1     -40.113  52.426 -51.293  1.00  0.00    -0.034 A 
HETATM   18  C   UNL     1     -40.307  52.912 -52.592  1.00  0.00     0.010 A 
HETATM   19  C   UNL     1     -40.150  52.070 -53.697  1.00  0.00     0.007 A 
HETATM   20  C   UNL     1     -39.799  50.727 -53.521  1.00  0.00    -0.062 A 
HETATM   21  C   UNL     1     -39.610  49.816 -54.699  1.00  0.00     0.048 C 
HETATM   22  C   UNL     1     -39.602  50.239 -52.225  1.00  0.00     0.007 A 
HETATM   23  C   UNL     1     -39.758  51.081 -51.121  1.00  0.00     0.010 A 
ENDBRANCH  16  17
ENDBRANCH  15  16
ENDBRANCH  12  15
ENDBRANCH   7   9
ENDBRANCH   5   7
BRANCH   4  24
HETATM   24  O   UNL     1     -45.422  60.685 -51.151  1.00  0.00    -0.355 OA
HETATM   25  H   UNL     1     -45.151  60.118 -50.403  1.00  0.00     0.218 HD
ENDBRANCH   4  24
BRANCH   6  26
HETATM   26  C   UNL     1     -43.097  57.873 -54.166  1.00  0.00    -0.030 A 
HETATM   27  C   UNL     1     -44.208  57.011 -54.224  1.00  0.00     0.012 A 
HETATM   28  C   UNL     1     -44.052  55.668 -54.580  1.00  0.00     0.037 A 
HETATM   29  C   UNL     1     -42.786  55.181 -54.883  1.00  0.00     0.065 A 
HETATM   30  C   UNL     1     -41.676  56.012 -54.830  1.00  0.00     0.037 A 
HETATM   31  C   UNL     1     -41.828  57.350 -54.468  1.00  0.00     0.012 A 
BRANCH  29  32
HETATM   32  O   UNL     1     -42.586  53.882 -55.238  1.00  0.00    -0.361 OA
HETATM   33  H   UNL     1     -41.670  53.631 -55.035  1.00  0.00     0.217 HD
ENDBRANCH  29  32
ENDBRANCH   6  26
BRANCH   1  34
HETATM   34  C   UNL     1     -44.380  60.003 -55.960  1.00  0.00     0.129 C 
BRANCH  34  35
HETATM   35  C   UNL     1     -43.280  60.786 -56.685  1.00  0.00     0.048 C 
BRANCH  35  36
HETATM   36  C   UNL     1     -42.194  59.868 -57.242  1.00  0.00     0.236 C 
BRANCH  36  37
HETATM   37  N   UNL     1     -42.524  59.419 -58.664  1.00  0.00    -0.072 N 
HETATM   38  H   UNL     1     -43.537  59.527 -58.802  1.00  0.00     0.279 HD
BRANCH  37  39
HETATM   39  C   UNL     1     -42.177  57.954 -58.880  1.00  0.00     0.230 C 
HETATM   40  C   UNL     1     -43.127  57.051 -58.115  1.00  0.00     0.034 C 
ENDBRANCH  37  39
BRANCH  37  41
HETATM   41  C   UNL     1     -41.830  60.319 -59.687  1.00  0.00     0.230 C 
HETATM   42  C   UNL     1     -41.833  59.680 -61.066  1.00  0.00     0.034 C 
ENDBRANCH  37  41
ENDBRANCH  36  37
ENDBRANCH  35  36
ENDBRANCH  34  35
ENDBRANCH   1  34
TORSDOF 14
ENDMDL
MODEL 4
REMARK VINA RESULT:      -7.1      3.831      8.246
REMARK  14 active torsions:
REMARK  status: ('A' for Active; 'I' for Inactive)
REMARK    1  A    between atoms: C_2  and  N_3 
REMARK    2  A    between atoms: N_3  and  C_5 
REMARK    3  A    between atoms: N_3  and  C_39 
REMARK    4  A    between atoms: C_5  and  C_6 
REMARK    5  A    between atoms: C_6  and  C_7 
REMARK    6  A    between atoms: C_7  and  N_8 
REMARK    7  A    between atoms: C_11  and  O_12 
REMARK    8  A    between atoms: C_13  and  C_14 
REMARK    9  A    between atoms: C_14  and  C_15 
REMARK   10  A    between atoms: C_18  and  O_19 
REMARK   11  A    between atoms: O_19  and  C_20 
REMARK   12  A    between atoms: C_20  and  C_21 
REMARK   13  A    between atoms: C_31  and  C_32 
REMARK   14  A    between atoms: C_35  and  O_36 
ROOT
HETATM    1  N   UNL     1     -41.753  56.088 -55.038  1.00  0.00    -0.333 N 
HETATM    2  C   UNL     1     -42.113  57.061 -55.942  1.00  0.00     0.278 A 
HETATM    3  O   UNL     1     -42.463  56.932 -57.104  1.00  0.00    -0.265 OA
HETATM    4  C   UNL     1     -41.872  58.374 -55.306  1.00  0.00     0.146 A 
HETATM    5  C   UNL     1     -41.458  58.138 -54.058  1.00  0.00     0.059 A 
HETATM    6  C   UNL     1     -41.407  56.673 -53.744  1.00  0.00     0.161 A 
ENDROOT
BRANCH   5   7
HETATM    7  C   UNL     1     -40.903  59.084 -53.069  1.00  0.00     0.193 C 
HETATM    8  O   UNL     1     -39.683  59.238 -53.027  1.00  0.00    -0.287 OA
BRANCH   7   9
HETATM    9  C   UNL     1     -41.779  59.878 -52.174  1.00  0.00     0.015 A 
HETATM   10  C   UNL     1     -41.747  59.754 -50.781  1.00  0.00     0.018 A 
HETATM   11  C   UNL     1     -42.619  60.508 -49.984  1.00  0.00     0.038 A 
HETATM   12  C   UNL     1     -43.509  61.408 -50.573  1.00  0.00     0.069 A 
HETATM   13  C   UNL     1     -43.496  61.574 -51.960  1.00  0.00     0.038 A 
HETATM   14  C   UNL     1     -42.638  60.815 -52.758  1.00  0.00     0.018 A 
BRANCH  12  15
HETATM   15  O   UNL     1     -44.407  62.196 -49.912  1.00  0.00    -0.347 OA
BRANCH  15  16
HETATM   16  C   UNL     1     -45.373  61.531 -49.099  1.00  0.00     0.214 C 
BRANCH  16  17
HETATM   17  C   UNL     1     -45.218  62.003 -47.672  1.00  0.00    -0.034 A 
HETATM   18  C   UNL     1     -44.991  61.092 -46.632  1.00  0.00     0.010 A 
HETATM   19  C   UNL     1     -44.811  61.541 -45.321  1.00  0.00     0.007 A 
HETATM   20  C   UNL     1     -44.858  62.908 -45.026  1.00  0.00    -0.062 A 
HETATM   21  C   UNL     1     -44.649  63.405 -43.626  1.00  0.00     0.048 C 
HETATM   22  C   UNL     1     -45.081  63.820 -46.063  1.00  0.00     0.007 A 
HETATM   23  C   UNL     1     -45.260  63.372 -47.373  1.00  0.00     0.010 A 
ENDBRANCH  16  17
ENDBRANCH  15  16
ENDBRANCH  12  15
ENDBRANCH   7   9
ENDBRANCH   5   7
BRANCH   4  24
HETATM   24  O   UNL     1     -41.951  59.550 -55.988  1.00  0.00    -0.355 OA
HETATM   25  H   UNL     1     -41.691  60.256 -55.364  1.00  0.00     0.218 HD
ENDBRANCH   4  24
BRANCH   6  26
HETATM   26  C   UNL     1     -42.341  56.238 -52.629  1.00  0.00    -0.030 A 
HETATM   27  C   UNL     1     -43.626  56.786 -52.465  1.00  0.00     0.012 A 
HETATM   28  C   UNL     1     -44.459  56.356 -51.427  1.00  0.00     0.037 A 
HETATM   29  C   UNL     1     -44.011  55.373 -50.551  1.00  0.00     0.065 A 
HETATM   30  C   UNL     1     -42.747  54.821 -50.692  1.00  0.00     0.037 A 
HETATM   31  C   UNL     1     -41.911  55.253 -51.723  1.00  0.00     0.012 A 
BRANCH  29  32
HETATM   32  O   UNL     1     -44.787  54.921 -49.528  1.00  0.00    -0.361 OA
HETATM   33  H   UNL     1     -45.013  55.663 -48.944  1.00  0.00     0.217 HD
ENDBRANCH  29  32
ENDBRANCH   6  26
BRANCH   1  34
HETATM   34  C   UNL     1     -41.892  54.645 -55.210  1.00  0.00     0.129 C 
BRANCH  34  35
HETATM   35  C   UNL     1     -40.634  53.825 -54.899  1.00  0.00     0.048 C 
BRANCH  35  36
HETATM   36  C   UNL     1     -40.965  52.519 -54.180  1.00  0.00     0.236 C 
BRANCH  36  37
HETATM   37  N   UNL     1     -39.854  52.125 -53.207  1.00  0.00    -0.072 N 
HETATM   38  H   UNL     1     -39.086  52.800 -53.317  1.00  0.00     0.279 HD
BRANCH  37  39
HETATM   39  C   UNL     1     -39.307  50.740 -53.518  1.00  0.00     0.230 C 
HETATM   40  C   UNL     1     -40.167  50.034 -54.551  1.00  0.00     0.034 C 
ENDBRANCH  37  39
BRANCH  37  41
HETATM   41  C   UNL     1     -40.343  52.226 -51.762  1.00  0.00     0.230 C 
HETATM   42  C   UNL     1     -39.365  53.017 -50.910  1.00  0.00     0.034 C 
ENDBRANCH  37  41
ENDBRANCH  36  37
ENDBRANCH  35  36
ENDBRANCH  34  35
ENDBRANCH   1  34
TORSDOF 14
ENDMDL
MODEL 5
REMARK VINA RESULT:      -7.0      3.063      4.416
REMARK  14 active torsions:
REMARK  status: ('A' for Active; 'I' for Inactive)
REMARK    1  A    between atoms: C_2  and  N_3 
REMARK    2  A    between atoms: N_3  and  C_5 
REMARK    3  A    between atoms: N_3  and  C_39 
REMARK    4  A    between atoms: C_5  and  C_6 
REMARK    5  A    between atoms: C_6  and  C_7 
REMARK    6  A    between atoms: C_7  and  N_8 
REMARK    7  A    between atoms: C_11  and  O_12 
REMARK    8  A    between atoms: C_13  and  C_14 
REMARK    9  A    between atoms: C_14  and  C_15 
REMARK   10  A    between atoms: C_18  and  O_19 
REMARK   11  A    between atoms: O_19  and  C_20 
REMARK   12  A    between atoms: C_20  and  C_21 
REMARK   13  A    between atoms: C_31  and  C_32 
REMARK   14  A    between atoms: C_35  and  O_36 
ROOT
HETATM    1  N   UNL     1     -42.723  59.833 -57.293  1.00  0.00    -0.333 N 
HETATM    2  C   UNL     1     -43.521  60.843 -56.804  1.00  0.00     0.278 A 
HETATM    3  O   UNL     1     -43.369  62.050 -56.899  1.00  0.00    -0.265 OA
HETATM    4  C   UNL     1     -44.581  60.218 -55.984  1.00  0.00     0.146 A 
HETATM    5  C   UNL     1     -44.420  58.894 -56.073  1.00  0.00     0.059 A 
HETATM    6  C   UNL     1     -43.274  58.520 -56.963  1.00  0.00     0.161 A 
ENDROOT
BRANCH   5   7
HETATM    7  C   UNL     1     -45.083  57.825 -55.301  1.00  0.00     0.193 C 
HETATM    8  O   UNL     1     -46.245  57.534 -55.581  1.00  0.00    -0.287 OA
BRANCH   7   9
HETATM    9  C   UNL     1     -44.367  57.069 -54.244  1.00  0.00     0.015 A 
HETATM   10  C   UNL     1     -44.015  57.638 -53.015  1.00  0.00     0.018 A 
HETATM   11  C   UNL     1     -43.312  56.886 -52.065  1.00  0.00     0.038 A 
HETATM   12  C   UNL     1     -42.980  55.556 -52.326  1.00  0.00     0.069 A 
HETATM   13  C   UNL     1     -43.385  54.973 -53.528  1.00  0.00     0.038 A 
HETATM   14  C   UNL     1     -44.074  55.722 -54.484  1.00  0.00     0.018 A 
BRANCH  12  15
HETATM   15  O   UNL     1     -42.297  54.721 -51.488  1.00  0.00    -0.347 OA
BRANCH  15  16
HETATM   16  C   UNL     1     -40.874  54.716 -51.598  1.00  0.00     0.214 C 
BRANCH  16  17
HETATM   17  C   UNL     1     -40.442  53.441 -52.285  1.00  0.00    -0.034 A 
HETATM   18  C   UNL     1     -40.005  52.336 -51.544  1.00  0.00     0.010 A 
HETATM   19  C   UNL     1     -39.643  51.148 -52.186  1.00  0.00     0.007 A 
HETATM   20  C   UNL     1     -39.710  51.046 -53.580  1.00  0.00    -0.062 A 
HETATM   21  C   UNL     1     -39.341  49.772 -54.281  1.00  0.00     0.048 C 
HETATM   22  C   UNL     1     -40.149  52.148 -54.322  1.00  0.00     0.007 A 
HETATM   23  C   UNL     1     -40.512  53.334 -53.680  1.00  0.00     0.010 A 
ENDBRANCH  16  17
ENDBRANCH  15  16
ENDBRANCH  12  15
ENDBRANCH   7   9
ENDBRANCH   5   7
BRANCH   4  24
HETATM   24  O   UNL     1     -45.434  60.940 -55.205  1.00  0.00    -0.355 OA
HETATM   25  H   UNL     1     -46.237  61.098 -55.739  1.00  0.00     0.218 HD
ENDBRANCH   4  24
BRANCH   6  26
HETATM   26  C   UNL     1     -43.668  57.718 -58.190  1.00  0.00    -0.030 A 
HETATM   27  C   UNL     1     -44.748  58.083 -59.015  1.00  0.00     0.012 A 
HETATM   28  C   UNL     1     -45.078  57.320 -60.139  1.00  0.00     0.037 A 
HETATM   29  C   UNL     1     -44.327  56.191 -60.445  1.00  0.00     0.065 A 
HETATM   30  C   UNL     1     -43.260  55.810 -59.645  1.00  0.00     0.037 A 
HETATM   31  C   UNL     1     -42.933  56.566 -58.519  1.00  0.00     0.012 A 
BRANCH  29  32
HETATM   32  O   UNL     1     -44.609  55.419 -61.531  1.00  0.00    -0.361 OA
HETATM   33  H   UNL     1     -45.544  55.526 -61.767  1.00  0.00     0.217 HD
ENDBRANCH  29  32
ENDBRANCH   6  26
BRANCH   1  34
HETATM   34  C   UNL     1     -41.598  59.980 -58.212  1.00  0.00     0.129 C 
BRANCH  34  35
HETATM   35  C   UNL     1     -41.973  60.353 -59.651  1.00  0.00     0.048 C 
BRANCH  35  36
HETATM   36  C   UNL     1     -41.748  61.836 -59.936  1.00  0.00     0.236 C 
BRANCH  36  37
HETATM   37  N   UNL     1     -40.998  62.040 -61.250  1.00  0.00    -0.072 N 
HETATM   38  H   UNL     1     -40.634  61.126 -61.551  1.00  0.00     0.279 HD
BRANCH  37  39
HETATM   39  C   UNL     1     -39.813  62.979 -61.075  1.00  0.00     0.230 C 
HETATM   40  C   UNL     1     -39.393  63.059 -59.618  1.00  0.00     0.034 C 
ENDBRANCH  37  39
BRANCH  37  41
HETATM   41  C   UNL     1     -41.948  62.531 -62.343  1.00  0.00     0.230 C 
HETATM   42  C   UNL     1     -42.441  61.374 -63.196  1.00  0.00     0.034 C 
ENDBRANCH  37  41
ENDBRANCH  36  37
ENDBRANCH  35  36
ENDBRANCH  34  35
ENDBRANCH   1  34
TORSDOF 14
ENDMDL
MODEL 6
REMARK VINA RESULT:      -6.9      2.668      6.099
REMARK  14 active torsions:
REMARK  status: ('A' for Active; 'I' for Inactive)
REMARK    1  A    between atoms: C_2  and  N_3 
REMARK    2  A    between atoms: N_3  and  C_5 
REMARK    3  A    between atoms: N_3  and  C_39 
REMARK    4  A    between atoms: C_5  and  C_6 
REMARK    5  A    between atoms: C_6  and  C_7 
REMARK    6  A    between atoms: C_7  and  N_8 
REMARK    7  A    between atoms: C_11  and  O_12 
REMARK    8  A    between atoms: C_13  and  C_14 
REMARK    9  A    between atoms: C_14  and  C_15 
REMARK   10  A    between atoms: C_18  and  O_19 
REMARK   11  A    between atoms: O_19  and  C_20 
REMARK   12  A    between atoms: C_20  and  C_21 
REMARK   13  A    between atoms: C_31  and  C_32 
REMARK   14  A    between atoms: C_35  and  O_36 
ROOT
HETATM    1  N   UNL     1     -43.746  60.650 -51.475  1.00  0.00    -0.333 N 
HETATM    2  C   UNL     1     -43.228  61.562 -52.366  1.00  0.00     0.278 A 
HETATM    3  O   UNL     1     -42.895  62.719 -52.167  1.00  0.00    -0.265 OA
HETATM    4  C   UNL     1     -43.260  60.944 -53.709  1.00  0.00     0.146 A 
HETATM    5  C   UNL     1     -43.715  59.696 -53.558  1.00  0.00     0.059 A 
HETATM    6  C   UNL     1     -44.002  59.366 -52.125  1.00  0.00     0.161 A 
ENDROOT
BRANCH   5   7
HETATM    7  C   UNL     1     -44.118  58.724 -54.593  1.00  0.00     0.193 C 
HETATM    8  O   UNL     1     -45.007  59.043 -55.382  1.00  0.00    -0.287 OA
BRANCH   7   9
HETATM    9  C   UNL     1     -43.445  57.409 -54.731  1.00  0.00     0.015 A 
HETATM   10  C   UNL     1     -42.121  57.280 -55.164  1.00  0.00     0.018 A 
HETATM   11  C   UNL     1     -41.545  56.011 -55.305  1.00  0.00     0.038 A 
HETATM   12  C   UNL     1     -42.279  54.866 -54.988  1.00  0.00     0.069 A 
HETATM   13  C   UNL     1     -43.579  55.002 -54.498  1.00  0.00     0.038 A 
HETATM   14  C   UNL     1     -44.162  56.264 -54.369  1.00  0.00     0.018 A 
BRANCH  12  15
HETATM   15  O   UNL     1     -41.835  53.578 -55.084  1.00  0.00    -0.347 OA
BRANCH  15  16
HETATM   16  C   UNL     1     -40.429  53.368 -54.961  1.00  0.00     0.214 C 
BRANCH  16  17
HETATM   17  C   UNL     1     -40.179  52.363 -53.861  1.00  0.00    -0.034 A 
HETATM   18  C   UNL     1     -39.994  51.006 -54.153  1.00  0.00     0.010 A 
HETATM   19  C   UNL     1     -39.727  50.089 -53.132  1.00  0.00     0.007 A 
HETATM   20  C   UNL     1     -39.642  50.514 -51.802  1.00  0.00    -0.062 A 
HETATM   21  C   UNL     1     -39.338  49.544 -50.698  1.00  0.00     0.048 C 
HETATM   22  C   UNL     1     -39.823  51.870 -51.507  1.00  0.00     0.007 A 
HETATM   23  C   UNL     1     -40.089  52.785 -52.528  1.00  0.00     0.010 A 
ENDBRANCH  16  17
ENDBRANCH  15  16
ENDBRANCH  12  15
ENDBRANCH   7   9
ENDBRANCH   5   7
BRANCH   4  24
HETATM   24  O   UNL     1     -42.988  61.639 -54.848  1.00  0.00    -0.355 OA
HETATM   25  H   UNL     1     -43.800  61.619 -55.391  1.00  0.00     0.218 HD
ENDBRANCH   4  24
BRANCH   6  26
HETATM   26  C   UNL     1     -43.158  58.238 -51.560  1.00  0.00    -0.030 A 
HETATM   27  C   UNL     1     -43.722  57.044 -51.073  1.00  0.00     0.012 A 
HETATM   28  C   UNL     1     -42.911  56.026 -50.564  1.00  0.00     0.037 A 
HETATM   29  C   UNL     1     -41.531  56.196 -50.542  1.00  0.00     0.065 A 
HETATM   30  C   UNL     1     -40.952  57.365 -51.014  1.00  0.00     0.037 A 
HETATM   31  C   UNL     1     -41.761  58.385 -51.516  1.00  0.00     0.012 A 
BRANCH  29  32
HETATM   32  O   UNL     1     -40.700  55.231 -50.059  1.00  0.00    -0.361 OA
HETATM   33  H   UNL     1     -39.826  55.324 -50.470  1.00  0.00     0.217 HD
ENDBRANCH  29  32
ENDBRANCH   6  26
BRANCH   1  34
HETATM   34  C   UNL     1     -43.839  60.804 -50.026  1.00  0.00     0.129 C 
BRANCH  34  35
HETATM   35  C   UNL     1     -45.097  61.523 -49.524  1.00  0.00     0.048 C 
BRANCH  35  36
HETATM   36  C   UNL     1     -44.795  62.945 -49.054  1.00  0.00     0.236 C 
BRANCH  36  37
HETATM   37  N   UNL     1     -45.975  63.877 -49.317  1.00  0.00    -0.072 N 
HETATM   38  H   UNL     1     -46.084  64.487 -48.496  1.00  0.00     0.279 HD
BRANCH  37  39
HETATM   39  C   UNL     1     -47.270  63.100 -49.496  1.00  0.00     0.230 C 
HETATM   40  C   UNL     1     -48.443  63.847 -48.887  1.00  0.00     0.034 C 
ENDBRANCH  37  39
BRANCH  37  41
HETATM   41  C   UNL     1     -45.691  64.782 -50.517  1.00  0.00     0.230 C 
HETATM   42  C   UNL     1     -46.128  64.121 -51.813  1.00  0.00     0.034 C 
ENDBRANCH  37  41
ENDBRANCH  36  37
ENDBRANCH  35  36
ENDBRANCH  34  35
ENDBRANCH   1  34
TORSDOF 14
ENDMDL
MODEL 7
REMARK VINA RESULT:      -6.9      2.724      6.222
REMARK  14 active torsions:
REMARK  status: ('A' for Active; 'I' for Inactive)
REMARK    1  A    between atoms: C_2  and  N_3 
REMARK    2  A    between atoms: N_3  and  C_5 
REMARK    3  A    between atoms: N_3  and  C_39 
REMARK    4  A    between atoms: C_5  and  C_6 
REMARK    5  A    between atoms: C_6  and  C_7 
REMARK    6  A    between atoms: C_7  and  N_8 
REMARK    7  A    between atoms: C_11  and  O_12 
REMARK    8  A    between atoms: C_13  and  C_14 
REMARK    9  A    between atoms: C_14  and  C_15 
REMARK   10  A    between atoms: C_18  and  O_19 
REMARK   11  A    between atoms: O_19  and  C_20 
REMARK   12  A    between atoms: C_20  and  C_21 
REMARK   13  A    between atoms: C_31  and  C_32 
REMARK   14  A    between atoms: C_35  and  O_36 
ROOT
HETATM    1  N   UNL     1     -45.352  61.071 -53.054  1.00  0.00    -0.333 N 
HETATM    2  C   UNL     1     -45.500  61.672 -54.283  1.00  0.00     0.278 A 
HETATM    3  O   UNL     1     -45.778  62.832 -54.537  1.00  0.00    -0.265 OA
HETATM    4  C   UNL     1     -45.398  60.616 -55.314  1.00  0.00     0.146 A 
HETATM    5  C   UNL     1     -45.129  59.471 -54.679  1.00  0.00     0.059 A 
HETATM    6  C   UNL     1     -45.006  59.658 -53.197  1.00  0.00     0.161 A 
ENDROOT
BRANCH   5   7
HETATM    7  C   UNL     1     -45.120  58.094 -55.213  1.00  0.00     0.193 C 
HETATM    8  O   UNL     1     -46.077  57.722 -55.890  1.00  0.00    -0.287 OA
BRANCH   7   9
HETATM    9  C   UNL     1     -43.971  57.182 -54.994  1.00  0.00     0.015 A 
HETATM   10  C   UNL     1     -44.049  56.054 -54.169  1.00  0.00     0.018 A 
HETATM   11  C   UNL     1     -42.923  55.243 -53.974  1.00  0.00     0.038 A 
HETATM   12  C   UNL     1     -41.722  55.539 -54.622  1.00  0.00     0.069 A 
HETATM   13  C   UNL     1     -41.666  56.630 -55.492  1.00  0.00     0.038 A 
HETATM   14  C   UNL     1     -42.781  57.449 -55.679  1.00  0.00     0.018 A 
BRANCH  12  15
HETATM   15  O   UNL     1     -40.558  54.833 -54.515  1.00  0.00    -0.347 OA
BRANCH  15  16
HETATM   16  C   UNL     1     -40.541  53.525 -55.086  1.00  0.00     0.214 C 
BRANCH  16  17
HETATM   17  C   UNL     1     -40.259  52.519 -53.995  1.00  0.00    -0.034 A 
HETATM   18  C   UNL     1     -40.066  51.165 -54.295  1.00  0.00     0.010 A 
HETATM   19  C   UNL     1     -39.770  50.248 -53.283  1.00  0.00     0.007 A 
HETATM   20  C   UNL     1     -39.663  50.669 -51.953  1.00  0.00    -0.062 A 
HETATM   21  C   UNL     1     -39.327  49.699 -50.858  1.00  0.00     0.048 C 
HETATM   22  C   UNL     1     -39.852  52.022 -51.650  1.00  0.00     0.007 A 
HETATM   23  C   UNL     1     -40.147  52.938 -52.662  1.00  0.00     0.010 A 
ENDBRANCH  16  17
ENDBRANCH  15  16
ENDBRANCH  12  15
ENDBRANCH   7   9
ENDBRANCH   5   7
BRANCH   4  24
HETATM   24  O   UNL     1     -45.679  60.837 -56.628  1.00  0.00    -0.355 OA
HETATM   25  H   UNL     1     -46.651  60.793 -56.720  1.00  0.00     0.218 HD
ENDBRANCH   4  24
BRANCH   6  26
HETATM   26  C   UNL     1     -43.637  59.324 -52.634  1.00  0.00    -0.030 A 
HETATM   27  C   UNL     1     -42.457  59.915 -53.121  1.00  0.00     0.012 A 
HETATM   28  C   UNL     1     -41.214  59.584 -52.573  1.00  0.00     0.037 A 
HETATM   29  C   UNL     1     -41.146  58.662 -51.534  1.00  0.00     0.065 A 
HETATM   30  C   UNL     1     -42.296  58.065 -51.040  1.00  0.00     0.037 A 
HETATM   31  C   UNL     1     -43.537  58.388 -51.590  1.00  0.00     0.012 A 
BRANCH  29  32
HETATM   32  O   UNL     1     -39.959  58.311 -50.968  1.00  0.00    -0.361 OA
HETATM   33  H   UNL     1     -39.413  57.852 -51.626  1.00  0.00     0.217 HD
ENDBRANCH  29  32
ENDBRANCH   6  26
BRANCH   1  34
HETATM   34  C   UNL     1     -45.309  61.739 -51.757  1.00  0.00     0.129 C 
BRANCH  34  35
HETATM   35  C   UNL     1     -46.068  61.029 -50.630  1.00  0.00     0.048 C 
BRANCH  35  36
HETATM   36  C   UNL     1     -45.194  60.819 -49.395  1.00  0.00     0.236 C 
BRANCH  36  37
HETATM   37  N   UNL     1     -45.844  61.417 -48.148  1.00  0.00    -0.072 N 
HETATM   38  H   UNL     1     -46.818  61.651 -48.382  1.00  0.00     0.279 HD
BRANCH  37  39
HETATM   39  C   UNL     1     -45.146  62.699 -47.717  1.00  0.00     0.230 C 
HETATM   40  C   UNL     1     -45.799  63.914 -48.352  1.00  0.00     0.034 C 
ENDBRANCH  37  39
BRANCH  37  41
HETATM   41  C   UNL     1     -45.884  60.390 -47.016  1.00  0.00     0.230 C 
HETATM   42  C   UNL     1     -45.173  60.913 -45.780  1.00  0.00     0.034 C 
ENDBRANCH  37  41
ENDBRANCH  36  37
ENDBRANCH  35  36
ENDBRANCH  34  35
ENDBRANCH   1  34
TORSDOF 14
ENDMDL
MODEL 8
REMARK VINA RESULT:      -6.8      3.135      4.731
REMARK  14 active torsions:
REMARK  status: ('A' for Active; 'I' for Inactive)
REMARK    1  A    between atoms: C_2  and  N_3 
REMARK    2  A    between atoms: N_3  and  C_5 
REMARK    3  A    between atoms: N_3  and  C_39 
REMARK    4  A    between atoms: C_5  and  C_6 
REMARK    5  A    between atoms: C_6  and  C_7 
REMARK    6  A    between atoms: C_7  and  N_8 
REMARK    7  A    between atoms: C_11  and  O_12 
REMARK    8  A    between atoms: C_13  and  C_14 
REMARK    9  A    between atoms: C_14  and  C_15 
REMARK   10  A    between atoms: C_18  and  O_19 
REMARK   11  A    between atoms: O_19  and  C_20 
REMARK   12  A    between atoms: C_20  and  C_21 
REMARK   13  A    between atoms: C_31  and  C_32 
REMARK   14  A    between atoms: C_35  and  O_36 
ROOT
HETATM    1  N   UNL     1     -43.277  60.610 -57.613  1.00  0.00    -0.333 N 
HETATM    2  C   UNL     1     -44.307  61.279 -56.991  1.00  0.00     0.278 A 
HETATM    3  O   UNL     1     -44.638  62.448 -57.107  1.00  0.00    -0.265 OA
HETATM    4  C   UNL     1     -44.908  60.357 -56.003  1.00  0.00     0.146 A 
HETATM    5  C   UNL     1     -44.278  59.185 -56.123  1.00  0.00     0.059 A 
HETATM    6  C   UNL     1     -43.233  59.209 -57.198  1.00  0.00     0.161 A 
ENDROOT
BRANCH   5   7
HETATM    7  C   UNL     1     -44.356  57.995 -55.252  1.00  0.00     0.193 C 
HETATM    8  O   UNL     1     -45.439  57.716 -54.738  1.00  0.00    -0.287 OA
BRANCH   7   9
HETATM    9  C   UNL     1     -43.184  57.113 -55.031  1.00  0.00     0.015 A 
HETATM   10  C   UNL     1     -42.129  57.459 -54.179  1.00  0.00     0.018 A 
HETATM   11  C   UNL     1     -41.032  56.601 -54.031  1.00  0.00     0.038 A 
HETATM   12  C   UNL     1     -40.995  55.382 -54.711  1.00  0.00     0.069 A 
HETATM   13  C   UNL     1     -42.077  55.013 -55.512  1.00  0.00     0.038 A 
HETATM   14  C   UNL     1     -43.166  55.871 -55.674  1.00  0.00     0.018 A 
BRANCH  12  15
HETATM   15  O   UNL     1     -39.987  54.463 -54.653  1.00  0.00    -0.347 OA
BRANCH  15  16
HETATM   16  C   UNL     1     -40.294  53.138 -55.088  1.00  0.00     0.214 C 
BRANCH  16  17
HETATM   17  C   UNL     1     -40.090  52.185 -53.935  1.00  0.00    -0.034 A 
HETATM   18  C   UNL     1     -39.908  50.814 -54.156  1.00  0.00     0.010 A 
HETATM   19  C   UNL     1     -39.682  49.946 -53.084  1.00  0.00     0.007 A 
HETATM   20  C   UNL     1     -39.636  50.432 -51.773  1.00  0.00    -0.062 A 
HETATM   21  C   UNL     1     -39.377  49.514 -50.615  1.00  0.00     0.048 C 
HETATM   22  C   UNL     1     -39.814  51.802 -51.550  1.00  0.00     0.007 A 
HETATM   23  C   UNL     1     -40.039  52.670 -52.620  1.00  0.00     0.010 A 
ENDBRANCH  16  17
ENDBRANCH  15  16
ENDBRANCH  12  15
ENDBRANCH   7   9
ENDBRANCH   5   7
BRANCH   4  24
HETATM   24  O   UNL     1     -45.834  60.757 -55.088  1.00  0.00    -0.355 OA
HETATM   25  H   UNL     1     -46.711  60.572 -55.475  1.00  0.00     0.218 HD
ENDBRANCH   4  24
BRANCH   6  26
HETATM   26  C   UNL     1     -43.487  58.244 -58.341  1.00  0.00    -0.030 A 
HETATM   27  C   UNL     1     -42.469  57.446 -58.895  1.00  0.00     0.012 A 
HETATM   28  C   UNL     1     -42.744  56.566 -59.946  1.00  0.00     0.037 A 
HETATM   29  C   UNL     1     -44.038  56.478 -60.446  1.00  0.00     0.065 A 
HETATM   30  C   UNL     1     -45.057  57.257 -59.918  1.00  0.00     0.037 A 
HETATM   31  C   UNL     1     -44.784  58.142 -58.874  1.00  0.00     0.012 A 
BRANCH  29  32
HETATM   32  O   UNL     1     -44.354  55.633 -61.466  1.00  0.00    -0.361 OA
HETATM   33  H   UNL     1     -44.125  54.724 -61.213  1.00  0.00     0.217 HD
ENDBRANCH  29  32
ENDBRANCH   6  26
BRANCH   1  34
HETATM   34  C   UNL     1     -42.453  61.107 -58.710  1.00  0.00     0.129 C 
BRANCH  34  35
HETATM   35  C   UNL     1     -43.222  61.527 -59.968  1.00  0.00     0.048 C 
BRANCH  35  36
HETATM   36  C   UNL     1     -42.681  62.826 -60.563  1.00  0.00     0.236 C 
BRANCH  36  37
HETATM   37  N   UNL     1     -41.940  62.568 -61.874  1.00  0.00    -0.072 N 
HETATM   38  H   UNL     1     -42.157  63.342 -62.516  1.00  0.00     0.279 HD
BRANCH  37  39
HETATM   39  C   UNL     1     -42.402  61.275 -62.530  1.00  0.00     0.230 C 
HETATM   40  C   UNL     1     -42.576  61.456 -64.027  1.00  0.00     0.034 C 
ENDBRANCH  37  39
BRANCH  37  41
HETATM   41  C   UNL     1     -40.428  62.577 -61.649  1.00  0.00     0.230 C 
HETATM   42  C   UNL     1     -40.057  63.471 -60.479  1.00  0.00     0.034 C 
ENDBRANCH  37  41
ENDBRANCH  36  37
ENDBRANCH  35  36
ENDBRANCH  34  35
ENDBRANCH   1  34
TORSDOF 14
ENDMDL
MODEL 9
REMARK VINA RESULT:      -6.8      3.954      6.567
REMARK  14 active torsions:
REMARK  status: ('A' for Active; 'I' for Inactive)
REMARK    1  A    between atoms: C_2  and  N_3 
REMARK    2  A    between atoms: N_3  and  C_5 
REMARK    3  A    between atoms: N_3  and  C_39 
REMARK    4  A    between atoms: C_5  and  C_6 
REMARK    5  A    between atoms: C_6  and  C_7 
REMARK    6  A    between atoms: C_7  and  N_8 
REMARK    7  A    between atoms: C_11  and  O_12 
REMARK    8  A    between atoms: C_13  and  C_14 
REMARK    9  A    between atoms: C_14  and  C_15 
REMARK   10  A    between atoms: C_18  and  O_19 
REMARK   11  A    between atoms: O_19  and  C_20 
REMARK   12  A    between atoms: C_20  and  C_21 
REMARK   13  A    between atoms: C_31  and  C_32 
REMARK   14  A    between atoms: C_35  and  O_36 
ROOT
HETATM    1  N   UNL     1     -46.825  62.197 -52.801  1.00  0.00    -0.333 N 
HETATM    2  C   UNL     1     -46.104  61.683 -53.855  1.00  0.00     0.278 A 
HETATM    3  O   UNL     1     -46.050  62.078 -55.008  1.00  0.00    -0.265 OA
HETATM    4  C   UNL     1     -45.471  60.429 -53.394  1.00  0.00     0.146 A 
HETATM    5  C   UNL     1     -45.772  60.287 -52.100  1.00  0.00     0.059 A 
HETATM    6  C   UNL     1     -46.599  61.424 -51.581  1.00  0.00     0.161 A 
ENDROOT
BRANCH   5   7
HETATM    7  C   UNL     1     -45.554  59.123 -51.218  1.00  0.00     0.193 C 
HETATM    8  O   UNL     1     -46.451  58.801 -50.440  1.00  0.00    -0.287 OA
BRANCH   7   9
HETATM    9  C   UNL     1     -44.312  58.314 -51.288  1.00  0.00     0.015 A 
HETATM   10  C   UNL     1     -43.036  58.887 -51.261  1.00  0.00     0.018 A 
HETATM   11  C   UNL     1     -41.897  58.077 -51.362  1.00  0.00     0.038 A 
HETATM   12  C   UNL     1     -42.026  56.691 -51.462  1.00  0.00     0.069 A 
HETATM   13  C   UNL     1     -43.299  56.119 -51.428  1.00  0.00     0.038 A 
HETATM   14  C   UNL     1     -44.437  56.922 -51.342  1.00  0.00     0.018 A 
BRANCH  12  15
HETATM   15  O   UNL     1     -41.000  55.796 -51.568  1.00  0.00    -0.347 OA
BRANCH  15  16
HETATM   16  C   UNL     1     -41.137  54.569 -50.852  1.00  0.00     0.214 C 
BRANCH  16  17
HETATM   17  C   UNL     1     -40.735  53.428 -51.757  1.00  0.00    -0.034 A 
HETATM   18  C   UNL     1     -41.102  53.416 -53.109  1.00  0.00     0.010 A 
HETATM   19  C   UNL     1     -40.693  52.374 -53.947  1.00  0.00     0.007 A 
HETATM   20  C   UNL     1     -39.912  51.326 -53.447  1.00  0.00    -0.062 A 
HETATM   21  C   UNL     1     -39.451  50.211 -54.340  1.00  0.00     0.048 C 
HETATM   22  C   UNL     1     -39.541  51.338 -52.098  1.00  0.00     0.007 A 
HETATM   23  C   UNL     1     -39.949  52.379 -51.262  1.00  0.00     0.010 A 
ENDBRANCH  16  17
ENDBRANCH  15  16
ENDBRANCH  12  15
ENDBRANCH   7   9
ENDBRANCH   5   7
BRANCH   4  24
HETATM   24  O   UNL     1     -44.833  59.570 -54.238  1.00  0.00    -0.355 OA
HETATM   25  H   UNL     1     -45.397  59.485 -55.032  1.00  0.00     0.218 HD
ENDBRANCH   4  24
BRANCH   6  26
HETATM   26  C   UNL     1     -45.935  62.233 -50.482  1.00  0.00    -0.030 A 
HETATM   27  C   UNL     1     -46.615  62.614 -49.311  1.00  0.00     0.012 A 
HETATM   28  C   UNL     1     -45.967  63.357 -48.319  1.00  0.00     0.037 A 
HETATM   29  C   UNL     1     -44.635  63.718 -48.493  1.00  0.00     0.065 A 
HETATM   30  C   UNL     1     -43.946  63.356 -49.641  1.00  0.00     0.037 A 
HETATM   31  C   UNL     1     -44.593  62.621 -50.635  1.00  0.00     0.012 A 
BRANCH  29  32
HETATM   32  O   UNL     1     -43.962  64.438 -47.553  1.00  0.00    -0.361 OA
HETATM   33  H   UNL     1     -43.935  65.371 -47.822  1.00  0.00     0.217 HD
ENDBRANCH  29  32
ENDBRANCH   6  26
BRANCH   1  34
HETATM   34  C   UNL     1     -47.552  63.463 -52.779  1.00  0.00     0.129 C 
BRANCH  34  35
HETATM   35  C   UNL     1     -48.987  63.403 -53.315  1.00  0.00     0.048 C 
BRANCH  35  36
HETATM   36  C   UNL     1     -50.016  63.303 -52.191  1.00  0.00     0.236 C 
BRANCH  36  37
HETATM   37  N   UNL     1     -51.208  62.442 -52.605  1.00  0.00    -0.072 N 
HETATM   38  H   UNL     1     -51.264  61.647 -51.954  1.00  0.00     0.279 HD
BRANCH  37  39
HETATM   39  C   UNL     1     -51.030  61.884 -54.009  1.00  0.00     0.230 C 
HETATM   40  C   UNL     1     -52.297  61.195 -54.485  1.00  0.00     0.034 C 
ENDBRANCH  37  39
BRANCH  37  41
HETATM   41  C   UNL     1     -52.512  63.228 -52.472  1.00  0.00     0.230 C 
HETATM   42  C   UNL     1     -53.132  63.028 -51.100  1.00  0.00     0.034 C 
ENDBRANCH  37  41
ENDBRANCH  36  37
ENDBRANCH  35  36
ENDBRANCH  34  35
ENDBRANCH   1  34
TORSDOF 14
ENDMDL
MODEL 10
REMARK VINA RESULT:      -6.8      3.138      8.019
REMARK  14 active torsions:
REMARK  status: ('A' for Active; 'I' for Inactive)
REMARK    1  A    between atoms: C_2  and  N_3 
REMARK    2  A    between atoms: N_3  and  C_5 
REMARK    3  A    between atoms: N_3  and  C_39 
REMARK    4  A    between atoms: C_5  and  C_6 
REMARK    5  A    between atoms: C_6  and  C_7 
REMARK    6  A    between atoms: C_7  and  N_8 
REMARK    7  A    between atoms: C_11  and  O_12 
REMARK    8  A    between atoms: C_13  and  C_14 
REMARK    9  A    between atoms: C_14  and  C_15 
REMARK   10  A    between atoms: C_18  and  O_19 
REMARK   11  A    between atoms: O_19  and  C_20 
REMARK   12  A    between atoms: C_20  and  C_21 
REMARK   13  A    between atoms: C_31  and  C_32 
REMARK   14  A    between atoms: C_35  and  O_36 
ROOT
HETATM    1  N   UNL     1     -42.375  56.027 -55.806  1.00  0.00    -0.333 N 
HETATM    2  C   UNL     1     -43.024  56.246 -57.000  1.00  0.00     0.278 A 
HETATM    3  O   UNL     1     -43.387  55.430 -57.832  1.00  0.00    -0.265 OA
HETATM    4  C   UNL     1     -43.106  57.708 -57.204  1.00  0.00     0.146 A 
HETATM    5  C   UNL     1     -42.582  58.288 -56.120  1.00  0.00     0.059 A 
HETATM    6  C   UNL     1     -42.131  57.285 -55.102  1.00  0.00     0.161 A 
ENDROOT
BRANCH   5   7
HETATM    7  C   UNL     1     -42.246  59.708 -55.898  1.00  0.00     0.193 C 
HETATM    8  O   UNL     1     -41.360  60.215 -56.583  1.00  0.00    -0.287 OA
BRANCH   7   9
HETATM    9  C   UNL     1     -42.984  60.538 -54.914  1.00  0.00     0.015 A 
HETATM   10  C   UNL     1     -44.264  61.045 -55.162  1.00  0.00     0.018 A 
HETATM   11  C   UNL     1     -44.902  61.849 -54.209  1.00  0.00     0.038 A 
HETATM   12  C   UNL     1     -44.277  62.128 -52.992  1.00  0.00     0.069 A 
HETATM   13  C   UNL     1     -43.026  61.569 -52.722  1.00  0.00     0.038 A 
HETATM   14  C   UNL     1     -42.380  60.779 -53.675  1.00  0.00     0.018 A 
BRANCH  12  15
HETATM   15  O   UNL     1     -44.789  62.895 -51.985  1.00  0.00    -0.347 OA
BRANCH  15  16
HETATM   16  C   UNL     1     -45.979  62.423 -51.353  1.00  0.00     0.214 C 
BRANCH  16  17
HETATM   17  C   UNL     1     -45.694  62.186 -49.889  1.00  0.00    -0.034 A 
HETATM   18  C   UNL     1     -45.448  63.256 -49.020  1.00  0.00     0.010 A 
HETATM   19  C   UNL     1     -45.222  63.028 -47.659  1.00  0.00     0.007 A 
HETATM   20  C   UNL     1     -45.235  61.727 -47.145  1.00  0.00    -0.062 A 
HETATM   21  C   UNL     1     -45.012  61.470 -45.684  1.00  0.00     0.048 C 
HETATM   22  C   UNL     1     -45.484  60.656 -48.011  1.00  0.00     0.007 A 
HETATM   23  C   UNL     1     -45.711  60.884 -49.370  1.00  0.00     0.010 A 
ENDBRANCH  16  17
ENDBRANCH  15  16
ENDBRANCH  12  15
ENDBRANCH   7   9
ENDBRANCH   5   7
BRANCH   4  24
HETATM   24  O   UNL     1     -43.528  58.268 -58.372  1.00  0.00    -0.355 OA
HETATM   25  H   UNL     1     -43.988  57.565 -58.872  1.00  0.00     0.218 HD
ENDBRANCH   4  24
BRANCH   6  26
HETATM   26  C   UNL     1     -42.859  57.370 -53.773  1.00  0.00    -0.030 A 
HETATM   27  C   UNL     1     -42.185  57.315 -52.539  1.00  0.00     0.012 A 
HETATM   28  C   UNL     1     -42.891  57.401 -51.335  1.00  0.00     0.037 A 
HETATM   29  C   UNL     1     -44.274  57.545 -51.360  1.00  0.00     0.065 A 
HETATM   30  C   UNL     1     -44.960  57.598 -52.564  1.00  0.00     0.037 A 
HETATM   31  C   UNL     1     -44.258  57.506 -53.767  1.00  0.00     0.012 A 
BRANCH  29  32
HETATM   32  O   UNL     1     -45.003  57.635 -50.214  1.00  0.00    -0.361 OA
HETATM   33  H   UNL     1     -45.017  58.558 -49.914  1.00  0.00     0.217 HD
ENDBRANCH  29  32
ENDBRANCH   6  26
BRANCH   1  34
HETATM   34  C   UNL     1     -42.137  54.737 -55.167  1.00  0.00     0.129 C 
BRANCH  34  35
HETATM   35  C   UNL     1     -40.696  54.491 -54.705  1.00  0.00     0.048 C 
BRANCH  35  36
HETATM   36  C   UNL     1     -40.610  54.253 -53.199  1.00  0.00     0.236 C 
BRANCH  36  37
HETATM   37  N   UNL     1     -40.531  52.762 -52.878  1.00  0.00    -0.072 N 
HETATM   38  H   UNL     1     -41.493  52.400 -52.822  1.00  0.00     0.279 HD
BRANCH  37  39
HETATM   39  C   UNL     1     -39.861  52.516 -51.534  1.00  0.00     0.230 C 
HETATM   40  C   UNL     1     -40.602  53.230 -50.418  1.00  0.00     0.034 C 
ENDBRANCH  37  39
BRANCH  37  41
HETATM   41  C   UNL     1     -39.829  52.004 -54.005  1.00  0.00     0.230 C 
HETATM   42  C   UNL     1     -40.563  50.716 -54.336  1.00  0.00     0.034 C 
ENDBRANCH  37  41
ENDBRANCH  36  37
ENDBRANCH  35  36
ENDBRANCH  34  35
ENDBRANCH   1  34
TORSDOF 14
ENDMDL
