MODEL 1
REMARK VINA RESULT:      -8.7      0.000      0.000
REMARK  4 active torsions:
REMARK  status: ('A' for Active; 'I' for Inactive)
REMARK    1  A    between atoms: C_3  and  N_4 
REMARK       I    between atoms: N_4  and  C_5 
REMARK    2  A    between atoms: C_5  and  C_6 
REMARK    3  A    between atoms: C_7  and  C_8 
REMARK    4  A    between atoms: C_11  and  O_12 
ROOT
HETATM    1  C   UNL     1     -42.960  56.957 -55.441  1.00  0.00     0.062 C 
HETATM    2  C   UNL     1     -42.489  57.293 -56.846  1.00  0.00     0.202 C 
HETATM    3  N   UNL     1     -42.274  58.735 -56.988  1.00  0.00    -0.083 N 
HETATM    4  C   UNL     1     -42.748  59.667 -56.105  1.00  0.00     0.726 A 
HETATM    5  N   UNL     1     -43.398  59.252 -54.997  1.00  0.00    -0.192 N 
HETATM    6  N   UNL     1     -41.559  59.307 -57.978  1.00  0.00    -0.141 NA
HETATM    7  C   UNL     1     -41.691  60.605 -57.661  1.00  0.00     0.162 A 
HETATM    8  C   UNL     1     -41.076  61.683 -58.461  1.00  0.00     0.096 C 
HETATM    9  N   UNL     1     -42.413  60.863 -56.516  1.00  0.00    -0.046 NA
HETATM   10  C   UNL     1     -43.394  57.920 -54.588  1.00  0.00     0.037 C 
HETATM   11  C   UNL     1     -43.853  57.660 -53.175  1.00  0.00     0.070 C 
HETATM   12  H   UNL     1     -43.609  59.950 -54.286  1.00  0.00     0.184 HD
ENDROOT
BRANCH   1  13
HETATM   13  C   UNL     1     -42.691  55.582 -54.955  1.00  0.00     0.256 C 
HETATM   14  N   UNL     1     -41.438  55.421 -54.410  1.00  0.00    -0.323 N 
HETATM   15  H   UNL     1     -40.834  56.232 -54.396  1.00  0.00     0.169 HD
HETATM   16  O   UNL     1     -43.576  54.741 -55.067  1.00  0.00    -0.267 OA
BRANCH  14  17
HETATM   17  C   UNL     1     -40.890  54.240 -53.848  1.00  0.00     0.041 A 
HETATM   18  C   UNL     1     -40.807  54.124 -52.442  1.00  0.00    -0.035 A 
HETATM   19  C   UNL     1     -41.301  55.198 -51.509  1.00  0.00     0.050 C 
HETATM   20  C   UNL     1     -40.274  52.952 -51.874  1.00  0.00     0.009 A 
HETATM   21  C   UNL     1     -39.818  51.909 -52.678  1.00  0.00     0.001 A 
HETATM   22  C   UNL     1     -39.894  52.024 -54.059  1.00  0.00     0.002 A 
HETATM   23  C   UNL     1     -40.426  53.179 -54.638  1.00  0.00     0.030 A 
ENDBRANCH  14  17
ENDBRANCH   1  13
BRANCH   2  24
HETATM   24  C   UNL     1     -43.466  56.829 -57.926  1.00  0.00    -0.028 A 
HETATM   25  C   UNL     1     -44.678  57.501 -58.161  1.00  0.00     0.012 A 
HETATM   26  C   UNL     1     -45.545  57.073 -59.168  1.00  0.00     0.037 A 
HETATM   27  C   UNL     1     -45.214  55.985 -59.975  1.00  0.00     0.068 A 
HETATM   28  C   UNL     1     -44.017  55.308 -59.750  1.00  0.00     0.037 A 
HETATM   29  C   UNL     1     -43.149  55.726 -58.734  1.00  0.00     0.012 A 
BRANCH  27  30
HETATM   30  O   UNL     1     -46.141  55.678 -60.932  1.00  0.00    -0.356 OA
HETATM   31  C   UNL     1     -47.322  56.472 -60.945  1.00  0.00     0.210 C 
ENDBRANCH  27  30
ENDBRANCH   2  24
TORSDOF 4
ENDMDL
MODEL 2
REMARK VINA RESULT:      -8.5      3.212      6.017
REMARK  4 active torsions:
REMARK  status: ('A' for Active; 'I' for Inactive)
REMARK    1  A    between atoms: C_3  and  N_4 
REMARK       I    between atoms: N_4  and  C_5 
REMARK    2  A    between atoms: C_5  and  C_6 
REMARK    3  A    between atoms: C_7  and  C_8 
REMARK    4  A    between atoms: C_11  and  O_12 
ROOT
HETATM    1  C   UNL     1     -43.055  56.113 -53.963  1.00  0.00     0.062 C 
HETATM    2  C   UNL     1     -43.279  57.170 -52.893  1.00  0.00     0.202 C 
HETATM    3  N   UNL     1     -44.150  58.236 -53.395  1.00  0.00    -0.083 N 
HETATM    4  C   UNL     1     -44.437  58.424 -54.719  1.00  0.00     0.726 A 
HETATM    5  N   UNL     1     -43.954  57.552 -55.629  1.00  0.00    -0.192 N 
HETATM    6  N   UNL     1     -44.794  59.126 -52.615  1.00  0.00    -0.141 NA
HETATM    7  C   UNL     1     -45.414  59.869 -53.545  1.00  0.00     0.162 A 
HETATM    8  C   UNL     1     -46.276  61.016 -53.199  1.00  0.00     0.096 C 
HETATM    9  N   UNL     1     -45.219  59.466 -54.848  1.00  0.00    -0.046 NA
HETATM   10  C   UNL     1     -43.384  56.335 -55.261  1.00  0.00     0.037 C 
HETATM   11  C   UNL     1     -43.210  55.324 -56.366  1.00  0.00     0.070 C 
HETATM   12  H   UNL     1     -44.300  57.627 -56.583  1.00  0.00     0.184 HD
ENDROOT
BRANCH   1  13
HETATM   13  C   UNL     1     -42.701  54.751 -53.494  1.00  0.00     0.256 C 
HETATM   14  N   UNL     1     -41.368  54.443 -53.639  1.00  0.00    -0.323 N 
HETATM   15  H   UNL     1     -40.772  55.151 -54.046  1.00  0.00     0.169 HD
HETATM   16  O   UNL     1     -43.589  54.047 -53.025  1.00  0.00    -0.267 OA
BRANCH  14  17
HETATM   17  C   UNL     1     -40.720  53.235 -53.274  1.00  0.00     0.041 A 
HETATM   18  C   UNL     1     -40.262  53.079 -51.946  1.00  0.00    -0.035 A 
HETATM   19  C   UNL     1     -40.456  54.136 -50.891  1.00  0.00     0.050 C 
HETATM   20  C   UNL     1     -39.626  51.881 -51.570  1.00  0.00     0.009 A 
HETATM   21  C   UNL     1     -39.434  50.852 -52.489  1.00  0.00     0.001 A 
HETATM   22  C   UNL     1     -39.878  51.007 -53.794  1.00  0.00     0.002 A 
HETATM   23  C   UNL     1     -40.516  52.188 -54.182  1.00  0.00     0.030 A 
ENDBRANCH  14  17
ENDBRANCH   1  13
BRANCH   2  24
HETATM   24  C   UNL     1     -41.976  57.790 -52.390  1.00  0.00    -0.028 A 
HETATM   25  C   UNL     1     -40.999  58.273 -53.278  1.00  0.00     0.012 A 
HETATM   26  C   UNL     1     -39.826  58.856 -52.796  1.00  0.00     0.037 A 
HETATM   27  C   UNL     1     -39.611  58.991 -51.425  1.00  0.00     0.068 A 
HETATM   28  C   UNL     1     -40.570  58.513 -50.534  1.00  0.00     0.037 A 
HETATM   29  C   UNL     1     -41.744  57.916 -51.012  1.00  0.00     0.012 A 
BRANCH  27  30
HETATM   30  O   UNL     1     -38.431  59.593 -51.085  1.00  0.00    -0.356 OA
HETATM   31  C   UNL     1     -38.271  59.942 -49.715  1.00  0.00     0.210 C 
ENDBRANCH  27  30
ENDBRANCH   2  24
TORSDOF 4
ENDMDL
MODEL 3
REMARK VINA RESULT:      -7.7      2.765      4.471
REMARK  4 active torsions:
REMARK  status: ('A' for Active; 'I' for Inactive)
REMARK    1  A    between atoms: C_3  and  N_4 
REMARK       I    between atoms: N_4  and  C_5 
REMARK    2  A    between atoms: C_5  and  C_6 
REMARK    3  A    between atoms: C_7  and  C_8 
REMARK    4  A    between atoms: C_11  and  O_12 
ROOT
HETATM    1  C   UNL     1     -43.031  56.726 -51.756  1.00  0.00     0.062 C 
HETATM    2  C   UNL     1     -42.885  58.054 -52.482  1.00  0.00     0.202 C 
HETATM    3  N   UNL     1     -43.767  59.065 -51.894  1.00  0.00    -0.083 N 
HETATM    4  C   UNL     1     -44.804  58.772 -51.051  1.00  0.00     0.726 A 
HETATM    5  N   UNL     1     -45.005  57.492 -50.673  1.00  0.00    -0.192 N 
HETATM    6  N   UNL     1     -43.641  60.393 -52.084  1.00  0.00    -0.141 NA
HETATM    7  C   UNL     1     -44.680  60.847 -51.366  1.00  0.00     0.162 A 
HETATM    8  C   UNL     1     -44.994  62.284 -51.248  1.00  0.00     0.096 C 
HETATM    9  N   UNL     1     -45.415  59.880 -50.716  1.00  0.00    -0.046 NA
HETATM   10  C   UNL     1     -44.061  56.492 -50.904  1.00  0.00     0.037 C 
HETATM   11  C   UNL     1     -44.254  55.210 -50.135  1.00  0.00     0.070 C 
HETATM   12  H   UNL     1     -45.684  57.320 -49.935  1.00  0.00     0.184 HD
ENDROOT
BRANCH   1  13
HETATM   13  C   UNL     1     -41.876  55.798 -51.819  1.00  0.00     0.256 C 
HETATM   14  N   UNL     1     -42.094  54.695 -52.613  1.00  0.00    -0.323 N 
HETATM   15  H   UNL     1     -42.997  54.620 -53.061  1.00  0.00     0.169 HD
HETATM   16  O   UNL     1     -40.862  56.086 -51.193  1.00  0.00    -0.267 OA
BRANCH  14  17
HETATM   17  C   UNL     1     -41.185  53.641 -52.887  1.00  0.00     0.041 A 
HETATM   18  C   UNL     1     -40.801  53.399 -54.225  1.00  0.00    -0.035 A 
HETATM   19  C   UNL     1     -41.298  54.233 -55.375  1.00  0.00     0.050 C 
HETATM   20  C   UNL     1     -39.892  52.362 -54.507  1.00  0.00     0.009 A 
HETATM   21  C   UNL     1     -39.375  51.565 -53.489  1.00  0.00     0.001 A 
HETATM   22  C   UNL     1     -39.757  51.798 -52.175  1.00  0.00     0.002 A 
HETATM   23  C   UNL     1     -40.653  52.828 -51.878  1.00  0.00     0.030 A 
ENDBRANCH  14  17
ENDBRANCH   1  13
BRANCH   2  24
HETATM   24  C   UNL     1     -43.181  57.947 -53.978  1.00  0.00    -0.028 A 
HETATM   25  C   UNL     1     -42.149  57.908 -54.932  1.00  0.00     0.012 A 
HETATM   26  C   UNL     1     -42.442  57.787 -56.291  1.00  0.00     0.037 A 
HETATM   27  C   UNL     1     -43.762  57.681 -56.727  1.00  0.00     0.068 A 
HETATM   28  C   UNL     1     -44.795  57.724 -55.792  1.00  0.00     0.037 A 
HETATM   29  C   UNL     1     -44.507  57.856 -54.427  1.00  0.00     0.012 A 
BRANCH  27  30
HETATM   30  O   UNL     1     -43.912  57.553 -58.081  1.00  0.00    -0.356 OA
HETATM   31  C   UNL     1     -43.443  56.338 -58.656  1.00  0.00     0.210 C 
ENDBRANCH  27  30
ENDBRANCH   2  24
TORSDOF 4
ENDMDL
MODEL 4
REMARK VINA RESULT:      -7.7      2.748      5.435
REMARK  4 active torsions:
REMARK  status: ('A' for Active; 'I' for Inactive)
REMARK    1  A    between atoms: C_3  and  N_4 
REMARK       I    between atoms: N_4  and  C_5 
REMARK    2  A    between atoms: C_5  and  C_6 
REMARK    3  A    between atoms: C_7  and  C_8 
REMARK    4  A    between atoms: C_11  and  O_12 
ROOT
HETATM    1  C   UNL     1     -42.621  55.996 -54.424  1.00  0.00     0.062 C 
HETATM    2  C   UNL     1     -43.773  56.976 -54.585  1.00  0.00     0.202 C 
HETATM    3  N   UNL     1     -44.031  57.242 -56.002  1.00  0.00    -0.083 N 
HETATM    4  C   UNL     1     -43.158  56.927 -57.007  1.00  0.00     0.726 A 
HETATM    5  N   UNL     1     -42.015  56.274 -56.707  1.00  0.00    -0.192 N 
HETATM    6  N   UNL     1     -45.165  57.791 -56.482  1.00  0.00    -0.141 NA
HETATM    7  C   UNL     1     -44.885  57.832 -57.794  1.00  0.00     0.162 A 
HETATM    8  C   UNL     1     -45.833  58.368 -58.790  1.00  0.00     0.096 C 
HETATM    9  N   UNL     1     -43.662  57.309 -58.153  1.00  0.00    -0.046 NA
HETATM   10  C   UNL     1     -41.799  55.691 -55.460  1.00  0.00     0.037 C 
HETATM   11  C   UNL     1     -40.654  54.713 -55.377  1.00  0.00     0.070 C 
HETATM   12  H   UNL     1     -41.457  55.922 -57.482  1.00  0.00     0.184 HD
ENDROOT
BRANCH   1  13
HETATM   13  C   UNL     1     -42.587  55.202 -53.172  1.00  0.00     0.256 C 
HETATM   14  N   UNL     1     -41.483  55.449 -52.389  1.00  0.00    -0.323 N 
HETATM   15  H   UNL     1     -40.814  56.125 -52.733  1.00  0.00     0.169 HD
HETATM   16  O   UNL     1     -43.514  54.433 -52.945  1.00  0.00    -0.267 OA
BRANCH  14  17
HETATM   17  C   UNL     1     -41.172  54.866 -51.134  1.00  0.00     0.041 A 
HETATM   18  C   UNL     1     -40.605  53.572 -51.102  1.00  0.00    -0.035 A 
HETATM   19  C   UNL     1     -40.293  52.792 -52.351  1.00  0.00     0.050 C 
HETATM   20  C   UNL     1     -40.283  52.987 -49.862  1.00  0.00     0.009 A 
HETATM   21  C   UNL     1     -40.524  53.662 -48.668  1.00  0.00     0.001 A 
HETATM   22  C   UNL     1     -41.086  54.931 -48.698  1.00  0.00     0.002 A 
HETATM   23  C   UNL     1     -41.405  55.527 -49.921  1.00  0.00     0.030 A 
ENDBRANCH  14  17
ENDBRANCH   1  13
BRANCH   2  24
HETATM   24  C   UNL     1     -43.526  58.303 -53.868  1.00  0.00    -0.028 A 
HETATM   25  C   UNL     1     -44.486  58.866 -53.009  1.00  0.00     0.012 A 
HETATM   26  C   UNL     1     -44.230  60.068 -52.347  1.00  0.00     0.037 A 
HETATM   27  C   UNL     1     -43.009  60.722 -52.509  1.00  0.00     0.068 A 
HETATM   28  C   UNL     1     -42.051  60.178 -53.362  1.00  0.00     0.037 A 
HETATM   29  C   UNL     1     -42.307  58.977 -54.037  1.00  0.00     0.012 A 
BRANCH  27  30
HETATM   30  O   UNL     1     -42.880  61.881 -51.794  1.00  0.00    -0.356 OA
HETATM   31  C   UNL     1     -42.924  61.757 -50.377  1.00  0.00     0.210 C 
ENDBRANCH  27  30
ENDBRANCH   2  24
TORSDOF 4
ENDMDL
MODEL 5
REMARK VINA RESULT:      -7.6      2.722      3.788
REMARK  4 active torsions:
REMARK  status: ('A' for Active; 'I' for Inactive)
REMARK    1  A    between atoms: C_3  and  N_4 
REMARK       I    between atoms: N_4  and  C_5 
REMARK    2  A    between atoms: C_5  and  C_6 
REMARK    3  A    between atoms: C_7  and  C_8 
REMARK    4  A    between atoms: C_11  and  O_12 
ROOT
HETATM    1  C   UNL     1     -42.360  56.883 -52.573  1.00  0.00     0.062 C 
HETATM    2  C   UNL     1     -42.386  58.193 -53.345  1.00  0.00     0.202 C 
HETATM    3  N   UNL     1     -42.865  59.285 -52.496  1.00  0.00    -0.083 N 
HETATM    4  C   UNL     1     -43.510  59.096 -51.304  1.00  0.00     0.726 A 
HETATM    5  N   UNL     1     -43.667  57.841 -50.831  1.00  0.00    -0.192 N 
HETATM    6  N   UNL     1     -42.698  60.595 -52.768  1.00  0.00    -0.141 NA
HETATM    7  C   UNL     1     -43.322  61.148 -51.717  1.00  0.00     0.162 A 
HETATM    8  C   UNL     1     -43.427  62.610 -51.537  1.00  0.00     0.096 C 
HETATM    9  N   UNL     1     -43.832  60.259 -50.797  1.00  0.00    -0.046 NA
HETATM   10  C   UNL     1     -42.990  56.752 -51.378  1.00  0.00     0.037 C 
HETATM   11  C   UNL     1     -42.985  55.492 -50.549  1.00  0.00     0.070 C 
HETATM   12  H   UNL     1     -44.014  57.736 -49.880  1.00  0.00     0.184 HD
ENDROOT
BRANCH   1  13
HETATM   13  C   UNL     1     -41.417  55.843 -53.050  1.00  0.00     0.256 C 
HETATM   14  N   UNL     1     -41.711  54.578 -52.595  1.00  0.00    -0.323 N 
HETATM   15  H   UNL     1     -42.516  54.480 -51.991  1.00  0.00     0.169 HD
HETATM   16  O   UNL     1     -40.499  56.182 -53.787  1.00  0.00    -0.267 OA
BRANCH  14  17
HETATM   17  C   UNL     1     -41.013  53.377 -52.884  1.00  0.00     0.041 A 
HETATM   18  C   UNL     1     -40.149  52.835 -51.907  1.00  0.00    -0.035 A 
HETATM   19  C   UNL     1     -39.954  53.468 -50.555  1.00  0.00     0.050 C 
HETATM   20  C   UNL     1     -39.460  51.638 -52.179  1.00  0.00     0.009 A 
HETATM   21  C   UNL     1     -39.610  50.987 -53.402  1.00  0.00     0.001 A 
HETATM   22  C   UNL     1     -40.455  51.522 -54.364  1.00  0.00     0.002 A 
HETATM   23  C   UNL     1     -41.150  52.706 -54.106  1.00  0.00     0.030 A 
ENDBRANCH  14  17
ENDBRANCH   1  13
BRANCH   2  24
HETATM   24  C   UNL     1     -43.255  58.123 -54.601  1.00  0.00    -0.028 A 
HETATM   25  C   UNL     1     -44.658  58.093 -54.525  1.00  0.00     0.012 A 
HETATM   26  C   UNL     1     -45.432  58.052 -55.685  1.00  0.00     0.037 A 
HETATM   27  C   UNL     1     -44.829  58.063 -56.943  1.00  0.00     0.068 A 
HETATM   28  C   UNL     1     -43.439  58.088 -57.032  1.00  0.00     0.037 A 
HETATM   29  C   UNL     1     -42.656  58.118 -55.871  1.00  0.00     0.012 A 
BRANCH  27  30
HETATM   30  O   UNL     1     -45.700  58.036 -57.997  1.00  0.00    -0.356 OA
HETATM   31  C   UNL     1     -47.085  58.061 -57.673  1.00  0.00     0.210 C 
ENDBRANCH  27  30
ENDBRANCH   2  24
TORSDOF 4
ENDMDL
MODEL 6
REMARK VINA RESULT:      -7.5      3.081      4.665
REMARK  4 active torsions:
REMARK  status: ('A' for Active; 'I' for Inactive)
REMARK    1  A    between atoms: C_3  and  N_4 
REMARK       I    between atoms: N_4  and  C_5 
REMARK    2  A    between atoms: C_5  and  C_6 
REMARK    3  A    between atoms: C_7  and  C_8 
REMARK    4  A    between atoms: C_11  and  O_12 
ROOT
HETATM    1  C   UNL     1     -41.961  55.466 -52.238  1.00  0.00     0.062 C 
HETATM    2  C   UNL     1     -41.056  56.557 -52.790  1.00  0.00     0.202 C 
HETATM    3  N   UNL     1     -40.828  57.597 -51.783  1.00  0.00    -0.083 N 
HETATM    4  C   UNL     1     -41.580  57.737 -50.649  1.00  0.00     0.726 A 
HETATM    5  N   UNL     1     -42.554  56.839 -50.389  1.00  0.00    -0.192 N 
HETATM    6  N   UNL     1     -39.835  58.507 -51.837  1.00  0.00    -0.141 NA
HETATM    7  C   UNL     1     -40.083  59.211 -50.722  1.00  0.00     0.162 A 
HETATM    8  C   UNL     1     -39.254  60.361 -50.310  1.00  0.00     0.096 C 
HETATM    9  N   UNL     1     -41.146  58.766 -49.967  1.00  0.00    -0.046 NA
HETATM   10  C   UNL     1     -42.666  55.640 -51.092  1.00  0.00     0.037 C 
HETATM   11  C   UNL     1     -43.561  54.594 -50.477  1.00  0.00     0.070 C 
HETATM   12  H   UNL     1     -42.998  56.878 -49.474  1.00  0.00     0.184 HD
ENDROOT
BRANCH   1  13
HETATM   13  C   UNL     1     -41.847  54.124 -52.860  1.00  0.00     0.256 C 
HETATM   14  N   UNL     1     -40.692  53.455 -52.527  1.00  0.00    -0.323 N 
HETATM   15  H   UNL     1     -40.045  53.929 -51.911  1.00  0.00     0.169 HD
HETATM   16  O   UNL     1     -42.759  53.737 -53.580  1.00  0.00    -0.267 OA
BRANCH  14  17
HETATM   17  C   UNL     1     -40.300  52.157 -52.943  1.00  0.00     0.041 A 
HETATM   18  C   UNL     1     -40.003  51.184 -51.962  1.00  0.00    -0.035 A 
HETATM   19  C   UNL     1     -40.110  51.461 -50.486  1.00  0.00     0.050 C 
HETATM   20  C   UNL     1     -39.623  49.890 -52.364  1.00  0.00     0.009 A 
HETATM   21  C   UNL     1     -39.525  49.558 -53.713  1.00  0.00     0.001 A 
HETATM   22  C   UNL     1     -39.810  50.515 -54.677  1.00  0.00     0.002 A 
HETATM   23  C   UNL     1     -40.195  51.802 -54.294  1.00  0.00     0.030 A 
ENDBRANCH  14  17
ENDBRANCH   1  13
BRANCH   2  24
HETATM   24  C   UNL     1     -41.615  57.207 -54.055  1.00  0.00    -0.028 A 
HETATM   25  C   UNL     1     -41.975  58.565 -54.089  1.00  0.00     0.012 A 
HETATM   26  C   UNL     1     -42.462  59.143 -55.263  1.00  0.00     0.037 A 
HETATM   27  C   UNL     1     -42.579  58.389 -56.430  1.00  0.00     0.068 A 
HETATM   28  C   UNL     1     -42.230  57.040 -56.409  1.00  0.00     0.037 A 
HETATM   29  C   UNL     1     -41.751  56.452 -55.231  1.00  0.00     0.012 A 
BRANCH  27  30
HETATM   30  O   UNL     1     -43.054  59.078 -57.512  1.00  0.00    -0.356 OA
HETATM   31  C   UNL     1     -43.928  58.365 -58.380  1.00  0.00     0.210 C 
ENDBRANCH  27  30
ENDBRANCH   2  24
TORSDOF 4
ENDMDL
MODEL 7
REMARK VINA RESULT:      -7.3     16.441     20.102
REMARK  4 active torsions:
REMARK  status: ('A' for Active; 'I' for Inactive)
REMARK    1  A    between atoms: C_3  and  N_4 
REMARK       I    between atoms: N_4  and  C_5 
REMARK    2  A    between atoms: C_5  and  C_6 
REMARK    3  A    between atoms: C_7  and  C_8 
REMARK    4  A    between atoms: C_11  and  O_12 
ROOT
HETATM    1  C   UNL     1     -35.071  40.179 -55.051  1.00  0.00     0.062 C 
HETATM    2  C   UNL     1     -34.133  39.277 -54.265  1.00  0.00     0.202 C 
HETATM    3  N   UNL     1     -33.939  39.791 -52.907  1.00  0.00    -0.083 N 
HETATM    4  C   UNL     1     -34.276  41.059 -52.518  1.00  0.00     0.726 A 
HETATM    5  N   UNL     1     -34.881  41.881 -53.401  1.00  0.00    -0.192 N 
HETATM    6  N   UNL     1     -33.446  39.070 -51.881  1.00  0.00    -0.141 NA
HETATM    7  C   UNL     1     -33.456  39.990 -50.904  1.00  0.00     0.162 A 
HETATM    8  C   UNL     1     -32.994  39.695 -49.533  1.00  0.00     0.096 C 
HETATM    9  N   UNL     1     -33.960  41.222 -51.258  1.00  0.00    -0.046 NA
HETATM   10  C   UNL     1     -35.400  41.419 -54.610  1.00  0.00     0.037 C 
HETATM   11  C   UNL     1     -36.341  42.355 -55.326  1.00  0.00     0.070 C 
HETATM   12  H   UNL     1     -35.252  42.760 -53.047  1.00  0.00     0.184 HD
ENDROOT
BRANCH   1  13
HETATM   13  C   UNL     1     -35.806  39.559 -56.181  1.00  0.00     0.256 C 
HETATM   14  N   UNL     1     -35.422  40.028 -57.416  1.00  0.00    -0.323 N 
HETATM   15  H   UNL     1     -34.700  40.735 -57.437  1.00  0.00     0.169 HD
HETATM   16  O   UNL     1     -36.651  38.707 -55.929  1.00  0.00    -0.267 OA
BRANCH  14  17
HETATM   17  C   UNL     1     -35.920  39.625 -58.681  1.00  0.00     0.041 A 
HETATM   18  C   UNL     1     -36.828  40.468 -59.360  1.00  0.00    -0.035 A 
HETATM   19  C   UNL     1     -37.273  41.795 -58.805  1.00  0.00     0.050 C 
HETATM   20  C   UNL     1     -37.322  40.082 -60.621  1.00  0.00     0.009 A 
HETATM   21  C   UNL     1     -36.935  38.878 -61.204  1.00  0.00     0.001 A 
HETATM   22  C   UNL     1     -36.047  38.046 -60.535  1.00  0.00     0.002 A 
HETATM   23  C   UNL     1     -35.544  38.418 -59.286  1.00  0.00     0.030 A 
ENDBRANCH  14  17
ENDBRANCH   1  13
BRANCH   2  24
HETATM   24  C   UNL     1     -32.768  39.116 -54.933  1.00  0.00    -0.028 A 
HETATM   25  C   UNL     1     -31.985  37.964 -54.741  1.00  0.00     0.012 A 
HETATM   26  C   UNL     1     -30.751  37.828 -55.379  1.00  0.00     0.037 A 
HETATM   27  C   UNL     1     -30.282  38.822 -56.237  1.00  0.00     0.068 A 
HETATM   28  C   UNL     1     -31.045  39.971 -56.433  1.00  0.00     0.037 A 
HETATM   29  C   UNL     1     -32.279  40.118 -55.786  1.00  0.00     0.012 A 
BRANCH  27  30
HETATM   30  O   UNL     1     -29.068  38.559 -56.810  1.00  0.00    -0.356 OA
HETATM   31  C   UNL     1     -28.135  37.841 -56.011  1.00  0.00     0.210 C 
ENDBRANCH  27  30
ENDBRANCH   2  24
TORSDOF 4
ENDMDL
MODEL 8
REMARK VINA RESULT:      -7.2      3.214      8.011
REMARK  4 active torsions:
REMARK  status: ('A' for Active; 'I' for Inactive)
REMARK    1  A    between atoms: C_3  and  N_4 
REMARK       I    between atoms: N_4  and  C_5 
REMARK    2  A    between atoms: C_5  and  C_6 
REMARK    3  A    between atoms: C_7  and  C_8 
REMARK    4  A    between atoms: C_11  and  O_12 
ROOT
HETATM    1  C   UNL     1     -42.127  55.937 -53.193  1.00  0.00     0.062 C 
HETATM    2  C   UNL     1     -41.306  56.444 -52.018  1.00  0.00     0.202 C 
HETATM    3  N   UNL     1     -41.379  55.507 -50.894  1.00  0.00    -0.083 N 
HETATM    4  C   UNL     1     -42.309  54.508 -50.795  1.00  0.00     0.726 A 
HETATM    5  N   UNL     1     -43.179  54.314 -51.808  1.00  0.00    -0.192 N 
HETATM    6  N   UNL     1     -40.524  55.495 -49.852  1.00  0.00    -0.141 NA
HETATM    7  C   UNL     1     -41.034  54.491 -49.123  1.00  0.00     0.162 A 
HETATM    8  C   UNL     1     -40.443  54.064 -47.839  1.00  0.00     0.096 C 
HETATM    9  N   UNL     1     -42.129  53.861 -49.671  1.00  0.00    -0.046 NA
HETATM   10  C   UNL     1     -43.017  54.922 -53.052  1.00  0.00     0.037 C 
HETATM   11  C   UNL     1     -43.845  54.355 -54.178  1.00  0.00     0.070 C 
HETATM   12  H   UNL     1     -43.759  53.479 -51.777  1.00  0.00     0.184 HD
ENDROOT
BRANCH   1  13
HETATM   13  C   UNL     1     -41.737  56.420 -54.540  1.00  0.00     0.256 C 
HETATM   14  N   UNL     1     -42.511  57.460 -55.002  1.00  0.00    -0.323 N 
HETATM   15  H   UNL     1     -43.255  57.785 -54.399  1.00  0.00     0.169 HD
HETATM   16  O   UNL     1     -40.790  55.881 -55.101  1.00  0.00    -0.267 OA
BRANCH  14  17
HETATM   17  C   UNL     1     -42.381  58.146 -56.236  1.00  0.00     0.041 A 
HETATM   18  C   UNL     1     -42.217  59.550 -56.225  1.00  0.00    -0.035 A 
HETATM   19  C   UNL     1     -42.150  60.349 -54.951  1.00  0.00     0.050 C 
HETATM   20  C   UNL     1     -42.077  60.240 -57.444  1.00  0.00     0.009 A 
HETATM   21  C   UNL     1     -42.107  59.560 -58.660  1.00  0.00     0.001 A 
HETATM   22  C   UNL     1     -42.273  58.182 -58.672  1.00  0.00     0.002 A 
HETATM   23  C   UNL     1     -42.408  57.483 -57.470  1.00  0.00     0.030 A 
ENDBRANCH  14  17
ENDBRANCH   1  13
BRANCH   2  24
HETATM   24  C   UNL     1     -41.747  57.827 -51.539  1.00  0.00    -0.028 A 
HETATM   25  C   UNL     1     -43.094  58.227 -51.584  1.00  0.00     0.012 A 
HETATM   26  C   UNL     1     -43.478  59.486 -51.121  1.00  0.00     0.037 A 
HETATM   27  C   UNL     1     -42.536  60.363 -50.584  1.00  0.00     0.068 A 
HETATM   28  C   UNL     1     -41.196  59.981 -50.538  1.00  0.00     0.037 A 
HETATM   29  C   UNL     1     -40.804  58.722 -51.012  1.00  0.00     0.012 A 
BRANCH  27  30
HETATM   30  O   UNL     1     -43.043  61.558 -50.153  1.00  0.00    -0.356 OA
HETATM   31  C   UNL     1     -44.154  61.489 -49.266  1.00  0.00     0.210 C 
ENDBRANCH  27  30
ENDBRANCH   2  24
TORSDOF 4
ENDMDL
MODEL 9
REMARK VINA RESULT:      -7.2      1.809      6.959
REMARK  4 active torsions:
REMARK  status: ('A' for Active; 'I' for Inactive)
REMARK    1  A    between atoms: C_3  and  N_4 
REMARK       I    between atoms: N_4  and  C_5 
REMARK    2  A    between atoms: C_5  and  C_6 
REMARK    3  A    between atoms: C_7  and  C_8 
REMARK    4  A    between atoms: C_11  and  O_12 
ROOT
HETATM    1  C   UNL     1     -42.856  57.573 -56.244  1.00  0.00     0.062 C 
HETATM    2  C   UNL     1     -43.258  57.098 -54.857  1.00  0.00     0.202 C 
HETATM    3  N   UNL     1     -43.139  58.186 -53.883  1.00  0.00    -0.083 N 
HETATM    4  C   UNL     1     -42.453  59.346 -54.118  1.00  0.00     0.726 A 
HETATM    5  N   UNL     1     -41.899  59.550 -55.332  1.00  0.00    -0.192 N 
HETATM    6  N   UNL     1     -43.718  58.189 -52.666  1.00  0.00    -0.141 NA
HETATM    7  C   UNL     1     -43.288  59.367 -52.189  1.00  0.00     0.162 A 
HETATM    8  C   UNL     1     -43.651  59.858 -50.845  1.00  0.00     0.096 C 
HETATM    9  N   UNL     1     -42.510  60.106 -53.054  1.00  0.00    -0.046 NA
HETATM   10  C   UNL     1     -42.202  58.748 -56.431  1.00  0.00     0.037 C 
HETATM   11  C   UNL     1     -41.795  59.289 -57.778  1.00  0.00     0.070 C 
HETATM   12  H   UNL     1     -41.524  60.476 -55.529  1.00  0.00     0.184 HD
ENDROOT
BRANCH   1  13
HETATM   13  C   UNL     1     -43.426  56.833 -57.396  1.00  0.00     0.256 C 
HETATM   14  N   UNL     1     -44.578  57.393 -57.900  1.00  0.00    -0.323 N 
HETATM   15  H   UNL     1     -44.922  58.229 -57.447  1.00  0.00     0.169 HD
HETATM   16  O   UNL     1     -42.841  55.832 -57.793  1.00  0.00    -0.267 OA
BRANCH  14  17
HETATM   17  C   UNL     1     -45.347  56.934 -59.000  1.00  0.00     0.041 A 
HETATM   18  C   UNL     1     -46.636  57.474 -59.207  1.00  0.00    -0.035 A 
HETATM   19  C   UNL     1     -47.222  58.540 -58.319  1.00  0.00     0.050 C 
HETATM   20  C   UNL     1     -47.404  57.033 -60.302  1.00  0.00     0.009 A 
HETATM   21  C   UNL     1     -46.915  56.066 -61.177  1.00  0.00     0.001 A 
HETATM   22  C   UNL     1     -45.651  55.531 -60.971  1.00  0.00     0.002 A 
HETATM   23  C   UNL     1     -44.875  55.962 -59.892  1.00  0.00     0.030 A 
ENDBRANCH  14  17
ENDBRANCH   1  13
BRANCH   2  24
HETATM   24  C   UNL     1     -42.428  55.909 -54.374  1.00  0.00    -0.028 A 
HETATM   25  C   UNL     1     -42.984  54.903 -53.565  1.00  0.00     0.012 A 
HETATM   26  C   UNL     1     -42.214  53.813 -53.155  1.00  0.00     0.037 A 
HETATM   27  C   UNL     1     -40.885  53.691 -53.558  1.00  0.00     0.068 A 
HETATM   28  C   UNL     1     -40.320  54.684 -54.356  1.00  0.00     0.037 A 
HETATM   29  C   UNL     1     -41.085  55.785 -54.762  1.00  0.00     0.012 A 
BRANCH  27  30
HETATM   30  O   UNL     1     -40.247  52.571 -53.100  1.00  0.00    -0.356 OA
HETATM   31  C   UNL     1     -39.981  52.523 -51.703  1.00  0.00     0.210 C 
ENDBRANCH  27  30
ENDBRANCH   2  24
TORSDOF 4
ENDMDL
MODEL 10
REMARK VINA RESULT:      -7.1      2.412      3.406
REMARK  4 active torsions:
REMARK  status: ('A' for Active; 'I' for Inactive)
REMARK    1  A    between atoms: C_3  and  N_4 
REMARK       I    between atoms: N_4  and  C_5 
REMARK    2  A    between atoms: C_5  and  C_6 
REMARK    3  A    between atoms: C_7  and  C_8 
REMARK    4  A    between atoms: C_11  and  O_12 
ROOT
HETATM    1  C   UNL     1     -43.628  58.277 -53.182  1.00  0.00     0.062 C 
HETATM    2  C   UNL     1     -43.590  59.352 -54.257  1.00  0.00     0.202 C 
HETATM    3  N   UNL     1     -44.384  60.515 -53.853  1.00  0.00    -0.083 N 
HETATM    4  C   UNL     1     -45.290  60.499 -52.827  1.00  0.00     0.726 A 
HETATM    5  N   UNL     1     -45.431  59.378 -52.090  1.00  0.00    -0.192 N 
HETATM    6  N   UNL     1     -44.289  61.737 -54.414  1.00  0.00    -0.141 NA
HETATM    7  C   UNL     1     -45.217  62.405 -53.712  1.00  0.00     0.162 A 
HETATM    8  C   UNL     1     -45.516  63.831 -53.950  1.00  0.00     0.096 C 
HETATM    9  N   UNL     1     -45.851  61.678 -52.728  1.00  0.00    -0.046 NA
HETATM   10  C   UNL     1     -44.527  58.320 -52.166  1.00  0.00     0.037 C 
HETATM   11  C   UNL     1     -44.605  57.302 -51.057  1.00  0.00     0.070 C 
HETATM   12  H   UNL     1     -45.999  59.437 -51.247  1.00  0.00     0.184 HD
ENDROOT
BRANCH   1  13
HETATM   13  C   UNL     1     -42.491  57.325 -53.147  1.00  0.00     0.256 C 
HETATM   14  N   UNL     1     -42.742  56.137 -53.794  1.00  0.00    -0.323 N 
HETATM   15  H   UNL     1     -43.654  56.025 -54.216  1.00  0.00     0.169 HD
HETATM   16  O   UNL     1     -41.462  57.668 -52.577  1.00  0.00    -0.267 OA
BRANCH  14  17
HETATM   17  C   UNL     1     -41.857  55.039 -53.949  1.00  0.00     0.041 A 
HETATM   18  C   UNL     1     -41.869  54.009 -52.982  1.00  0.00    -0.035 A 
HETATM   19  C   UNL     1     -42.802  54.016 -51.801  1.00  0.00     0.050 C 
HETATM   20  C   UNL     1     -41.002  52.910 -53.131  1.00  0.00     0.009 A 
HETATM   21  C   UNL     1     -40.127  52.829 -54.212  1.00  0.00     0.001 A 
HETATM   22  C   UNL     1     -40.111  53.843 -55.159  1.00  0.00     0.002 A 
HETATM   23  C   UNL     1     -40.970  54.937 -55.028  1.00  0.00     0.030 A 
ENDBRANCH  14  17
ENDBRANCH   1  13
BRANCH   2  24
HETATM   24  C   UNL     1     -44.095  58.854 -55.611  1.00  0.00    -0.028 A 
HETATM   25  C   UNL     1     -43.210  58.543 -56.658  1.00  0.00     0.012 A 
HETATM   26  C   UNL     1     -43.691  58.068 -57.879  1.00  0.00     0.037 A 
HETATM   27  C   UNL     1     -45.058  57.873 -58.076  1.00  0.00     0.068 A 
HETATM   28  C   UNL     1     -45.947  58.183 -57.049  1.00  0.00     0.037 A 
HETATM   29  C   UNL     1     -45.470  58.670 -55.825  1.00  0.00     0.012 A 
BRANCH  27  30
HETATM   30  O   UNL     1     -45.397  57.390 -59.310  1.00  0.00    -0.356 OA
HETATM   31  C   UNL     1     -46.776  57.116 -59.525  1.00  0.00     0.210 C 
ENDBRANCH  27  30
ENDBRANCH   2  24
TORSDOF 4
ENDMDL
