MODEL 1
REMARK VINA RESULT:      -9.0      0.000      0.000
REMARK  2 active torsions:
REMARK  status: ('A' for Active; 'I' for Inactive)
REMARK       I    between atoms: N_4  and  C_5 
REMARK       I    between atoms: C_5  and  N_6 
REMARK    1  A    between atoms: N_6  and  C_7 
REMARK    2  A    between atoms: C_20  and  C_21 
ROOT
HETATM    1  C   UNL     1     -44.281  59.632 -53.414  1.00  0.00     0.011 C 
HETATM    2  C   UNL     1     -45.106  58.999 -54.534  1.00  0.00     0.002 C 
HETATM    3  C   UNL     1     -44.964  57.479 -54.534  1.00  0.00     0.132 C 
HETATM    4  N   UNL     1     -43.832  57.225 -55.408  1.00  0.00    -0.325 N 
HETATM    5  C   UNL     1     -42.798  56.330 -55.198  1.00  0.00     0.323 C 
HETATM    6  N   UNL     1     -43.083  55.356 -54.268  1.00  0.00    -0.309 N 
HETATM    7  O   UNL     1     -41.733  56.426 -55.804  1.00  0.00    -0.247 OA
HETATM    8  C   UNL     1     -43.717  58.269 -56.421  1.00  0.00     0.125 C 
HETATM    9  C   UNL     1     -44.600  59.428 -55.919  1.00  0.00     0.036 C 
HETATM   10  H   UNL     1     -44.064  55.156 -54.154  1.00  0.00     0.170 HD
ENDROOT
BRANCH   6  11
HETATM   11  C   UNL     1     -42.177  54.453 -53.677  1.00  0.00     0.038 A 
HETATM   12  C   UNL     1     -41.799  53.245 -54.268  1.00  0.00     0.062 A 
HETATM   13  C   UNL     1     -40.872  52.412 -53.633  1.00  0.00     0.070 A 
HETATM   14  C   UNL     1     -40.313  52.780 -52.410  1.00  0.00     0.096 A 
HETATM   15  N   UNL     1     -40.482  51.226 -54.253  1.00  0.00    -0.323 N 
HETATM   16  O   UNL     1     -39.377  52.036 -51.746  1.00  0.00    -0.335 OA
HETATM   17  C   UNL     1     -40.671  53.992 -51.825  1.00  0.00     0.041 A 
HETATM   18  C   UNL     1     -39.224  50.697 -52.212  1.00  0.00     0.217 C 
HETATM   19  C   UNL     1     -39.606  50.360 -53.661  1.00  0.00     0.251 C 
HETATM   20  C   UNL     1     -39.998  49.777 -51.270  1.00  0.00     0.050 C 
HETATM   21  O   UNL     1     -39.221  49.345 -54.239  1.00  0.00    -0.270 OA
HETATM   22  C   UNL     1     -41.599  54.825 -52.456  1.00  0.00     0.032 A 
HETATM   23  H   UNL     1     -40.813  50.989 -55.180  1.00  0.00     0.169 HD
ENDBRANCH   6  11
BRANCH   8  24
HETATM   24  C   UNL     1     -44.080  57.736 -57.795  1.00  0.00     0.003 A 
HETATM   25  C   UNL     1     -43.123  57.466 -58.782  1.00  0.00     0.124 A 
HETATM   26  F   UNL     1     -41.820  57.673 -58.543  1.00  0.00    -0.205 F 
HETATM   27  C   UNL     1     -43.483  56.989 -60.042  1.00  0.00     0.043 A 
HETATM   28  C   UNL     1     -44.826  56.794 -60.350  1.00  0.00     0.003 A 
HETATM   29  C   UNL     1     -45.801  57.085 -59.397  1.00  0.00     0.001 A 
HETATM   30  C   UNL     1     -45.431  57.554 -58.133  1.00  0.00     0.012 A 
ENDBRANCH   8  24
TORSDOF 2
ENDMDL
MODEL 2
REMARK VINA RESULT:      -8.5      2.907      4.506
REMARK  2 active torsions:
REMARK  status: ('A' for Active; 'I' for Inactive)
REMARK       I    between atoms: N_4  and  C_5 
REMARK       I    between atoms: C_5  and  N_6 
REMARK    1  A    between atoms: N_6  and  C_7 
REMARK    2  A    between atoms: C_20  and  C_21 
ROOT
HETATM    1  C   UNL     1     -45.160  54.637 -60.022  1.00  0.00     0.011 C 
HETATM    2  C   UNL     1     -44.106  55.639 -60.490  1.00  0.00     0.002 C 
HETATM    3  C   UNL     1     -42.922  55.687 -59.526  1.00  0.00     0.132 C 
HETATM    4  N   UNL     1     -43.282  56.718 -58.570  1.00  0.00    -0.325 N 
HETATM    5  C   UNL     1     -43.124  56.676 -57.196  1.00  0.00     0.323 C 
HETATM    6  N   UNL     1     -42.218  55.732 -56.767  1.00  0.00    -0.309 N 
HETATM    7  O   UNL     1     -43.755  57.425 -56.454  1.00  0.00    -0.247 OA
HETATM    8  C   UNL     1     -44.146  57.718 -59.188  1.00  0.00     0.125 C 
HETATM    9  C   UNL     1     -44.652  57.073 -60.494  1.00  0.00     0.036 C 
HETATM   10  H   UNL     1     -41.516  55.482 -57.445  1.00  0.00     0.170 HD
ENDROOT
BRANCH   6  11
HETATM   11  C   UNL     1     -42.009  55.293 -55.444  1.00  0.00     0.038 A 
HETATM   12  C   UNL     1     -43.000  55.316 -54.459  1.00  0.00     0.062 A 
HETATM   13  C   UNL     1     -42.725  54.839 -53.175  1.00  0.00     0.070 A 
HETATM   14  C   UNL     1     -41.465  54.330 -52.864  1.00  0.00     0.096 A 
HETATM   15  N   UNL     1     -43.736  54.839 -52.214  1.00  0.00    -0.323 N 
HETATM   16  O   UNL     1     -41.131  53.815 -51.642  1.00  0.00    -0.335 OA
HETATM   17  C   UNL     1     -40.479  54.286 -53.846  1.00  0.00     0.041 A 
HETATM   18  C   UNL     1     -42.046  54.108 -50.590  1.00  0.00     0.217 C 
HETATM   19  C   UNL     1     -43.511  54.416 -50.934  1.00  0.00     0.251 C 
HETATM   20  C   UNL     1     -41.476  55.269 -49.776  1.00  0.00     0.050 C 
HETATM   21  O   UNL     1     -44.421  54.364 -50.110  1.00  0.00    -0.270 OA
HETATM   22  C   UNL     1     -40.750  54.766 -55.131  1.00  0.00     0.032 A 
HETATM   23  H   UNL     1     -44.678  55.124 -52.450  1.00  0.00     0.169 HD
ENDBRANCH   6  11
BRANCH   8  24
HETATM   24  C   UNL     1     -43.414  59.035 -59.366  1.00  0.00     0.003 A 
HETATM   25  C   UNL     1     -43.672  60.161 -58.574  1.00  0.00     0.124 A 
HETATM   26  F   UNL     1     -44.599  60.116 -57.606  1.00  0.00    -0.205 F 
HETATM   27  C   UNL     1     -42.994  61.365 -58.767  1.00  0.00     0.043 A 
HETATM   28  C   UNL     1     -42.051  61.473 -59.784  1.00  0.00     0.003 A 
HETATM   29  C   UNL     1     -41.797  60.377 -60.607  1.00  0.00     0.001 A 
HETATM   30  C   UNL     1     -42.473  59.171 -60.401  1.00  0.00     0.012 A 
ENDBRANCH   8  24
TORSDOF 2
ENDMDL
MODEL 3
REMARK VINA RESULT:      -8.4      3.045      8.387
REMARK  2 active torsions:
REMARK  status: ('A' for Active; 'I' for Inactive)
REMARK       I    between atoms: N_4  and  C_5 
REMARK       I    between atoms: C_5  and  N_6 
REMARK    1  A    between atoms: N_6  and  C_7 
REMARK    2  A    between atoms: C_20  and  C_21 
ROOT
HETATM    1  C   UNL     1     -42.546  58.143 -51.476  1.00  0.00     0.011 C 
HETATM    2  C   UNL     1     -41.316  57.258 -51.679  1.00  0.00     0.002 C 
HETATM    3  C   UNL     1     -41.054  57.009 -53.163  1.00  0.00     0.132 C 
HETATM    4  N   UNL     1     -41.804  55.801 -53.460  1.00  0.00    -0.325 N 
HETATM    5  C   UNL     1     -42.587  55.557 -54.574  1.00  0.00     0.323 C 
HETATM    6  N   UNL     1     -42.319  56.389 -55.638  1.00  0.00    -0.309 N 
HETATM    7  O   UNL     1     -43.438  54.670 -54.579  1.00  0.00    -0.247 OA
HETATM    8  C   UNL     1     -41.910  54.954 -52.278  1.00  0.00     0.125 C 
HETATM    9  C   UNL     1     -41.526  55.857 -51.089  1.00  0.00     0.036 C 
HETATM   10  H   UNL     1     -41.388  56.773 -55.649  1.00  0.00     0.170 HD
ENDROOT
BRANCH   6  11
HETATM   11  C   UNL     1     -43.084  56.543 -56.812  1.00  0.00     0.038 A 
HETATM   12  C   UNL     1     -44.178  57.408 -56.910  1.00  0.00     0.062 A 
HETATM   13  C   UNL     1     -44.872  57.527 -58.117  1.00  0.00     0.070 A 
HETATM   14  C   UNL     1     -44.479  56.791 -59.235  1.00  0.00     0.096 A 
HETATM   15  N   UNL     1     -45.940  58.419 -58.207  1.00  0.00    -0.323 N 
HETATM   16  O   UNL     1     -45.087  56.878 -60.456  1.00  0.00    -0.335 OA
HETATM   17  C   UNL     1     -43.379  55.942 -59.149  1.00  0.00     0.041 A 
HETATM   18  C   UNL     1     -46.353  57.533 -60.459  1.00  0.00     0.217 C 
HETATM   19  C   UNL     1     -46.674  58.549 -59.353  1.00  0.00     0.251 C 
HETATM   20  C   UNL     1     -47.441  56.461 -60.475  1.00  0.00     0.050 C 
HETATM   21  O   UNL     1     -47.576  59.380 -59.443  1.00  0.00    -0.270 OA
HETATM   22  C   UNL     1     -42.684  55.819 -57.941  1.00  0.00     0.032 A 
HETATM   23  H   UNL     1     -46.180  59.023 -57.431  1.00  0.00     0.169 HD
ENDBRANCH   6  11
BRANCH   8  24
HETATM   24  C   UNL     1     -41.066  53.701 -52.429  1.00  0.00     0.003 A 
HETATM   25  C   UNL     1     -40.688  52.904 -51.341  1.00  0.00     0.124 A 
HETATM   26  F   UNL     1     -41.067  53.227 -50.095  1.00  0.00    -0.205 F 
HETATM   27  C   UNL     1     -39.902  51.764 -51.504  1.00  0.00     0.043 A 
HETATM   28  C   UNL     1     -39.453  51.409 -52.773  1.00  0.00     0.003 A 
HETATM   29  C   UNL     1     -39.788  52.202 -53.869  1.00  0.00     0.001 A 
HETATM   30  C   UNL     1     -40.585  53.338 -53.698  1.00  0.00     0.012 A 
ENDBRANCH   8  24
TORSDOF 2
ENDMDL
MODEL 4
REMARK VINA RESULT:      -8.0      1.442      2.069
REMARK  2 active torsions:
REMARK  status: ('A' for Active; 'I' for Inactive)
REMARK       I    between atoms: N_4  and  C_5 
REMARK       I    between atoms: C_5  and  N_6 
REMARK    1  A    between atoms: N_6  and  C_7 
REMARK    2  A    between atoms: C_20  and  C_21 
ROOT
HETATM    1  C   UNL     1     -42.393  59.914 -50.984  1.00  0.00     0.011 C 
HETATM    2  C   UNL     1     -43.593  59.660 -51.896  1.00  0.00     0.002 C 
HETATM    3  C   UNL     1     -43.795  58.166 -52.140  1.00  0.00     0.132 C 
HETATM    4  N   UNL     1     -43.004  57.887 -53.326  1.00  0.00    -0.325 N 
HETATM    5  C   UNL     1     -42.176  56.801 -53.543  1.00  0.00     0.323 C 
HETATM    6  N   UNL     1     -42.425  55.734 -52.708  1.00  0.00    -0.309 N 
HETATM    7  O   UNL     1     -41.304  56.821 -54.408  1.00  0.00    -0.247 OA
HETATM    8  C   UNL     1     -42.921  59.067 -54.181  1.00  0.00     0.125 C 
HETATM    9  C   UNL     1     -43.370  60.247 -53.297  1.00  0.00     0.036 C 
HETATM   10  H   UNL     1     -43.365  55.691 -52.347  1.00  0.00     0.170 HD
ENDROOT
BRANCH   6  11
HETATM   11  C   UNL     1     -41.622  54.590 -52.527  1.00  0.00     0.038 A 
HETATM   12  C   UNL     1     -41.555  53.542 -53.449  1.00  0.00     0.062 A 
HETATM   13  C   UNL     1     -40.714  52.452 -53.213  1.00  0.00     0.070 A 
HETATM   14  C   UNL     1     -39.929  52.401 -52.062  1.00  0.00     0.096 A 
HETATM   15  N   UNL     1     -40.635  51.431 -54.160  1.00  0.00    -0.323 N 
HETATM   16  O   UNL     1     -39.058  51.385 -51.778  1.00  0.00    -0.335 OA
HETATM   17  C   UNL     1     -39.975  53.451 -51.149  1.00  0.00     0.041 A 
HETATM   18  C   UNL     1     -39.216  50.210 -52.570  1.00  0.00     0.217 C 
HETATM   19  C   UNL     1     -39.855  50.326 -53.963  1.00  0.00     0.251 C 
HETATM   20  C   UNL     1     -40.001  49.189 -51.750  1.00  0.00     0.050 C 
HETATM   21  O   UNL     1     -39.745  49.459 -54.827  1.00  0.00    -0.270 OA
HETATM   22  C   UNL     1     -40.819  54.542 -51.381  1.00  0.00     0.032 A 
HETATM   23  H   UNL     1     -41.132  51.497 -55.039  1.00  0.00     0.169 HD
ENDBRANCH   6  11
BRANCH   8  24
HETATM   24  C   UNL     1     -43.727  58.876 -55.453  1.00  0.00     0.003 A 
HETATM   25  C   UNL     1     -43.143  58.851 -56.725  1.00  0.00     0.124 A 
HETATM   26  F   UNL     1     -41.818  58.998 -56.871  1.00  0.00    -0.205 F 
HETATM   27  C   UNL     1     -43.907  58.687 -57.880  1.00  0.00     0.043 A 
HETATM   28  C   UNL     1     -45.291  58.569 -57.784  1.00  0.00     0.003 A 
HETATM   29  C   UNL     1     -45.901  58.622 -56.532  1.00  0.00     0.001 A 
HETATM   30  C   UNL     1     -45.127  58.776 -55.378  1.00  0.00     0.012 A 
ENDBRANCH   8  24
TORSDOF 2
ENDMDL
MODEL 5
REMARK VINA RESULT:      -7.9      3.921      8.847
REMARK  2 active torsions:
REMARK  status: ('A' for Active; 'I' for Inactive)
REMARK       I    between atoms: N_4  and  C_5 
REMARK       I    between atoms: C_5  and  N_6 
REMARK    1  A    between atoms: N_6  and  C_7 
REMARK    2  A    between atoms: C_20  and  C_21 
ROOT
HETATM    1  C   UNL     1     -42.856  55.365 -56.779  1.00  0.00     0.011 C 
HETATM    2  C   UNL     1     -42.939  54.285 -55.701  1.00  0.00     0.002 C 
HETATM    3  C   UNL     1     -43.625  54.812 -54.442  1.00  0.00     0.132 C 
HETATM    4  N   UNL     1     -42.538  55.341 -53.638  1.00  0.00    -0.325 N 
HETATM    5  C   UNL     1     -42.523  56.529 -52.929  1.00  0.00     0.323 C 
HETATM    6  N   UNL     1     -43.775  57.047 -52.684  1.00  0.00    -0.309 N 
HETATM    7  O   UNL     1     -41.470  57.049 -52.569  1.00  0.00    -0.247 OA
HETATM    8  C   UNL     1     -41.297  54.623 -53.909  1.00  0.00     0.125 C 
HETATM    9  C   UNL     1     -41.545  53.856 -55.224  1.00  0.00     0.036 C 
HETATM   10  H   UNL     1     -44.519  56.368 -52.672  1.00  0.00     0.170 HD
ENDROOT
BRANCH   6  11
HETATM   11  C   UNL     1     -44.082  58.334 -52.196  1.00  0.00     0.038 A 
HETATM   12  C   UNL     1     -44.705  58.562 -50.966  1.00  0.00     0.062 A 
HETATM   13  C   UNL     1     -44.953  59.869 -50.537  1.00  0.00     0.070 A 
HETATM   14  C   UNL     1     -44.578  60.956 -51.325  1.00  0.00     0.096 A 
HETATM   15  N   UNL     1     -45.545  60.079 -49.292  1.00  0.00    -0.323 N 
HETATM   16  O   UNL     1     -44.757  62.261 -50.959  1.00  0.00    -0.335 OA
HETATM   17  C   UNL     1     -43.940  60.735 -52.543  1.00  0.00     0.041 A 
HETATM   18  C   UNL     1     -45.637  62.467 -49.857  1.00  0.00     0.217 C 
HETATM   19  C   UNL     1     -45.841  61.334 -48.839  1.00  0.00     0.251 C 
HETATM   20  C   UNL     1     -46.998  62.885 -50.409  1.00  0.00     0.050 C 
HETATM   21  O   UNL     1     -46.309  61.515 -47.717  1.00  0.00    -0.270 OA
HETATM   22  C   UNL     1     -43.693  59.429 -52.977  1.00  0.00     0.032 A 
HETATM   23  H   UNL     1     -45.742  59.304 -48.672  1.00  0.00     0.169 HD
ENDBRANCH   6  11
BRANCH   8  24
HETATM   24  C   UNL     1     -40.899  53.757 -52.728  1.00  0.00     0.003 A 
HETATM   25  C   UNL     1     -40.041  52.657 -52.848  1.00  0.00     0.124 A 
HETATM   26  F   UNL     1     -39.527  52.319 -54.040  1.00  0.00    -0.205 F 
HETATM   27  C   UNL     1     -39.700  51.869 -51.749  1.00  0.00     0.043 A 
HETATM   28  C   UNL     1     -40.239  52.156 -50.498  1.00  0.00     0.003 A 
HETATM   29  C   UNL     1     -41.120  53.227 -50.356  1.00  0.00     0.001 A 
HETATM   30  C   UNL     1     -41.449  54.018 -51.462  1.00  0.00     0.012 A 
ENDBRANCH   8  24
TORSDOF 2
ENDMDL
MODEL 6
REMARK VINA RESULT:      -7.7      3.209      8.318
REMARK  2 active torsions:
REMARK  status: ('A' for Active; 'I' for Inactive)
REMARK       I    between atoms: N_4  and  C_5 
REMARK       I    between atoms: C_5  and  N_6 
REMARK    1  A    between atoms: N_6  and  C_7 
REMARK    2  A    between atoms: C_20  and  C_21 
ROOT
HETATM    1  C   UNL     1     -41.916  59.029 -51.150  1.00  0.00     0.011 C 
HETATM    2  C   UNL     1     -40.867  58.104 -51.768  1.00  0.00     0.002 C 
HETATM    3  C   UNL     1     -41.037  58.007 -53.282  1.00  0.00     0.132 C 
HETATM    4  N   UNL     1     -41.940  56.886 -53.470  1.00  0.00    -0.325 N 
HETATM    5  C   UNL     1     -43.013  56.813 -54.341  1.00  0.00     0.323 C 
HETATM    6  N   UNL     1     -42.972  57.743 -55.356  1.00  0.00    -0.309 N 
HETATM    7  O   UNL     1     -43.906  55.983 -54.191  1.00  0.00    -0.247 OA
HETATM    8  C   UNL     1     -41.795  55.919 -52.388  1.00  0.00     0.125 C 
HETATM    9  C   UNL     1     -41.028  56.659 -51.274  1.00  0.00     0.036 C 
HETATM   10  H   UNL     1     -42.048  58.072 -55.589  1.00  0.00     0.170 HD
ENDROOT
BRANCH   6  11
HETATM   11  C   UNL     1     -44.009  58.071 -56.252  1.00  0.00     0.038 A 
HETATM   12  C   UNL     1     -44.352  57.282 -57.353  1.00  0.00     0.062 A 
HETATM   13  C   UNL     1     -45.413  57.658 -58.183  1.00  0.00     0.070 A 
HETATM   14  C   UNL     1     -46.141  58.817 -57.918  1.00  0.00     0.096 A 
HETATM   15  N   UNL     1     -45.762  56.842 -59.258  1.00  0.00    -0.323 N 
HETATM   16  O   UNL     1     -47.211  59.231 -58.662  1.00  0.00    -0.335 OA
HETATM   17  C   UNL     1     -45.817  59.596 -56.810  1.00  0.00     0.041 A 
HETATM   18  C   UNL     1     -47.359  58.584 -59.924  1.00  0.00     0.217 C 
HETATM   19  C   UNL     1     -46.768  57.180 -60.120  1.00  0.00     0.251 C 
HETATM   20  C   UNL     1     -46.799  59.511 -61.000  1.00  0.00     0.050 C 
HETATM   21  O   UNL     1     -47.109  56.428 -61.030  1.00  0.00    -0.270 OA
HETATM   22  C   UNL     1     -44.755  59.225 -55.980  1.00  0.00     0.032 A 
HETATM   23  H   UNL     1     -45.299  55.956 -59.411  1.00  0.00     0.169 HD
ENDBRANCH   6  11
BRANCH   8  24
HETATM   24  C   UNL     1     -41.135  54.644 -52.882  1.00  0.00     0.003 A 
HETATM   25  C   UNL     1     -40.855  53.559 -52.041  1.00  0.00     0.124 A 
HETATM   26  F   UNL     1     -41.167  53.607 -50.738  1.00  0.00    -0.205 F 
HETATM   27  C   UNL     1     -40.235  52.404 -52.517  1.00  0.00     0.043 A 
HETATM   28  C   UNL     1     -39.857  52.321 -53.854  1.00  0.00     0.003 A 
HETATM   29  C   UNL     1     -40.096  53.399 -54.705  1.00  0.00     0.001 A 
HETATM   30  C   UNL     1     -40.727  54.550 -54.223  1.00  0.00     0.012 A 
ENDBRANCH   8  24
TORSDOF 2
ENDMDL
MODEL 7
REMARK VINA RESULT:      -7.6      3.064      8.445
REMARK  2 active torsions:
REMARK  status: ('A' for Active; 'I' for Inactive)
REMARK       I    between atoms: N_4  and  C_5 
REMARK       I    between atoms: C_5  and  N_6 
REMARK    1  A    between atoms: N_6  and  C_7 
REMARK    2  A    between atoms: C_20  and  C_21 
ROOT
HETATM    1  C   UNL     1     -40.986  55.039 -48.710  1.00  0.00     0.011 C 
HETATM    2  C   UNL     1     -39.963  54.352 -49.614  1.00  0.00     0.002 C 
HETATM    3  C   UNL     1     -40.030  54.896 -51.040  1.00  0.00     0.132 C 
HETATM    4  N   UNL     1     -40.994  54.036 -51.704  1.00  0.00    -0.325 N 
HETATM    5  C   UNL     1     -42.003  54.423 -52.567  1.00  0.00     0.323 C 
HETATM    6  N   UNL     1     -41.826  55.677 -53.108  1.00  0.00    -0.309 N 
HETATM    7  O   UNL     1     -42.961  53.690 -52.804  1.00  0.00    -0.247 OA
HETATM    8  C   UNL     1     -40.994  52.704 -51.111  1.00  0.00     0.125 C 
HETATM    9  C   UNL     1     -40.259  52.853 -49.764  1.00  0.00     0.036 C 
HETATM   10  H   UNL     1     -40.868  55.985 -53.152  1.00  0.00     0.170 HD
ENDROOT
BRANCH   6  11
HETATM   11  C   UNL     1     -42.771  56.434 -53.828  1.00  0.00     0.038 A 
HETATM   12  C   UNL     1     -42.899  56.386 -55.219  1.00  0.00     0.062 A 
HETATM   13  C   UNL     1     -43.880  57.147 -55.861  1.00  0.00     0.070 A 
HETATM   14  C   UNL     1     -44.743  57.955 -55.123  1.00  0.00     0.096 A 
HETATM   15  N   UNL     1     -44.014  57.060 -57.246  1.00  0.00    -0.323 N 
HETATM   16  O   UNL     1     -45.747  58.701 -55.676  1.00  0.00    -0.335 OA
HETATM   17  C   UNL     1     -44.635  57.993 -53.736  1.00  0.00     0.041 A 
HETATM   18  C   UNL     1     -45.676  58.860 -57.091  1.00  0.00     0.217 C 
HETATM   19  C   UNL     1     -44.933  57.808 -57.927  1.00  0.00     0.251 C 
HETATM   20  C   UNL     1     -45.078  60.235 -57.383  1.00  0.00     0.050 C 
HETATM   21  O   UNL     1     -45.086  57.683 -59.141  1.00  0.00    -0.270 OA
HETATM   22  C   UNL     1     -43.652  57.235 -53.090  1.00  0.00     0.032 A 
HETATM   23  H   UNL     1     -43.453  56.412 -57.784  1.00  0.00     0.169 HD
ENDBRANCH   6  11
BRANCH   8  24
HETATM   24  C   UNL     1     -40.390  51.684 -52.060  1.00  0.00     0.003 A 
HETATM   25  C   UNL     1     -40.053  50.384 -51.663  1.00  0.00     0.124 A 
HETATM   26  F   UNL     1     -40.257  49.981 -50.400  1.00  0.00    -0.205 F 
HETATM   27  C   UNL     1     -39.488  49.470 -52.552  1.00  0.00     0.043 A 
HETATM   28  C   UNL     1     -39.222  49.853 -53.863  1.00  0.00     0.003 A 
HETATM   29  C   UNL     1     -39.518  51.151 -54.275  1.00  0.00     0.001 A 
HETATM   30  C   UNL     1     -40.094  52.058 -53.381  1.00  0.00     0.012 A 
ENDBRANCH   8  24
TORSDOF 2
ENDMDL
MODEL 8
REMARK VINA RESULT:      -7.1      3.557      8.783
REMARK  2 active torsions:
REMARK  status: ('A' for Active; 'I' for Inactive)
REMARK       I    between atoms: N_4  and  C_5 
REMARK       I    between atoms: C_5  and  N_6 
REMARK    1  A    between atoms: N_6  and  C_7 
REMARK    2  A    between atoms: C_20  and  C_21 
ROOT
HETATM    1  C   UNL     1     -44.945  58.965 -52.829  1.00  0.00     0.011 C 
HETATM    2  C   UNL     1     -43.673  58.204 -52.456  1.00  0.00     0.002 C 
HETATM    3  C   UNL     1     -42.586  58.394 -53.511  1.00  0.00     0.132 C 
HETATM    4  N   UNL     1     -42.802  57.305 -54.447  1.00  0.00    -0.325 N 
HETATM    5  C   UNL     1     -42.767  57.370 -55.828  1.00  0.00     0.323 C 
HETATM    6  N   UNL     1     -42.110  58.477 -56.318  1.00  0.00    -0.309 N 
HETATM    7  O   UNL     1     -43.287  56.503 -56.526  1.00  0.00    -0.247 OA
HETATM    8  C   UNL     1     -43.391  56.153 -53.773  1.00  0.00     0.125 C 
HETATM    9  C   UNL     1     -43.912  56.688 -52.424  1.00  0.00     0.036 C 
HETATM   10  H   UNL     1     -41.422  58.870 -55.695  1.00  0.00     0.170 HD
ENDROOT
BRANCH   6  11
HETATM   11  C   UNL     1     -42.101  58.941 -57.649  1.00  0.00     0.038 A 
HETATM   12  C   UNL     1     -42.091  60.296 -57.991  1.00  0.00     0.062 A 
HETATM   13  C   UNL     1     -42.055  60.680 -59.335  1.00  0.00     0.070 A 
HETATM   14  C   UNL     1     -42.022  59.719 -60.344  1.00  0.00     0.096 A 
HETATM   15  N   UNL     1     -42.012  62.036 -59.657  1.00  0.00    -0.323 N 
HETATM   16  O   UNL     1     -41.952  60.017 -61.677  1.00  0.00    -0.335 OA
HETATM   17  C   UNL     1     -42.011  58.368 -60.009  1.00  0.00     0.041 A 
HETATM   18  C   UNL     1     -42.230  61.374 -62.012  1.00  0.00     0.217 C 
HETATM   19  C   UNL     1     -42.010  62.467 -60.955  1.00  0.00     0.251 C 
HETATM   20  C   UNL     1     -43.672  61.453 -62.510  1.00  0.00     0.050 C 
HETATM   21  O   UNL     1     -41.913  63.661 -61.232  1.00  0.00    -0.270 OA
HETATM   22  C   UNL     1     -42.051  57.981 -58.666  1.00  0.00     0.032 A 
HETATM   23  H   UNL     1     -41.947  62.741 -58.935  1.00  0.00     0.169 HD
ENDBRANCH   6  11
BRANCH   8  24
HETATM   24  C   UNL     1     -42.392  55.014 -53.667  1.00  0.00     0.003 A 
HETATM   25  C   UNL     1     -42.442  53.882 -54.490  1.00  0.00     0.124 A 
HETATM   26  F   UNL     1     -43.396  53.759 -55.424  1.00  0.00    -0.205 F 
HETATM   27  C   UNL     1     -41.519  52.843 -54.364  1.00  0.00     0.043 A 
HETATM   28  C   UNL     1     -40.534  52.908 -53.384  1.00  0.00     0.003 A 
HETATM   29  C   UNL     1     -40.481  54.009 -52.531  1.00  0.00     0.001 A 
HETATM   30  C   UNL     1     -41.403  55.051 -52.670  1.00  0.00     0.012 A 
ENDBRANCH   8  24
TORSDOF 2
ENDMDL
MODEL 9
REMARK VINA RESULT:      -7.1      3.952      8.895
REMARK  2 active torsions:
REMARK  status: ('A' for Active; 'I' for Inactive)
REMARK       I    between atoms: N_4  and  C_5 
REMARK       I    between atoms: C_5  and  N_6 
REMARK    1  A    between atoms: N_6  and  C_7 
REMARK    2  A    between atoms: C_20  and  C_21 
ROOT
HETATM    1  C   UNL     1     -41.493  59.523 -50.667  1.00  0.00     0.011 C 
HETATM    2  C   UNL     1     -40.550  58.483 -51.271  1.00  0.00     0.002 C 
HETATM    3  C   UNL     1     -40.361  58.713 -52.770  1.00  0.00     0.132 C 
HETATM    4  N   UNL     1     -41.410  57.922 -53.387  1.00  0.00    -0.325 N 
HETATM    5  C   UNL     1     -42.226  58.294 -54.441  1.00  0.00     0.323 C 
HETATM    6  N   UNL     1     -41.739  59.349 -55.179  1.00  0.00    -0.309 N 
HETATM    7  O   UNL     1     -43.287  57.716 -54.667  1.00  0.00    -0.247 OA
HETATM    8  C   UNL     1     -41.747  56.770 -52.558  1.00  0.00     0.125 C 
HETATM    9  C   UNL     1     -41.135  57.067 -51.174  1.00  0.00     0.036 C 
HETATM   10  H   UNL     1     -40.738  59.460 -55.146  1.00  0.00     0.170 HD
ENDROOT
BRANCH   6  11
HETATM   11  C   UNL     1     -42.429  60.095 -56.155  1.00  0.00     0.038 A 
HETATM   12  C   UNL     1     -42.459  59.751 -57.509  1.00  0.00     0.062 A 
HETATM   13  C   UNL     1     -43.189  60.526 -58.415  1.00  0.00     0.070 A 
HETATM   14  C   UNL     1     -43.899  61.644 -57.978  1.00  0.00     0.096 A 
HETATM   15  N   UNL     1     -43.234  60.149 -59.757  1.00  0.00    -0.323 N 
HETATM   16  O   UNL     1     -44.661  62.430 -58.797  1.00  0.00    -0.335 OA
HETATM   17  C   UNL     1     -43.889  61.981 -56.627  1.00  0.00     0.041 A 
HETATM   18  C   UNL     1     -44.449  62.237 -60.193  1.00  0.00     0.217 C 
HETATM   19  C   UNL     1     -43.904  60.890 -60.689  1.00  0.00     0.251 C 
HETATM   20  C   UNL     1     -43.533  63.354 -60.691  1.00  0.00     0.050 C 
HETATM   21  O   UNL     1     -43.989  60.519 -61.859  1.00  0.00    -0.270 OA
HETATM   22  C   UNL     1     -43.157  61.209 -55.719  1.00  0.00     0.032 A 
HETATM   23  H   UNL     1     -42.797  59.292 -60.072  1.00  0.00     0.169 HD
ENDBRANCH   6  11
BRANCH   8  24
HETATM   24  C   UNL     1     -41.276  55.479 -53.202  1.00  0.00     0.003 A 
HETATM   25  C   UNL     1     -41.498  54.220 -52.630  1.00  0.00     0.124 A 
HETATM   26  F   UNL     1     -42.149  54.106 -51.463  1.00  0.00    -0.205 F 
HETATM   27  C   UNL     1     -41.044  53.049 -53.236  1.00  0.00     0.043 A 
HETATM   28  C   UNL     1     -40.330  53.118 -54.428  1.00  0.00     0.003 A 
HETATM   29  C   UNL     1     -40.069  54.360 -55.003  1.00  0.00     0.001 A 
HETATM   30  C   UNL     1     -40.536  55.530 -54.395  1.00  0.00     0.012 A 
ENDBRANCH   8  24
TORSDOF 2
ENDMDL
MODEL 10
REMARK VINA RESULT:      -7.1      4.762      8.054
REMARK  2 active torsions:
REMARK  status: ('A' for Active; 'I' for Inactive)
REMARK       I    between atoms: N_4  and  C_5 
REMARK       I    between atoms: C_5  and  N_6 
REMARK    1  A    between atoms: N_6  and  C_7 
REMARK    2  A    between atoms: C_20  and  C_21 
ROOT
HETATM    1  C   UNL     1     -46.832  60.736 -52.219  1.00  0.00     0.011 C 
HETATM    2  C   UNL     1     -45.385  61.075 -51.861  1.00  0.00     0.002 C 
HETATM    3  C   UNL     1     -44.467  60.931 -53.074  1.00  0.00     0.132 C 
HETATM    4  N   UNL     1     -44.016  59.552 -53.018  1.00  0.00    -0.325 N 
HETATM    5  C   UNL     1     -43.907  58.665 -54.074  1.00  0.00     0.323 C 
HETATM    6  N   UNL     1     -43.875  59.270 -55.310  1.00  0.00    -0.309 N 
HETATM    7  O   UNL     1     -43.849  57.451 -53.890  1.00  0.00    -0.247 OA
HETATM    8  C   UNL     1     -43.982  59.074 -51.640  1.00  0.00     0.125 C 
HETATM    9  C   UNL     1     -44.813  60.090 -50.832  1.00  0.00     0.036 C 
HETATM   10  H   UNL     1     -43.539  60.220 -55.306  1.00  0.00     0.170 HD
ENDROOT
BRANCH   6  11
HETATM   11  C   UNL     1     -43.997  58.644 -56.567  1.00  0.00     0.038 A 
HETATM   12  C   UNL     1     -45.200  58.130 -57.057  1.00  0.00     0.062 A 
HETATM   13  C   UNL     1     -45.249  57.547 -58.327  1.00  0.00     0.070 A 
HETATM   14  C   UNL     1     -44.104  57.478 -59.118  1.00  0.00     0.096 A 
HETATM   15  N   UNL     1     -46.466  57.068 -58.813  1.00  0.00    -0.323 N 
HETATM   16  O   UNL     1     -44.080  56.953 -60.380  1.00  0.00    -0.335 OA
HETATM   17  C   UNL     1     -42.906  58.006 -58.644  1.00  0.00     0.041 A 
HETATM   18  C   UNL     1     -45.227  56.187 -60.741  1.00  0.00     0.217 C 
HETATM   19  C   UNL     1     -46.562  56.458 -60.032  1.00  0.00     0.251 C 
HETATM   20  C   UNL     1     -44.877  54.708 -60.585  1.00  0.00     0.050 C 
HETATM   21  O   UNL     1     -47.648  56.092 -60.479  1.00  0.00    -0.270 OA
HETATM   22  C   UNL     1     -42.853  58.587 -57.373  1.00  0.00     0.032 A 
HETATM   23  H   UNL     1     -47.321  57.190 -58.286  1.00  0.00     0.169 HD
ENDBRANCH   6  11
BRANCH   8  24
HETATM   24  C   UNL     1     -42.553  58.890 -51.162  1.00  0.00     0.003 A 
HETATM   25  C   UNL     1     -41.707  59.966 -50.865  1.00  0.00     0.124 A 
HETATM   26  F   UNL     1     -42.139  61.229 -50.996  1.00  0.00    -0.205 F 
HETATM   27  C   UNL     1     -40.394  59.770 -50.439  1.00  0.00     0.043 A 
HETATM   28  C   UNL     1     -39.888  58.479 -50.325  1.00  0.00     0.003 A 
HETATM   29  C   UNL     1     -40.699  57.391 -50.644  1.00  0.00     0.001 A 
HETATM   30  C   UNL     1     -42.018  57.595 -51.060  1.00  0.00     0.012 A 
ENDBRANCH   8  24
TORSDOF 2
ENDMDL
