MODEL 1
REMARK VINA RESULT:      -7.9      0.000      0.000
REMARK  3 active torsions:
REMARK  status: ('A' for Active; 'I' for Inactive)
REMARK    1  A    between atoms: C_7  and  N_8 
REMARK    2  A    between atoms: N_8  and  C_9 
REMARK    3  A    between atoms: C_9  and  C_10 
ROOT
HETATM    1  C   UNL     1     -41.532  54.303 -51.227  1.00  0.00    -0.041 A 
HETATM    2  C   UNL     1     -42.174  54.422 -52.468  1.00  0.00     0.035 A 
HETATM    3  C   UNL     1     -41.792  53.615 -53.544  1.00  0.00     0.070 A 
HETATM    4 CL   UNL     1     -42.608  53.823 -55.052  1.00  0.00    -0.081 Cl
HETATM    5  C   UNL     1     -40.787  52.654 -53.387  1.00  0.00     0.123 A 
HETATM    6  C   UNL     1     -40.155  52.523 -52.147  1.00  0.00     0.104 A 
HETATM    7  O   UNL     1     -39.108  51.667 -51.933  1.00  0.00    -0.348 OA
HETATM    8  C   UNL     1     -39.492  50.300 -52.085  1.00  0.00     0.178 C 
HETATM    9  C   UNL     1     -39.490  49.865 -53.544  1.00  0.00     0.053 C 
HETATM   10  C   UNL     1     -40.613  50.537 -54.320  1.00  0.00     0.178 C 
HETATM   11  O   UNL     1     -40.377  51.935 -54.480  1.00  0.00    -0.346 OA
HETATM   12  C   UNL     1     -40.514  53.349 -51.079  1.00  0.00     0.048 A 
ENDROOT
BRANCH   1  13
HETATM   13  C   UNL     1     -41.946  55.165 -50.057  1.00  0.00     0.132 C 
BRANCH  13  14
HETATM   14  N   UNL     1     -42.682  56.310 -50.563  1.00  0.00    -0.272 NA
HETATM   15  H   UNL     1     -43.462  56.078 -51.166  1.00  0.00     0.129 HD
BRANCH  14  16
HETATM   16  C   UNL     1     -41.906  57.350 -51.073  1.00  0.00     0.117 A 
HETATM   17  C   UNL     1     -42.242  58.004 -52.278  1.00  0.00     0.040 A 
HETATM   18  C   UNL     1     -43.327  57.846 -53.210  1.00  0.00     0.025 A 
HETATM   19  C   UNL     1     -41.389  59.017 -52.688  1.00  0.00     0.112 A 
HETATM   20  C   UNL     1     -43.247  58.722 -54.270  1.00  0.00     0.053 A 
HETATM   21  S   UNL     1     -41.875  59.736 -54.155  1.00  0.00    -0.081 SA
HETATM   22  N   UNL     1     -40.285  59.438 -52.050  1.00  0.00    -0.234 NA
HETATM   23  C   UNL     1     -40.071  58.765 -50.917  1.00  0.00     0.236 A 
HETATM   24  N   UNL     1     -40.805  57.765 -50.405  1.00  0.00    -0.229 NA
ENDBRANCH  14  16
ENDBRANCH  13  14
ENDBRANCH   1  13
TORSDOF 3
ENDMDL
MODEL 2
REMARK VINA RESULT:      -7.8      3.951      5.291
REMARK  3 active torsions:
REMARK  status: ('A' for Active; 'I' for Inactive)
REMARK    1  A    between atoms: C_7  and  N_8 
REMARK    2  A    between atoms: N_8  and  C_9 
REMARK    3  A    between atoms: C_9  and  C_10 
ROOT
HETATM    1  C   UNL     1     -41.984  54.015 -54.356  1.00  0.00    -0.041 A 
HETATM    2  C   UNL     1     -41.207  52.851 -54.269  1.00  0.00     0.035 A 
HETATM    3  C   UNL     1     -40.440  52.595 -53.127  1.00  0.00     0.070 A 
HETATM    4 CL   UNL     1     -39.488  51.155 -53.088  1.00  0.00    -0.081 Cl
HETATM    5  C   UNL     1     -40.467  53.480 -52.043  1.00  0.00     0.123 A 
HETATM    6  C   UNL     1     -41.253  54.634 -52.122  1.00  0.00     0.104 A 
HETATM    7  O   UNL     1     -41.270  55.590 -51.142  1.00  0.00    -0.348 OA
HETATM    8  C   UNL     1     -41.803  55.091 -49.914  1.00  0.00     0.178 C 
HETATM    9  C   UNL     1     -40.758  54.341 -49.101  1.00  0.00     0.053 C 
HETATM   10  C   UNL     1     -40.378  53.028 -49.769  1.00  0.00     0.178 C 
HETATM   11  O   UNL     1     -39.643  53.246 -50.973  1.00  0.00    -0.346 OA
HETATM   12  C   UNL     1     -41.995  54.906 -53.273  1.00  0.00     0.048 A 
ENDROOT
BRANCH   1  13
HETATM   13  C   UNL     1     -42.822  54.293 -55.583  1.00  0.00     0.132 C 
BRANCH  13  14
HETATM   14  N   UNL     1     -42.092  55.205 -56.445  1.00  0.00    -0.272 NA
HETATM   15  H   UNL     1     -41.161  55.437 -56.122  1.00  0.00     0.129 HD
BRANCH  14  16
HETATM   16  C   UNL     1     -42.801  56.325 -56.879  1.00  0.00     0.117 A 
HETATM   17  C   UNL     1     -43.404  56.372 -58.153  1.00  0.00     0.040 A 
HETATM   18  C   UNL     1     -43.485  55.428 -59.237  1.00  0.00     0.025 A 
HETATM   19  C   UNL     1     -44.073  57.543 -58.475  1.00  0.00     0.112 A 
HETATM   20  C   UNL     1     -44.189  55.917 -60.315  1.00  0.00     0.053 A 
HETATM   21  S   UNL     1     -44.758  57.505 -60.036  1.00  0.00    -0.081 SA
HETATM   22  N   UNL     1     -44.209  58.626 -57.693  1.00  0.00    -0.234 NA
HETATM   23  C   UNL     1     -43.617  58.467 -56.507  1.00  0.00     0.236 A 
HETATM   24  N   UNL     1     -42.934  57.398 -56.067  1.00  0.00    -0.229 NA
ENDBRANCH  14  16
ENDBRANCH  13  14
ENDBRANCH   1  13
TORSDOF 3
ENDMDL
MODEL 3
REMARK VINA RESULT:      -7.5      1.782      2.164
REMARK  3 active torsions:
REMARK  status: ('A' for Active; 'I' for Inactive)
REMARK    1  A    between atoms: C_7  and  N_8 
REMARK    2  A    between atoms: N_8  and  C_9 
REMARK    3  A    between atoms: C_9  and  C_10 
ROOT
HETATM    1  C   UNL     1     -41.607  54.229 -51.455  1.00  0.00    -0.041 A 
HETATM    2  C   UNL     1     -41.360  54.373 -52.827  1.00  0.00     0.035 A 
HETATM    3  C   UNL     1     -40.562  53.445 -53.505  1.00  0.00     0.070 A 
HETATM    4 CL   UNL     1     -40.277  53.689 -55.191  1.00  0.00    -0.081 Cl
HETATM    5  C   UNL     1     -40.030  52.342 -52.829  1.00  0.00     0.123 A 
HETATM    6  C   UNL     1     -40.287  52.188 -51.463  1.00  0.00     0.104 A 
HETATM    7  O   UNL     1     -39.737  51.185 -50.711  1.00  0.00    -0.348 OA
HETATM    8  C   UNL     1     -40.186  49.893 -51.127  1.00  0.00     0.178 C 
HETATM    9  C   UNL     1     -39.398  49.371 -52.319  1.00  0.00     0.053 C 
HETATM   10  C   UNL     1     -39.707  50.169 -53.577  1.00  0.00     0.178 C 
HETATM   11  O   UNL     1     -39.185  51.495 -53.499  1.00  0.00    -0.346 OA
HETATM   12  C   UNL     1     -41.059  53.130 -50.778  1.00  0.00     0.048 A 
ENDROOT
BRANCH   1  13
HETATM   13  C   UNL     1     -42.476  55.222 -50.719  1.00  0.00     0.132 C 
BRANCH  13  14
HETATM   14  N   UNL     1     -43.552  55.639 -51.600  1.00  0.00    -0.272 NA
HETATM   15  H   UNL     1     -43.468  55.309 -52.554  1.00  0.00     0.129 HD
BRANCH  14  16
HETATM   16  C   UNL     1     -43.902  56.987 -51.530  1.00  0.00     0.117 A 
HETATM   17  C   UNL     1     -43.118  57.989 -52.141  1.00  0.00     0.040 A 
HETATM   18  C   UNL     1     -41.909  57.950 -52.921  1.00  0.00     0.025 A 
HETATM   19  C   UNL     1     -43.564  59.293 -51.995  1.00  0.00     0.112 A 
HETATM   20  C   UNL     1     -41.493  59.202 -53.317  1.00  0.00     0.053 A 
HETATM   21  S   UNL     1     -42.545  60.428 -52.759  1.00  0.00    -0.081 SA
HETATM   22  N   UNL     1     -44.665  59.693 -51.340  1.00  0.00    -0.234 NA
HETATM   23  C   UNL     1     -45.340  58.666 -50.818  1.00  0.00     0.236 A 
HETATM   24  N   UNL     1     -45.024  57.362 -50.875  1.00  0.00    -0.229 NA
ENDBRANCH  14  16
ENDBRANCH  13  14
ENDBRANCH   1  13
TORSDOF 3
ENDMDL
MODEL 4
REMARK VINA RESULT:      -7.5     15.087     16.535
REMARK  3 active torsions:
REMARK  status: ('A' for Active; 'I' for Inactive)
REMARK    1  A    between atoms: C_7  and  N_8 
REMARK    2  A    between atoms: N_8  and  C_9 
REMARK    3  A    between atoms: C_9  and  C_10 
ROOT
HETATM    1  C   UNL     1     -37.662  40.950 -56.835  1.00  0.00    -0.041 A 
HETATM    2  C   UNL     1     -37.597  41.915 -57.850  1.00  0.00     0.035 A 
HETATM    3  C   UNL     1     -37.382  41.533 -59.178  1.00  0.00     0.070 A 
HETATM    4 CL   UNL     1     -37.290  42.770 -60.380  1.00  0.00    -0.081 Cl
HETATM    5  C   UNL     1     -37.265  40.181 -59.516  1.00  0.00     0.123 A 
HETATM    6  C   UNL     1     -37.345  39.215 -58.508  1.00  0.00     0.104 A 
HETATM    7  O   UNL     1     -37.158  37.878 -58.742  1.00  0.00    -0.348 OA
HETATM    8  C   UNL     1     -38.169  37.335 -59.593  1.00  0.00     0.178 C 
HETATM    9  C   UNL     1     -37.873  37.589 -61.064  1.00  0.00     0.053 C 
HETATM   10  C   UNL     1     -38.011  39.064 -61.409  1.00  0.00     0.178 C 
HETATM   11  O   UNL     1     -36.973  39.841 -60.812  1.00  0.00    -0.346 OA
HETATM   12  C   UNL     1     -37.529  39.596 -57.177  1.00  0.00     0.048 A 
ENDROOT
BRANCH   1  13
HETATM   13  C   UNL     1     -37.903  41.354 -55.399  1.00  0.00     0.132 C 
BRANCH  13  14
HETATM   14  N   UNL     1     -36.898  42.329 -55.018  1.00  0.00    -0.272 NA
HETATM   15  H   UNL     1     -36.460  42.810 -55.794  1.00  0.00     0.129 HD
BRANCH  14  16
HETATM   16  C   UNL     1     -35.974  41.903 -54.064  1.00  0.00     0.117 A 
HETATM   17  C   UNL     1     -34.773  41.260 -54.432  1.00  0.00     0.040 A 
HETATM   18  C   UNL     1     -34.198  40.907 -55.704  1.00  0.00     0.025 A 
HETATM   19  C   UNL     1     -33.938  40.875 -53.395  1.00  0.00     0.112 A 
HETATM   20  C   UNL     1     -32.982  40.274 -55.578  1.00  0.00     0.053 A 
HETATM   21  S   UNL     1     -32.521  40.099 -53.941  1.00  0.00    -0.081 SA
HETATM   22  N   UNL     1     -34.156  41.060 -52.083  1.00  0.00    -0.234 NA
HETATM   23  C   UNL     1     -35.309  41.691 -51.849  1.00  0.00     0.236 A 
HETATM   24  N   UNL     1     -36.211  42.113 -52.750  1.00  0.00    -0.229 NA
ENDBRANCH  14  16
ENDBRANCH  13  14
ENDBRANCH   1  13
TORSDOF 3
ENDMDL
MODEL 5
REMARK VINA RESULT:      -7.5      2.222      3.289
REMARK  3 active torsions:
REMARK  status: ('A' for Active; 'I' for Inactive)
REMARK    1  A    between atoms: C_7  and  N_8 
REMARK    2  A    between atoms: N_8  and  C_9 
REMARK    3  A    between atoms: C_9  and  C_10 
ROOT
HETATM    1  C   UNL     1     -40.594  53.664 -54.084  1.00  0.00    -0.041 A 
HETATM    2  C   UNL     1     -40.335  52.426 -54.689  1.00  0.00     0.035 A 
HETATM    3  C   UNL     1     -39.906  51.338 -53.920  1.00  0.00     0.070 A 
HETATM    4 CL   UNL     1     -39.584  49.845 -54.726  1.00  0.00    -0.081 Cl
HETATM    5  C   UNL     1     -39.766  51.462 -52.534  1.00  0.00     0.123 A 
HETATM    6  C   UNL     1     -40.038  52.692 -51.927  1.00  0.00     0.104 A 
HETATM    7  O   UNL     1     -39.845  52.920 -50.590  1.00  0.00    -0.348 OA
HETATM    8  C   UNL     1     -40.709  52.122 -49.779  1.00  0.00     0.178 C 
HETATM    9  C   UNL     1     -40.162  50.717 -49.572  1.00  0.00     0.053 C 
HETATM   10  C   UNL     1     -40.205  49.913 -50.863  1.00  0.00     0.178 C 
HETATM   11  O   UNL     1     -39.266  50.405 -51.819  1.00  0.00    -0.346 OA
HETATM   12  C   UNL     1     -40.436  53.788 -52.696  1.00  0.00     0.048 A 
ENDROOT
BRANCH   1  13
HETATM   13  C   UNL     1     -41.066  54.841 -54.906  1.00  0.00     0.132 C 
BRANCH  13  14
HETATM   14  N   UNL     1     -42.103  55.537 -54.166  1.00  0.00    -0.272 NA
HETATM   15  H   UNL     1     -43.049  55.291 -54.431  1.00  0.00     0.129 HD
BRANCH  14  16
HETATM   16  C   UNL     1     -41.927  56.913 -54.029  1.00  0.00     0.117 A 
HETATM   17  C   UNL     1     -41.586  57.497 -52.790  1.00  0.00     0.040 A 
HETATM   18  C   UNL     1     -41.334  56.950 -51.483  1.00  0.00     0.025 A 
HETATM   19  C   UNL     1     -41.448  58.876 -52.777  1.00  0.00     0.112 A 
HETATM   20  C   UNL     1     -41.031  57.918 -50.552  1.00  0.00     0.053 A 
HETATM   21  S   UNL     1     -41.046  59.485 -51.236  1.00  0.00    -0.081 SA
HETATM   22  N   UNL     1     -41.598  59.704 -53.823  1.00  0.00    -0.234 NA
HETATM   23  C   UNL     1     -41.902  59.047 -54.945  1.00  0.00     0.236 A 
HETATM   24  N   UNL     1     -42.072  57.725 -55.101  1.00  0.00    -0.229 NA
ENDBRANCH  14  16
ENDBRANCH  13  14
ENDBRANCH   1  13
TORSDOF 3
ENDMDL
MODEL 6
REMARK VINA RESULT:      -7.5      3.626      5.129
REMARK  3 active torsions:
REMARK  status: ('A' for Active; 'I' for Inactive)
REMARK    1  A    between atoms: C_7  and  N_8 
REMARK    2  A    between atoms: N_8  and  C_9 
REMARK    3  A    between atoms: C_9  and  C_10 
ROOT
HETATM    1  C   UNL     1     -42.022  54.086 -54.285  1.00  0.00    -0.041 A 
HETATM    2  C   UNL     1     -41.200  52.953 -54.197  1.00  0.00     0.035 A 
HETATM    3  C   UNL     1     -40.411  52.737 -53.062  1.00  0.00     0.070 A 
HETATM    4 CL   UNL     1     -39.404  51.334 -53.022  1.00  0.00    -0.081 Cl
HETATM    5  C   UNL     1     -40.457  53.631 -51.987  1.00  0.00     0.123 A 
HETATM    6  C   UNL     1     -41.286  54.754 -52.066  1.00  0.00     0.104 A 
HETATM    7  O   UNL     1     -41.327  55.718 -51.095  1.00  0.00    -0.348 OA
HETATM    8  C   UNL     1     -41.826  55.212 -49.856  1.00  0.00     0.178 C 
HETATM    9  C   UNL     1     -40.744  54.509 -49.049  1.00  0.00     0.053 C 
HETATM   10  C   UNL     1     -40.323  53.206 -49.710  1.00  0.00     0.178 C 
HETATM   11  O   UNL     1     -39.612  53.438 -50.925  1.00  0.00    -0.346 OA
HETATM   12  C   UNL     1     -42.053  54.987 -53.210  1.00  0.00     0.048 A 
ENDROOT
BRANCH   1  13
HETATM   13  C   UNL     1     -42.885  54.321 -55.503  1.00  0.00     0.132 C 
BRANCH  13  14
HETATM   14  N   UNL     1     -42.141  55.134 -56.448  1.00  0.00    -0.272 NA
HETATM   15  H   UNL     1     -41.285  55.531 -56.081  1.00  0.00     0.129 HD
BRANCH  14  16
HETATM   16  C   UNL     1     -42.892  56.061 -57.170  1.00  0.00     0.117 A 
HETATM   17  C   UNL     1     -43.080  57.382 -56.709  1.00  0.00     0.040 A 
HETATM   18  C   UNL     1     -42.620  58.090 -55.544  1.00  0.00     0.025 A 
HETATM   19  C   UNL     1     -43.854  58.208 -57.509  1.00  0.00     0.112 A 
HETATM   20  C   UNL     1     -43.063  59.393 -55.506  1.00  0.00     0.053 A 
HETATM   21  S   UNL     1     -44.030  59.776 -56.863  1.00  0.00    -0.081 SA
HETATM   22  N   UNL     1     -44.431  57.878 -58.676  1.00  0.00    -0.234 NA
HETATM   23  C   UNL     1     -44.175  56.616 -59.025  1.00  0.00     0.236 A 
HETATM   24  N   UNL     1     -43.452  55.708 -58.349  1.00  0.00    -0.229 NA
ENDBRANCH  14  16
ENDBRANCH  13  14
ENDBRANCH   1  13
TORSDOF 3
ENDMDL
MODEL 7
REMARK VINA RESULT:      -7.4      3.542      4.579
REMARK  3 active torsions:
REMARK  status: ('A' for Active; 'I' for Inactive)
REMARK    1  A    between atoms: C_7  and  N_8 
REMARK    2  A    between atoms: N_8  and  C_9 
REMARK    3  A    between atoms: C_9  and  C_10 
ROOT
HETATM    1  C   UNL     1     -43.169  55.627 -53.368  1.00  0.00    -0.041 A 
HETATM    2  C   UNL     1     -42.885  55.783 -52.004  1.00  0.00     0.035 A 
HETATM    3  C   UNL     1     -42.137  54.818 -51.321  1.00  0.00     0.070 A 
HETATM    4 CL   UNL     1     -41.838  55.057 -49.637  1.00  0.00    -0.081 Cl
HETATM    5  C   UNL     1     -41.634  53.703 -51.998  1.00  0.00     0.123 A 
HETATM    6  C   UNL     1     -41.903  53.552 -53.362  1.00  0.00     0.104 A 
HETATM    7  O   UNL     1     -41.519  52.450 -54.079  1.00  0.00    -0.348 OA
HETATM    8  C   UNL     1     -40.097  52.331 -54.161  1.00  0.00     0.178 C 
HETATM    9  C   UNL     1     -39.507  51.675 -52.921  1.00  0.00     0.053 C 
HETATM   10  C   UNL     1     -39.620  52.586 -51.708  1.00  0.00     0.178 C 
HETATM   11  O   UNL     1     -40.976  52.733 -51.287  1.00  0.00    -0.346 OA
HETATM   12  C   UNL     1     -42.675  54.499 -54.039  1.00  0.00     0.048 A 
ENDROOT
BRANCH   1  13
HETATM   13  C   UNL     1     -43.967  56.671 -54.115  1.00  0.00     0.132 C 
BRANCH  13  14
HETATM   14  N   UNL     1     -43.928  56.357 -55.532  1.00  0.00    -0.272 NA
HETATM   15  H   UNL     1     -43.673  55.400 -55.746  1.00  0.00     0.129 HD
BRANCH  14  16
HETATM   16  C   UNL     1     -43.261  57.280 -56.337  1.00  0.00     0.117 A 
HETATM   17  C   UNL     1     -42.954  57.000 -57.686  1.00  0.00     0.040 A 
HETATM   18  C   UNL     1     -43.204  55.865 -58.535  1.00  0.00     0.025 A 
HETATM   19  C   UNL     1     -42.280  57.992 -58.382  1.00  0.00     0.112 A 
HETATM   20  C   UNL     1     -42.710  56.037 -59.809  1.00  0.00     0.053 A 
HETATM   21  S   UNL     1     -41.948  57.556 -59.996  1.00  0.00    -0.081 SA
HETATM   22  N   UNL     1     -41.900  59.187 -57.902  1.00  0.00    -0.234 NA
HETATM   23  C   UNL     1     -42.255  59.353 -56.626  1.00  0.00     0.236 A 
HETATM   24  N   UNL     1     -42.900  58.482 -55.834  1.00  0.00    -0.229 NA
ENDBRANCH  14  16
ENDBRANCH  13  14
ENDBRANCH   1  13
TORSDOF 3
ENDMDL
MODEL 8
REMARK VINA RESULT:      -7.3      1.777      2.061
REMARK  3 active torsions:
REMARK  status: ('A' for Active; 'I' for Inactive)
REMARK    1  A    between atoms: C_7  and  N_8 
REMARK    2  A    between atoms: N_8  and  C_9 
REMARK    3  A    between atoms: C_9  and  C_10 
ROOT
HETATM    1  C   UNL     1     -42.189  54.549 -51.594  1.00  0.00    -0.041 A 
HETATM    2  C   UNL     1     -41.723  54.446 -52.913  1.00  0.00     0.035 A 
HETATM    3  C   UNL     1     -40.736  53.513 -53.245  1.00  0.00     0.070 A 
HETATM    4 CL   UNL     1     -40.190  53.448 -54.883  1.00  0.00    -0.081 Cl
HETATM    5  C   UNL     1     -40.226  52.645 -52.273  1.00  0.00     0.123 A 
HETATM    6  C   UNL     1     -40.699  52.736 -50.961  1.00  0.00     0.104 A 
HETATM    7  O   UNL     1     -40.194  51.983 -49.934  1.00  0.00    -0.348 OA
HETATM    8  C   UNL     1     -40.440  50.588 -50.120  1.00  0.00     0.178 C 
HETATM    9  C   UNL     1     -39.412  49.944 -51.039  1.00  0.00     0.053 C 
HETATM   10  C   UNL     1     -39.574  50.427 -52.472  1.00  0.00     0.178 C 
HETATM   11  O   UNL     1     -39.202  51.798 -52.609  1.00  0.00    -0.346 OA
HETATM   12  C   UNL     1     -41.663  53.688 -50.620  1.00  0.00     0.048 A 
ENDROOT
BRANCH   1  13
HETATM   13  C   UNL     1     -43.262  55.549 -51.230  1.00  0.00     0.132 C 
BRANCH  13  14
HETATM   14  N   UNL     1     -42.636  56.679 -50.568  1.00  0.00    -0.272 NA
HETATM   15  H   UNL     1     -42.981  56.867 -49.635  1.00  0.00     0.129 HD
BRANCH  14  16
HETATM   16  C   UNL     1     -42.516  57.838 -51.335  1.00  0.00     0.117 A 
HETATM   17  C   UNL     1     -43.605  58.713 -51.531  1.00  0.00     0.040 A 
HETATM   18  C   UNL     1     -44.967  58.705 -51.064  1.00  0.00     0.025 A 
HETATM   19  C   UNL     1     -43.366  59.828 -52.320  1.00  0.00     0.112 A 
HETATM   20  C   UNL     1     -45.689  59.786 -51.518  1.00  0.00     0.053 A 
HETATM   21  S   UNL     1     -44.744  60.815 -52.503  1.00  0.00    -0.081 SA
HETATM   22  N   UNL     1     -42.204  60.156 -52.907  1.00  0.00    -0.234 NA
HETATM   23  C   UNL     1     -41.239  59.272 -52.643  1.00  0.00     0.236 A 
HETATM   24  N   UNL     1     -41.331  58.153 -51.905  1.00  0.00    -0.229 NA
ENDBRANCH  14  16
ENDBRANCH  13  14
ENDBRANCH   1  13
TORSDOF 3
ENDMDL
MODEL 9
REMARK VINA RESULT:      -7.3      4.294      5.635
REMARK  3 active torsions:
REMARK  status: ('A' for Active; 'I' for Inactive)
REMARK    1  A    between atoms: C_7  and  N_8 
REMARK    2  A    between atoms: N_8  and  C_9 
REMARK    3  A    between atoms: C_9  and  C_10 
ROOT
HETATM    1  C   UNL     1     -42.457  54.761 -54.223  1.00  0.00    -0.041 A 
HETATM    2  C   UNL     1     -43.247  55.683 -53.523  1.00  0.00     0.035 A 
HETATM    3  C   UNL     1     -43.249  55.696 -52.124  1.00  0.00     0.070 A 
HETATM    4 CL   UNL     1     -44.259  56.843 -51.319  1.00  0.00    -0.081 Cl
HETATM    5  C   UNL     1     -42.436  54.813 -51.406  1.00  0.00     0.123 A 
HETATM    6  C   UNL     1     -41.636  53.902 -52.102  1.00  0.00     0.104 A 
HETATM    7  O   UNL     1     -40.877  52.949 -51.476  1.00  0.00    -0.348 OA
HETATM    8  C   UNL     1     -39.842  53.526 -50.678  1.00  0.00     0.178 C 
HETATM    9  C   UNL     1     -40.349  53.957 -49.310  1.00  0.00     0.053 C 
HETATM   10  C   UNL     1     -41.286  55.150 -49.419  1.00  0.00     0.178 C 
HETATM   11  O   UNL     1     -42.521  54.793 -50.038  1.00  0.00    -0.346 OA
HETATM   12  C   UNL     1     -41.655  53.866 -53.498  1.00  0.00     0.048 A 
ENDROOT
BRANCH   1  13
HETATM   13  C   UNL     1     -42.442  54.747 -55.734  1.00  0.00     0.132 C 
BRANCH  13  14
HETATM   14  N   UNL     1     -43.347  55.775 -56.215  1.00  0.00    -0.272 NA
HETATM   15  H   UNL     1     -44.307  55.667 -55.912  1.00  0.00     0.129 HD
BRANCH  14  16
HETATM   16  C   UNL     1     -43.248  56.081 -57.572  1.00  0.00     0.117 A 
HETATM   17  C   UNL     1     -42.763  57.330 -58.016  1.00  0.00     0.040 A 
HETATM   18  C   UNL     1     -42.278  58.496 -57.326  1.00  0.00     0.025 A 
HETATM   19  C   UNL     1     -42.719  57.520 -59.388  1.00  0.00     0.112 A 
HETATM   20  C   UNL     1     -41.904  59.504 -58.187  1.00  0.00     0.053 A 
HETATM   21  S   UNL     1     -42.130  59.060 -59.822  1.00  0.00    -0.081 SA
HETATM   22  N   UNL     1     -43.083  56.635 -60.329  1.00  0.00    -0.234 NA
HETATM   23  C   UNL     1     -43.508  55.485 -59.802  1.00  0.00     0.236 A 
HETATM   24  N   UNL     1     -43.609  55.167 -58.501  1.00  0.00    -0.229 NA
ENDBRANCH  14  16
ENDBRANCH  13  14
ENDBRANCH   1  13
TORSDOF 3
ENDMDL
MODEL 10
REMARK VINA RESULT:      -7.3      3.138      4.495
REMARK  3 active torsions:
REMARK  status: ('A' for Active; 'I' for Inactive)
REMARK    1  A    between atoms: C_7  and  N_8 
REMARK    2  A    between atoms: N_8  and  C_9 
REMARK    3  A    between atoms: C_9  and  C_10 
ROOT
HETATM    1  C   UNL     1     -41.957  54.035 -54.252  1.00  0.00    -0.041 A 
HETATM    2  C   UNL     1     -41.160  52.888 -54.127  1.00  0.00     0.035 A 
HETATM    3  C   UNL     1     -40.388  52.683 -52.979  1.00  0.00     0.070 A 
HETATM    4 CL   UNL     1     -39.412  51.261 -52.893  1.00  0.00    -0.081 Cl
HETATM    5  C   UNL     1     -40.429  53.602 -51.925  1.00  0.00     0.123 A 
HETATM    6  C   UNL     1     -41.234  54.739 -52.040  1.00  0.00     0.104 A 
HETATM    7  O   UNL     1     -41.267  55.727 -51.092  1.00  0.00    -0.348 OA
HETATM    8  C   UNL     1     -41.790  55.260 -49.847  1.00  0.00     0.178 C 
HETATM    9  C   UNL     1     -40.732  54.554 -49.011  1.00  0.00     0.053 C 
HETATM   10  C   UNL     1     -40.331  53.227 -49.637  1.00  0.00     0.178 C 
HETATM   11  O   UNL     1     -39.601  53.417 -50.848  1.00  0.00    -0.346 OA
HETATM   12  C   UNL     1     -41.982  54.961 -53.199  1.00  0.00     0.048 A 
ENDROOT
BRANCH   1  13
HETATM   13  C   UNL     1     -42.800  54.259 -55.485  1.00  0.00     0.132 C 
BRANCH  13  14
HETATM   14  N   UNL     1     -43.736  55.336 -55.217  1.00  0.00    -0.272 NA
HETATM   15  H   UNL     1     -44.712  55.071 -55.272  1.00  0.00     0.129 HD
BRANCH  14  16
HETATM   16  C   UNL     1     -43.473  56.541 -55.867  1.00  0.00     0.117 A 
HETATM   17  C   UNL     1     -44.004  57.764 -55.404  1.00  0.00     0.040 A 
HETATM   18  C   UNL     1     -44.839  58.110 -54.284  1.00  0.00     0.025 A 
HETATM   19  C   UNL     1     -43.680  58.893 -56.139  1.00  0.00     0.112 A 
HETATM   20  C   UNL     1     -45.115  59.458 -54.224  1.00  0.00     0.053 A 
HETATM   21  S   UNL     1     -44.376  60.315 -55.506  1.00  0.00    -0.081 SA
HETATM   22  N   UNL     1     -42.909  58.937 -57.237  1.00  0.00    -0.234 NA
HETATM   23  C   UNL     1     -42.447  57.732 -57.576  1.00  0.00     0.236 A 
HETATM   24  N   UNL     1     -42.683  56.561 -56.964  1.00  0.00    -0.229 NA
ENDBRANCH  14  16
ENDBRANCH  13  14
ENDBRANCH   1  13
TORSDOF 3
ENDMDL
