MODEL 1
REMARK VINA RESULT:      -9.3      0.000      0.000
REMARK  8 active torsions:
REMARK  status: ('A' for Active; 'I' for Inactive)
REMARK    1  A    between atoms: C_2  and  O_3 
REMARK    2  A    between atoms: O_3  and  C_4 
REMARK    3  A    between atoms: C_4  and  C_5 
REMARK    4  A    between atoms: C_6  and  O_7 
REMARK    5  A    between atoms: C_6  and  C_8 
REMARK    6  A    between atoms: C_16  and  C_17 
REMARK    7  A    between atoms: C_18  and  C_19 
REMARK    8  A    between atoms: N_26  and  C_27 
ROOT
HETATM    1  C   UNL     1     -41.710  57.726 -52.379  1.00  0.00     0.177 C 
HETATM    2  C   UNL     1     -42.005  58.180 -50.947  1.00  0.00     0.250 C 
HETATM    3  N   UNL     1     -43.427  58.277 -50.674  1.00  0.00    -0.303 N 
HETATM    4  C   UNL     1     -44.397  57.593 -51.322  1.00  0.00     0.319 C 
HETATM    5  O   UNL     1     -45.565  57.657 -50.963  1.00  0.00    -0.247 OA
HETATM    6  N   UNL     1     -44.015  56.860 -52.392  1.00  0.00    -0.333 N 
HETATM    7  C   UNL     1     -42.636  56.556 -52.703  1.00  0.00     0.142 C 
HETATM    8  H   UNL     1     -43.764  58.834 -49.897  1.00  0.00     0.167 HD
HETATM    9  H   UNL     1     -44.753  56.290 -52.787  1.00  0.00     0.165 HD
ENDROOT
BRANCH   7  10
HETATM   10  C   UNL     1     -42.555  56.062 -54.117  1.00  0.00     0.015 A 
HETATM   11  C   UNL     1     -41.902  54.897 -54.625  1.00  0.00     0.097 A 
HETATM   12  N   UNL     1     -42.085  54.782 -55.947  1.00  0.00    -0.167 NA
HETATM   13  N   UNL     1     -42.834  55.843 -56.317  1.00  0.00    -0.244 N 
HETATM   14  C   UNL     1     -43.146  56.626 -55.234  1.00  0.00     0.130 A 
BRANCH  11  15
HETATM   15  C   UNL     1     -41.148  53.868 -53.908  1.00  0.00    -0.005 A 
HETATM   16  C   UNL     1     -40.577  52.804 -54.623  1.00  0.00     0.014 A 
HETATM   17  C   UNL     1     -39.859  51.804 -53.962  1.00  0.00     0.001 A 
HETATM   18  C   UNL     1     -39.702  51.859 -52.579  1.00  0.00     0.000 A 
HETATM   19  C   UNL     1     -40.251  52.918 -51.859  1.00  0.00     0.001 A 
HETATM   20  C   UNL     1     -40.964  53.923 -52.520  1.00  0.00     0.014 A 
ENDBRANCH  11  15
BRANCH  13  21
HETATM   21  C   UNL     1     -43.209  56.036 -57.677  1.00  0.00     0.058 A 
HETATM   22  C   UNL     1     -43.161  57.328 -58.227  1.00  0.00     0.031 A 
HETATM   23  C   UNL     1     -43.520  57.541 -59.559  1.00  0.00     0.002 A 
HETATM   24  C   UNL     1     -43.931  56.470 -60.350  1.00  0.00     0.000 A 
HETATM   25  C   UNL     1     -43.985  55.185 -59.811  1.00  0.00     0.002 A 
HETATM   26  C   UNL     1     -43.625  54.965 -58.478  1.00  0.00     0.031 A 
ENDBRANCH  13  21
ENDBRANCH   7  10
BRANCH   1  27
HETATM   27  C   UNL     1     -41.848  58.866 -53.361  1.00  0.00     0.270 C 
HETATM   28  O   UNL     1     -40.985  59.233 -54.141  1.00  0.00    -0.265 OA
BRANCH  27  29
HETATM   29  O   UNL     1     -43.095  59.408 -53.266  1.00  0.00    -0.321 OA
BRANCH  29  30
HETATM   30  C   UNL     1     -43.542  60.170 -54.400  1.00  0.00     0.174 C 
HETATM   31  C   UNL     1     -44.977  59.824 -54.753  1.00  0.00     0.034 C 
ENDBRANCH  29  30
ENDBRANCH  27  29
ENDBRANCH   1  27
BRANCH   2  32
HETATM   32  O   UNL     1     -41.564  57.112 -50.081  1.00  0.00    -0.363 OA
HETATM   33  H   UNL     1     -40.768  57.448 -49.629  1.00  0.00     0.213 HD
ENDBRANCH   2  32
BRANCH   2  34
HETATM   34  C   UNL     1     -41.218  59.484 -50.579  1.00  0.00     0.439 C 
HETATM   35  F   UNL     1     -40.020  59.531 -51.205  1.00  0.00    -0.166 F 
HETATM   36  F   UNL     1     -41.884  60.615 -50.885  1.00  0.00    -0.166 F 
HETATM   37  F   UNL     1     -40.981  59.512 -49.242  1.00  0.00    -0.166 F 
ENDBRANCH   2  34
TORSDOF 8
ENDMDL
MODEL 2
REMARK VINA RESULT:      -8.7      1.864      5.532
REMARK  8 active torsions:
REMARK  status: ('A' for Active; 'I' for Inactive)
REMARK    1  A    between atoms: C_2  and  O_3 
REMARK    2  A    between atoms: O_3  and  C_4 
REMARK    3  A    between atoms: C_4  and  C_5 
REMARK    4  A    between atoms: C_6  and  O_7 
REMARK    5  A    between atoms: C_6  and  C_8 
REMARK    6  A    between atoms: C_16  and  C_17 
REMARK    7  A    between atoms: C_18  and  C_19 
REMARK    8  A    between atoms: N_26  and  C_27 
ROOT
HETATM    1  C   UNL     1     -42.554  57.898 -52.779  1.00  0.00     0.177 C 
HETATM    2  C   UNL     1     -42.407  59.378 -52.422  1.00  0.00     0.250 C 
HETATM    3  N   UNL     1     -41.056  59.724 -52.017  1.00  0.00    -0.303 N 
HETATM    4  C   UNL     1     -39.937  59.056 -52.375  1.00  0.00     0.319 C 
HETATM    5  O   UNL     1     -38.826  59.471 -52.071  1.00  0.00    -0.247 OA
HETATM    6  N   UNL     1     -40.107  57.903 -53.060  1.00  0.00    -0.333 N 
HETATM    7  C   UNL     1     -41.365  57.502 -53.652  1.00  0.00     0.142 C 
HETATM    8  H   UNL     1     -40.881  60.566 -51.480  1.00  0.00     0.167 HD
HETATM    9  H   UNL     1     -39.245  57.488 -53.392  1.00  0.00     0.165 HD
ENDROOT
BRANCH   7  10
HETATM   10  C   UNL     1     -41.295  56.044 -53.998  1.00  0.00     0.015 A 
HETATM   11  C   UNL     1     -41.758  55.378 -55.175  1.00  0.00     0.097 A 
HETATM   12  N   UNL     1     -41.482  54.068 -55.124  1.00  0.00    -0.167 NA
HETATM   13  N   UNL     1     -40.858  53.860 -53.944  1.00  0.00    -0.244 N 
HETATM   14  C   UNL     1     -40.718  55.035 -53.249  1.00  0.00     0.130 A 
BRANCH  11  15
HETATM   15  C   UNL     1     -42.411  55.933 -56.361  1.00  0.00    -0.005 A 
HETATM   16  C   UNL     1     -42.982  55.067 -57.305  1.00  0.00     0.014 A 
HETATM   17  C   UNL     1     -43.604  55.571 -58.450  1.00  0.00     0.001 A 
HETATM   18  C   UNL     1     -43.665  56.946 -58.661  1.00  0.00     0.000 A 
HETATM   19  C   UNL     1     -43.116  57.818 -57.722  1.00  0.00     0.001 A 
HETATM   20  C   UNL     1     -42.498  57.316 -56.573  1.00  0.00     0.014 A 
ENDBRANCH  11  15
BRANCH  13  21
HETATM   21  C   UNL     1     -40.432  52.557 -53.561  1.00  0.00     0.058 A 
HETATM   22  C   UNL     1     -40.498  51.509 -54.495  1.00  0.00     0.031 A 
HETATM   23  C   UNL     1     -40.082  50.224 -54.143  1.00  0.00     0.002 A 
HETATM   24  C   UNL     1     -39.601  49.973 -52.859  1.00  0.00     0.000 A 
HETATM   25  C   UNL     1     -39.535  51.007 -51.926  1.00  0.00     0.002 A 
HETATM   26  C   UNL     1     -39.949  52.296 -52.272  1.00  0.00     0.031 A 
ENDBRANCH  13  21
ENDBRANCH   7  10
BRANCH   1  27
HETATM   27  C   UNL     1     -42.678  57.039 -51.542  1.00  0.00     0.270 C 
HETATM   28  O   UNL     1     -41.896  57.035 -50.605  1.00  0.00    -0.265 OA
BRANCH  27  29
HETATM   29  O   UNL     1     -43.811  56.287 -51.615  1.00  0.00    -0.321 OA
BRANCH  29  30
HETATM   30  C   UNL     1     -43.894  55.177 -50.706  1.00  0.00     0.174 C 
HETATM   31  C   UNL     1     -43.506  53.882 -51.396  1.00  0.00     0.034 C 
ENDBRANCH  29  30
ENDBRANCH  27  29
ENDBRANCH   1  27
BRANCH   2  32
HETATM   32  O   UNL     1     -42.591  60.116 -53.651  1.00  0.00    -0.363 OA
HETATM   33  H   UNL     1     -43.424  60.610 -53.540  1.00  0.00     0.213 HD
ENDBRANCH   2  32
BRANCH   2  34
HETATM   34  C   UNL     1     -43.494  59.837 -51.392  1.00  0.00     0.439 C 
HETATM   35  F   UNL     1     -43.965  61.070 -51.688  1.00  0.00    -0.166 F 
HETATM   36  F   UNL     1     -44.549  59.002 -51.319  1.00  0.00    -0.166 F 
HETATM   37  F   UNL     1     -42.948  59.898 -50.149  1.00  0.00    -0.166 F 
ENDBRANCH   2  34
TORSDOF 8
ENDMDL
MODEL 3
REMARK VINA RESULT:      -8.2      1.549      2.071
REMARK  8 active torsions:
REMARK  status: ('A' for Active; 'I' for Inactive)
REMARK    1  A    between atoms: C_2  and  O_3 
REMARK    2  A    between atoms: O_3  and  C_4 
REMARK    3  A    between atoms: C_4  and  C_5 
REMARK    4  A    between atoms: C_6  and  O_7 
REMARK    5  A    between atoms: C_6  and  C_8 
REMARK    6  A    between atoms: C_16  and  C_17 
REMARK    7  A    between atoms: C_18  and  C_19 
REMARK    8  A    between atoms: N_26  and  C_27 
ROOT
HETATM    1  C   UNL     1     -42.228  58.164 -52.676  1.00  0.00     0.177 C 
HETATM    2  C   UNL     1     -42.312  58.377 -51.163  1.00  0.00     0.250 C 
HETATM    3  N   UNL     1     -43.586  58.936 -50.747  1.00  0.00    -0.303 N 
HETATM    4  C   UNL     1     -44.750  58.818 -51.425  1.00  0.00     0.319 C 
HETATM    5  O   UNL     1     -45.801  59.234 -50.955  1.00  0.00    -0.247 OA
HETATM    6  N   UNL     1     -44.689  58.243 -52.646  1.00  0.00    -0.333 N 
HETATM    7  C   UNL     1     -43.535  57.520 -53.135  1.00  0.00     0.142 C 
HETATM    8  H   UNL     1     -43.675  59.399 -49.849  1.00  0.00     0.167 HD
HETATM    9  H   UNL     1     -45.594  58.086 -53.075  1.00  0.00     0.165 HD
ENDROOT
BRANCH   7  10
HETATM   10  C   UNL     1     -43.664  57.346 -54.619  1.00  0.00     0.015 A 
HETATM   11  C   UNL     1     -43.055  56.368 -55.464  1.00  0.00     0.097 A 
HETATM   12  N   UNL     1     -43.445  56.524 -56.737  1.00  0.00    -0.167 NA
HETATM   13  N   UNL     1     -44.286  57.581 -56.746  1.00  0.00    -0.244 N 
HETATM   14  C   UNL     1     -44.450  58.089 -55.482  1.00  0.00     0.130 A 
BRANCH  11  15
HETATM   15  C   UNL     1     -42.154  55.269 -55.114  1.00  0.00    -0.005 A 
HETATM   16  C   UNL     1     -42.691  54.036 -54.713  1.00  0.00     0.014 A 
HETATM   17  C   UNL     1     -41.853  52.974 -54.365  1.00  0.00     0.001 A 
HETATM   18  C   UNL     1     -40.471  53.131 -54.418  1.00  0.00     0.000 A 
HETATM   19  C   UNL     1     -39.925  54.345 -54.829  1.00  0.00     0.001 A 
HETATM   20  C   UNL     1     -40.762  55.408 -55.183  1.00  0.00     0.014 A 
ENDBRANCH  11  15
BRANCH  13  21
HETATM   21  C   UNL     1     -44.882  58.030 -57.958  1.00  0.00     0.058 A 
HETATM   22  C   UNL     1     -45.251  59.380 -58.084  1.00  0.00     0.031 A 
HETATM   23  C   UNL     1     -45.834  59.844 -59.264  1.00  0.00     0.002 A 
HETATM   24  C   UNL     1     -46.056  58.967 -60.324  1.00  0.00     0.000 A 
HETATM   25  C   UNL     1     -45.696  57.626 -60.206  1.00  0.00     0.002 A 
HETATM   26  C   UNL     1     -45.110  57.154 -59.028  1.00  0.00     0.031 A 
ENDBRANCH  13  21
ENDBRANCH   7  10
BRANCH   1  27
HETATM   27  C   UNL     1     -41.929  59.454 -53.402  1.00  0.00     0.270 C 
HETATM   28  O   UNL     1     -40.956  59.655 -54.111  1.00  0.00    -0.265 OA
BRANCH  27  29
HETATM   29  O   UNL     1     -42.924  60.355 -53.170  1.00  0.00    -0.321 OA
BRANCH  29  30
HETATM   30  C   UNL     1     -43.080  61.393 -54.152  1.00  0.00     0.174 C 
HETATM   31  C   UNL     1     -43.148  62.757 -53.491  1.00  0.00     0.034 C 
ENDBRANCH  29  30
ENDBRANCH  27  29
ENDBRANCH   1  27
BRANCH   2  32
HETATM   32  O   UNL     1     -42.305  57.063 -50.563  1.00  0.00    -0.363 OA
HETATM   33  H   UNL     1     -41.439  56.676 -50.783  1.00  0.00     0.213 HD
ENDBRANCH   2  32
BRANCH   2  34
HETATM   34  C   UNL     1     -41.082  59.184 -50.622  1.00  0.00     0.439 C 
HETATM   35  F   UNL     1     -39.949  58.860 -51.286  1.00  0.00    -0.166 F 
HETATM   36  F   UNL     1     -41.239  60.519 -50.707  1.00  0.00    -0.166 F 
HETATM   37  F   UNL     1     -40.884  58.889 -49.311  1.00  0.00    -0.166 F 
ENDBRANCH   2  34
TORSDOF 8
ENDMDL
MODEL 4
REMARK VINA RESULT:      -8.2      1.953      2.833
REMARK  8 active torsions:
REMARK  status: ('A' for Active; 'I' for Inactive)
REMARK    1  A    between atoms: C_2  and  O_3 
REMARK    2  A    between atoms: O_3  and  C_4 
REMARK    3  A    between atoms: C_4  and  C_5 
REMARK    4  A    between atoms: C_6  and  O_7 
REMARK    5  A    between atoms: C_6  and  C_8 
REMARK    6  A    between atoms: C_16  and  C_17 
REMARK    7  A    between atoms: C_18  and  C_19 
REMARK    8  A    between atoms: N_26  and  C_27 
ROOT
HETATM    1  C   UNL     1     -43.207  59.321 -52.035  1.00  0.00     0.177 C 
HETATM    2  C   UNL     1     -44.009  60.119 -51.004  1.00  0.00     0.250 C 
HETATM    3  N   UNL     1     -45.155  60.793 -51.588  1.00  0.00    -0.303 N 
HETATM    4  C   UNL     1     -45.795  60.412 -52.716  1.00  0.00     0.319 C 
HETATM    5  O   UNL     1     -46.815  60.978 -53.087  1.00  0.00    -0.247 OA
HETATM    6  N   UNL     1     -45.242  59.398 -53.419  1.00  0.00    -0.333 N 
HETATM    7  C   UNL     1     -44.195  58.544 -52.903  1.00  0.00     0.142 C 
HETATM    8  H   UNL     1     -45.589  61.575 -51.110  1.00  0.00     0.167 HD
HETATM    9  H   UNL     1     -45.805  59.082 -54.200  1.00  0.00     0.165 HD
ENDROOT
BRANCH   7  10
HETATM   10  C   UNL     1     -43.575  57.794 -54.044  1.00  0.00     0.015 A 
HETATM   11  C   UNL     1     -42.843  56.567 -54.019  1.00  0.00     0.097 A 
HETATM   12  N   UNL     1     -42.479  56.200 -55.255  1.00  0.00    -0.167 NA
HETATM   13  N   UNL     1     -42.946  57.158 -56.085  1.00  0.00    -0.244 N 
HETATM   14  C   UNL     1     -43.625  58.125 -55.387  1.00  0.00     0.130 A 
BRANCH  11  15
HETATM   15  C   UNL     1     -42.511  55.707 -52.883  1.00  0.00    -0.005 A 
HETATM   16  C   UNL     1     -41.233  55.133 -52.800  1.00  0.00     0.014 A 
HETATM   17  C   UNL     1     -40.893  54.302 -51.730  1.00  0.00     0.001 A 
HETATM   18  C   UNL     1     -41.825  54.038 -50.730  1.00  0.00     0.000 A 
HETATM   19  C   UNL     1     -43.093  54.614 -50.792  1.00  0.00     0.001 A 
HETATM   20  C   UNL     1     -43.433  55.451 -51.859  1.00  0.00     0.014 A 
ENDBRANCH  11  15
BRANCH  13  21
HETATM   21  C   UNL     1     -42.722  57.083 -57.489  1.00  0.00     0.058 A 
HETATM   22  C   UNL     1     -42.148  58.179 -58.154  1.00  0.00     0.031 A 
HETATM   23  C   UNL     1     -41.915  58.127 -59.529  1.00  0.00     0.002 A 
HETATM   24  C   UNL     1     -42.254  56.985 -60.251  1.00  0.00     0.000 A 
HETATM   25  C   UNL     1     -42.827  55.893 -59.600  1.00  0.00     0.002 A 
HETATM   26  C   UNL     1     -43.062  55.938 -58.223  1.00  0.00     0.031 A 
ENDBRANCH  13  21
ENDBRANCH   7  10
BRANCH   1  27
HETATM   27  C   UNL     1     -42.300  60.217 -52.845  1.00  0.00     0.270 C 
HETATM   28  O   UNL     1     -42.669  61.136 -53.557  1.00  0.00    -0.265 OA
BRANCH  27  29
HETATM   29  O   UNL     1     -41.000  59.862 -52.640  1.00  0.00    -0.321 OA
BRANCH  29  30
HETATM   30  C   UNL     1     -40.782  58.705 -51.816  1.00  0.00     0.174 C 
HETATM   31  C   UNL     1     -39.551  58.885 -50.946  1.00  0.00     0.034 C 
ENDBRANCH  29  30
ENDBRANCH  27  29
ENDBRANCH   1  27
BRANCH   2  32
HETATM   32  O   UNL     1     -44.604  59.152 -50.111  1.00  0.00    -0.363 OA
HETATM   33  H   UNL     1     -43.922  58.954 -49.443  1.00  0.00     0.213 HD
ENDBRANCH   2  32
BRANCH   2  34
HETATM   34  C   UNL     1     -43.091  61.077 -50.171  1.00  0.00     0.439 C 
HETATM   35  F   UNL     1     -42.005  60.428 -49.693  1.00  0.00    -0.166 F 
HETATM   36  F   UNL     1     -42.656  62.144 -50.870  1.00  0.00    -0.166 F 
HETATM   37  F   UNL     1     -43.782  61.556 -49.103  1.00  0.00    -0.166 F 
ENDBRANCH   2  34
TORSDOF 8
ENDMDL
MODEL 5
REMARK VINA RESULT:      -8.0      1.774      2.441
REMARK  8 active torsions:
REMARK  status: ('A' for Active; 'I' for Inactive)
REMARK    1  A    between atoms: C_2  and  O_3 
REMARK    2  A    between atoms: O_3  and  C_4 
REMARK    3  A    between atoms: C_4  and  C_5 
REMARK    4  A    between atoms: C_6  and  O_7 
REMARK    5  A    between atoms: C_6  and  C_8 
REMARK    6  A    between atoms: C_16  and  C_17 
REMARK    7  A    between atoms: C_18  and  C_19 
REMARK    8  A    between atoms: N_26  and  C_27 
ROOT
HETATM    1  C   UNL     1     -42.270  56.056 -52.240  1.00  0.00     0.177 C 
HETATM    2  C   UNL     1     -42.636  56.060 -50.754  1.00  0.00     0.250 C 
HETATM    3  N   UNL     1     -43.736  56.958 -50.452  1.00  0.00    -0.303 N 
HETATM    4  C   UNL     1     -44.686  57.353 -51.329  1.00  0.00     0.319 C 
HETATM    5  O   UNL     1     -45.637  58.035 -50.968  1.00  0.00    -0.247 OA
HETATM    6  N   UNL     1     -44.521  56.981 -52.617  1.00  0.00    -0.333 N 
HETATM    7  C   UNL     1     -43.565  55.983 -53.046  1.00  0.00     0.142 C 
HETATM    8  H   UNL     1     -43.886  57.285 -49.504  1.00  0.00     0.167 HD
HETATM    9  H   UNL     1     -45.302  57.213 -53.219  1.00  0.00     0.165 HD
ENDROOT
BRANCH   7  10
HETATM   10  C   UNL     1     -43.389  56.086 -54.532  1.00  0.00     0.015 A 
HETATM   11  C   UNL     1     -42.558  55.305 -55.393  1.00  0.00     0.097 A 
HETATM   12  N   UNL     1     -42.702  55.683 -56.671  1.00  0.00    -0.167 NA
HETATM   13  N   UNL     1     -43.598  56.694 -56.665  1.00  0.00    -0.244 N 
HETATM   14  C   UNL     1     -44.042  56.950 -55.392  1.00  0.00     0.130 A 
BRANCH  11  15
HETATM   15  C   UNL     1     -41.668  54.191 -55.066  1.00  0.00    -0.005 A 
HETATM   16  C   UNL     1     -42.215  52.942 -54.733  1.00  0.00     0.014 A 
HETATM   17  C   UNL     1     -41.387  51.865 -54.409  1.00  0.00     0.001 A 
HETATM   18  C   UNL     1     -40.003  52.023 -54.416  1.00  0.00     0.000 A 
HETATM   19  C   UNL     1     -39.447  53.254 -54.759  1.00  0.00     0.001 A 
HETATM   20  C   UNL     1     -40.274  54.332 -55.090  1.00  0.00     0.014 A 
ENDBRANCH  11  15
BRANCH  13  21
HETATM   21  C   UNL     1     -43.977  57.342 -57.875  1.00  0.00     0.058 A 
HETATM   22  C   UNL     1     -43.415  56.916 -59.089  1.00  0.00     0.031 A 
HETATM   23  C   UNL     1     -43.774  57.535 -60.288  1.00  0.00     0.002 A 
HETATM   24  C   UNL     1     -44.693  58.582 -60.285  1.00  0.00     0.000 A 
HETATM   25  C   UNL     1     -45.254  59.013 -59.083  1.00  0.00     0.002 A 
HETATM   26  C   UNL     1     -44.900  58.397 -57.879  1.00  0.00     0.031 A 
ENDBRANCH  13  21
ENDBRANCH   7  10
BRANCH   1  27
HETATM   27  C   UNL     1     -41.425  57.255 -52.605  1.00  0.00     0.270 C 
HETATM   28  O   UNL     1     -40.299  57.207 -53.073  1.00  0.00    -0.265 OA
BRANCH  27  29
HETATM   29  O   UNL     1     -42.120  58.400 -52.359  1.00  0.00    -0.321 OA
BRANCH  29  30
HETATM   30  C   UNL     1     -41.337  59.551 -51.998  1.00  0.00     0.174 C 
HETATM   31  C   UNL     1     -42.055  60.389 -50.957  1.00  0.00     0.034 C 
ENDBRANCH  29  30
ENDBRANCH  27  29
ENDBRANCH   1  27
BRANCH   2  32
HETATM   32  O   UNL     1     -43.177  54.752 -50.463  1.00  0.00    -0.363 OA
HETATM   33  H   UNL     1     -43.451  54.780 -49.528  1.00  0.00     0.213 HD
ENDBRANCH   2  32
BRANCH   2  34
HETATM   34  C   UNL     1     -41.381  56.299 -49.848  1.00  0.00     0.439 C 
HETATM   35  F   UNL     1     -41.220  57.611 -49.565  1.00  0.00    -0.166 F 
HETATM   36  F   UNL     1     -41.430  55.631 -48.678  1.00  0.00    -0.166 F 
HETATM   37  F   UNL     1     -40.263  55.882 -50.497  1.00  0.00    -0.166 F 
ENDBRANCH   2  34
TORSDOF 8
ENDMDL
MODEL 6
REMARK VINA RESULT:      -7.9      3.052      6.285
REMARK  8 active torsions:
REMARK  status: ('A' for Active; 'I' for Inactive)
REMARK    1  A    between atoms: C_2  and  O_3 
REMARK    2  A    between atoms: O_3  and  C_4 
REMARK    3  A    between atoms: C_4  and  C_5 
REMARK    4  A    between atoms: C_6  and  O_7 
REMARK    5  A    between atoms: C_6  and  C_8 
REMARK    6  A    between atoms: C_16  and  C_17 
REMARK    7  A    between atoms: C_18  and  C_19 
REMARK    8  A    between atoms: N_26  and  C_27 
ROOT
HETATM    1  C   UNL     1     -41.718  56.170 -53.825  1.00  0.00     0.177 C 
HETATM    2  C   UNL     1     -41.066  55.056 -54.647  1.00  0.00     0.250 C 
HETATM    3  N   UNL     1     -41.779  54.784 -55.883  1.00  0.00    -0.303 N 
HETATM    4  C   UNL     1     -42.568  55.662 -56.540  1.00  0.00     0.319 C 
HETATM    5  O   UNL     1     -43.055  55.385 -57.629  1.00  0.00    -0.247 OA
HETATM    6  N   UNL     1     -42.810  56.843 -55.927  1.00  0.00    -0.333 N 
HETATM    7  C   UNL     1     -42.072  57.313 -54.775  1.00  0.00     0.142 C 
HETATM    8  H   UNL     1     -41.649  53.902 -56.367  1.00  0.00     0.167 HD
HETATM    9  H   UNL     1     -43.323  57.506 -56.495  1.00  0.00     0.165 HD
ENDROOT
BRANCH   7  10
HETATM   10  C   UNL     1     -42.827  58.445 -54.144  1.00  0.00     0.015 A 
HETATM   11  C   UNL     1     -42.435  59.292 -53.062  1.00  0.00     0.097 A 
HETATM   12  N   UNL     1     -43.375  60.213 -52.809  1.00  0.00    -0.167 NA
HETATM   13  N   UNL     1     -44.372  59.985 -53.691  1.00  0.00    -0.244 N 
HETATM   14  C   UNL     1     -44.065  58.935 -54.520  1.00  0.00     0.130 A 
BRANCH  11  15
HETATM   15  C   UNL     1     -41.194  59.294 -52.287  1.00  0.00    -0.005 A 
HETATM   16  C   UNL     1     -41.237  59.573 -50.912  1.00  0.00     0.014 A 
HETATM   17  C   UNL     1     -40.066  59.589 -50.151  1.00  0.00     0.001 A 
HETATM   18  C   UNL     1     -38.840  59.323 -50.754  1.00  0.00     0.000 A 
HETATM   19  C   UNL     1     -38.784  59.030 -52.115  1.00  0.00     0.001 A 
HETATM   20  C   UNL     1     -39.956  59.007 -52.878  1.00  0.00     0.014 A 
ENDBRANCH  11  15
BRANCH  13  21
HETATM   21  C   UNL     1     -45.547  60.789 -53.690  1.00  0.00     0.058 A 
HETATM   22  C   UNL     1     -46.333  60.858 -52.528  1.00  0.00     0.031 A 
HETATM   23  C   UNL     1     -47.487  61.643 -52.502  1.00  0.00     0.002 A 
HETATM   24  C   UNL     1     -47.868  62.360 -53.635  1.00  0.00     0.000 A 
HETATM   25  C   UNL     1     -47.096  62.293 -54.793  1.00  0.00     0.002 A 
HETATM   26  C   UNL     1     -45.938  61.511 -54.826  1.00  0.00     0.031 A 
ENDBRANCH  13  21
ENDBRANCH   7  10
BRANCH   1  27
HETATM   27  C   UNL     1     -42.913  55.663 -53.054  1.00  0.00     0.270 C 
HETATM   28  O   UNL     1     -43.874  55.090 -53.540  1.00  0.00    -0.265 OA
BRANCH  27  29
HETATM   29  O   UNL     1     -42.746  55.918 -51.726  1.00  0.00    -0.321 OA
BRANCH  29  30
HETATM   30  C   UNL     1     -43.944  55.947 -50.931  1.00  0.00     0.174 C 
HETATM   31  C   UNL     1     -44.613  57.307 -51.012  1.00  0.00     0.034 C 
ENDBRANCH  29  30
ENDBRANCH  27  29
ENDBRANCH   1  27
BRANCH   2  32
HETATM   32  O   UNL     1     -39.793  55.570 -55.096  1.00  0.00    -0.363 OA
HETATM   33  H   UNL     1     -39.932  56.522 -55.254  1.00  0.00     0.213 HD
ENDBRANCH   2  32
BRANCH   2  34
HETATM   34  C   UNL     1     -40.816  53.771 -53.787  1.00  0.00     0.439 C 
HETATM   35  F   UNL     1     -40.415  54.087 -52.534  1.00  0.00    -0.166 F 
HETATM   36  F   UNL     1     -41.899  52.977 -53.682  1.00  0.00    -0.166 F 
HETATM   37  F   UNL     1     -39.830  53.027 -54.354  1.00  0.00    -0.166 F 
ENDBRANCH   2  34
TORSDOF 8
ENDMDL
MODEL 7
REMARK VINA RESULT:      -7.9      2.211      2.716
REMARK  8 active torsions:
REMARK  status: ('A' for Active; 'I' for Inactive)
REMARK    1  A    between atoms: C_2  and  O_3 
REMARK    2  A    between atoms: O_3  and  C_4 
REMARK    3  A    between atoms: C_4  and  C_5 
REMARK    4  A    between atoms: C_6  and  O_7 
REMARK    5  A    between atoms: C_6  and  C_8 
REMARK    6  A    between atoms: C_16  and  C_17 
REMARK    7  A    between atoms: C_18  and  C_19 
REMARK    8  A    between atoms: N_26  and  C_27 
ROOT
HETATM    1  C   UNL     1     -43.382  59.240 -51.925  1.00  0.00     0.177 C 
HETATM    2  C   UNL     1     -44.213  60.040 -50.919  1.00  0.00     0.250 C 
HETATM    3  N   UNL     1     -45.287  60.786 -51.549  1.00  0.00    -0.303 N 
HETATM    4  C   UNL     1     -45.869  60.473 -52.728  1.00  0.00     0.319 C 
HETATM    5  O   UNL     1     -46.837  61.098 -53.142  1.00  0.00    -0.247 OA
HETATM    6  N   UNL     1     -45.318  59.459 -53.432  1.00  0.00    -0.333 N 
HETATM    7  C   UNL     1     -44.345  58.540 -52.882  1.00  0.00     0.142 C 
HETATM    8  H   UNL     1     -45.717  61.570 -51.071  1.00  0.00     0.167 HD
HETATM    9  H   UNL     1     -45.841  59.195 -54.258  1.00  0.00     0.165 HD
ENDROOT
BRANCH   7  10
HETATM   10  C   UNL     1     -43.685  57.800 -54.008  1.00  0.00     0.015 A 
HETATM   11  C   UNL     1     -42.894  56.612 -53.960  1.00  0.00     0.097 A 
HETATM   12  N   UNL     1     -42.509  56.241 -55.188  1.00  0.00    -0.167 NA
HETATM   13  N   UNL     1     -43.022  57.159 -56.036  1.00  0.00    -0.244 N 
HETATM   14  C   UNL     1     -43.749  58.104 -55.357  1.00  0.00     0.130 A 
BRANCH  11  15
HETATM   15  C   UNL     1     -42.521  55.791 -52.807  1.00  0.00    -0.005 A 
HETATM   16  C   UNL     1     -43.264  54.638 -52.510  1.00  0.00     0.014 A 
HETATM   17  C   UNL     1     -42.935  53.841 -51.411  1.00  0.00     0.001 A 
HETATM   18  C   UNL     1     -41.857  54.186 -50.599  1.00  0.00     0.000 A 
HETATM   19  C   UNL     1     -41.102  55.319 -50.892  1.00  0.00     0.001 A 
HETATM   20  C   UNL     1     -41.426  56.115 -51.995  1.00  0.00     0.014 A 
ENDBRANCH  11  15
BRANCH  13  21
HETATM   21  C   UNL     1     -42.791  57.069 -57.438  1.00  0.00     0.058 A 
HETATM   22  C   UNL     1     -43.184  55.910 -58.128  1.00  0.00     0.031 A 
HETATM   23  C   UNL     1     -42.971  55.802 -59.503  1.00  0.00     0.002 A 
HETATM   24  C   UNL     1     -42.362  56.845 -60.199  1.00  0.00     0.000 A 
HETATM   25  C   UNL     1     -41.966  57.997 -59.522  1.00  0.00     0.002 A 
HETATM   26  C   UNL     1     -42.178  58.113 -58.145  1.00  0.00     0.031 A 
ENDBRANCH  13  21
ENDBRANCH   7  10
BRANCH   1  27
HETATM   27  C   UNL     1     -42.385  60.119 -52.643  1.00  0.00     0.270 C 
HETATM   28  O   UNL     1     -41.182  59.925 -52.694  1.00  0.00    -0.265 OA
BRANCH  27  29
HETATM   29  O   UNL     1     -43.035  61.151 -53.251  1.00  0.00    -0.321 OA
BRANCH  29  30
HETATM   30  C   UNL     1     -42.635  61.443 -54.600  1.00  0.00     0.174 C 
HETATM   31  C   UNL     1     -43.788  62.038 -55.389  1.00  0.00     0.034 C 
ENDBRANCH  29  30
ENDBRANCH  27  29
ENDBRANCH   1  27
BRANCH   2  32
HETATM   32  O   UNL     1     -44.906  59.072 -50.101  1.00  0.00    -0.363 OA
HETATM   33  H   UNL     1     -45.184  58.362 -50.708  1.00  0.00     0.213 HD
ENDBRANCH   2  32
BRANCH   2  34
HETATM   34  C   UNL     1     -43.310  60.925 -49.994  1.00  0.00     0.439 C 
HETATM   35  F   UNL     1     -42.118  60.333 -49.754  1.00  0.00    -0.166 F 
HETATM   36  F   UNL     1     -43.063  62.149 -50.501  1.00  0.00    -0.166 F 
HETATM   37  F   UNL     1     -43.923  61.107 -48.796  1.00  0.00    -0.166 F 
ENDBRANCH   2  34
TORSDOF 8
ENDMDL
MODEL 8
REMARK VINA RESULT:      -7.7     16.444     19.564
REMARK  8 active torsions:
REMARK  status: ('A' for Active; 'I' for Inactive)
REMARK    1  A    between atoms: C_2  and  O_3 
REMARK    2  A    between atoms: O_3  and  C_4 
REMARK    3  A    between atoms: C_4  and  C_5 
REMARK    4  A    between atoms: C_6  and  O_7 
REMARK    5  A    between atoms: C_6  and  C_8 
REMARK    6  A    between atoms: C_16  and  C_17 
REMARK    7  A    between atoms: C_18  and  C_19 
REMARK    8  A    between atoms: N_26  and  C_27 
ROOT
HETATM    1  C   UNL     1     -35.820  40.555 -53.979  1.00  0.00     0.177 C 
HETATM    2  C   UNL     1     -36.567  41.322 -52.886  1.00  0.00     0.250 C 
HETATM    3  N   UNL     1     -35.811  41.409 -51.649  1.00  0.00    -0.303 N 
HETATM    4  C   UNL     1     -34.465  41.333 -51.548  1.00  0.00     0.319 C 
HETATM    5  O   UNL     1     -33.899  41.516 -50.478  1.00  0.00    -0.247 OA
HETATM    6  N   UNL     1     -33.785  41.025 -52.675  1.00  0.00    -0.333 N 
HETATM    7  C   UNL     1     -34.374  41.045 -53.996  1.00  0.00     0.142 C 
HETATM    8  H   UNL     1     -36.281  41.614 -50.774  1.00  0.00     0.167 HD
HETATM    9  H   UNL     1     -32.778  41.075 -52.577  1.00  0.00     0.165 HD
ENDROOT
BRANCH   7  10
HETATM   10  C   UNL     1     -33.471  40.309 -54.941  1.00  0.00     0.015 A 
HETATM   11  C   UNL     1     -33.648  40.052 -56.335  1.00  0.00     0.097 A 
HETATM   12  N   UNL     1     -32.599  39.388 -56.838  1.00  0.00    -0.167 NA
HETATM   13  N   UNL     1     -31.746  39.197 -55.809  1.00  0.00    -0.244 N 
HETATM   14  C   UNL     1     -32.236  39.754 -54.654  1.00  0.00     0.130 A 
BRANCH  11  15
HETATM   15  C   UNL     1     -34.747  40.445 -57.220  1.00  0.00    -0.005 A 
HETATM   16  C   UNL     1     -35.313  39.494 -58.083  1.00  0.00     0.014 A 
HETATM   17  C   UNL     1     -36.357  39.845 -58.942  1.00  0.00     0.001 A 
HETATM   18  C   UNL     1     -36.848  41.148 -58.946  1.00  0.00     0.000 A 
HETATM   19  C   UNL     1     -36.304  42.098 -58.083  1.00  0.00     0.001 A 
HETATM   20  C   UNL     1     -35.264  41.747 -57.218  1.00  0.00     0.014 A 
ENDBRANCH  11  15
BRANCH  13  21
HETATM   21  C   UNL     1     -30.517  38.504 -55.996  1.00  0.00     0.058 A 
HETATM   22  C   UNL     1     -30.144  37.504 -55.083  1.00  0.00     0.031 A 
HETATM   23  C   UNL     1     -28.946  36.808 -55.249  1.00  0.00     0.002 A 
HETATM   24  C   UNL     1     -28.109  37.106 -56.323  1.00  0.00     0.000 A 
HETATM   25  C   UNL     1     -28.470  38.099 -57.232  1.00  0.00     0.002 A 
HETATM   26  C   UNL     1     -29.669  38.799 -57.073  1.00  0.00     0.031 A 
ENDBRANCH  13  21
ENDBRANCH   7  10
BRANCH   1  27
HETATM   27  C   UNL     1     -35.926  39.061 -53.779  1.00  0.00     0.270 C 
HETATM   28  O   UNL     1     -35.577  38.457 -52.778  1.00  0.00    -0.265 OA
BRANCH  27  29
HETATM   29  O   UNL     1     -36.497  38.489 -54.876  1.00  0.00    -0.321 OA
BRANCH  29  30
HETATM   30  C   UNL     1     -35.914  37.253 -55.321  1.00  0.00     0.174 C 
HETATM   31  C   UNL     1     -36.714  36.658 -56.465  1.00  0.00     0.034 C 
ENDBRANCH  29  30
ENDBRANCH  27  29
ENDBRANCH   1  27
BRANCH   2  32
HETATM   32  O   UNL     1     -36.649  42.694 -53.331  1.00  0.00    -0.363 OA
HETATM   33  H   UNL     1     -36.916  42.653 -54.267  1.00  0.00     0.213 HD
ENDBRANCH   2  32
BRANCH   2  34
HETATM   34  C   UNL     1     -38.020  40.772 -52.680  1.00  0.00     0.439 C 
HETATM   35  F   UNL     1     -38.594  40.442 -53.859  1.00  0.00    -0.166 F 
HETATM   36  F   UNL     1     -38.074  39.688 -51.881  1.00  0.00    -0.166 F 
HETATM   37  F   UNL     1     -38.793  41.729 -52.105  1.00  0.00    -0.166 F 
ENDBRANCH   2  34
TORSDOF 8
ENDMDL
MODEL 9
REMARK VINA RESULT:      -7.6      3.292      7.041
REMARK  8 active torsions:
REMARK  status: ('A' for Active; 'I' for Inactive)
REMARK    1  A    between atoms: C_2  and  O_3 
REMARK    2  A    between atoms: O_3  and  C_4 
REMARK    3  A    between atoms: C_4  and  C_5 
REMARK    4  A    between atoms: C_6  and  O_7 
REMARK    5  A    between atoms: C_6  and  C_8 
REMARK    6  A    between atoms: C_16  and  C_17 
REMARK    7  A    between atoms: C_18  and  C_19 
REMARK    8  A    between atoms: N_26  and  C_27 
ROOT
HETATM    1  C   UNL     1     -42.488  56.374 -52.789  1.00  0.00     0.177 C 
HETATM    2  C   UNL     1     -42.373  54.851 -52.882  1.00  0.00     0.250 C 
HETATM    3  N   UNL     1     -42.994  54.175 -51.757  1.00  0.00    -0.303 N 
HETATM    4  C   UNL     1     -43.989  54.680 -50.993  1.00  0.00     0.319 C 
HETATM    5  O   UNL     1     -44.525  54.004 -50.125  1.00  0.00    -0.247 OA
HETATM    6  N   UNL     1     -44.342  55.964 -51.221  1.00  0.00    -0.333 N 
HETATM    7  C   UNL     1     -43.919  56.716 -52.383  1.00  0.00     0.142 C 
HETATM    8  H   UNL     1     -42.743  53.219 -51.531  1.00  0.00     0.167 HD
HETATM    9  H   UNL     1     -45.153  56.270 -50.697  1.00  0.00     0.165 HD
ENDROOT
BRANCH   7  10
HETATM   10  C   UNL     1     -44.173  58.174 -52.136  1.00  0.00     0.015 A 
HETATM   11  C   UNL     1     -44.078  59.269 -53.049  1.00  0.00     0.097 A 
HETATM   12  N   UNL     1     -44.417  60.421 -52.454  1.00  0.00    -0.167 NA
HETATM   13  N   UNL     1     -44.722  60.108 -51.176  1.00  0.00    -0.244 N 
HETATM   14  C   UNL     1     -44.599  58.759 -50.957  1.00  0.00     0.130 A 
BRANCH  11  15
HETATM   15  C   UNL     1     -43.723  59.266 -54.469  1.00  0.00    -0.005 A 
HETATM   16  C   UNL     1     -42.487  59.792 -54.873  1.00  0.00     0.014 A 
HETATM   17  C   UNL     1     -42.126  59.809 -56.223  1.00  0.00     0.001 A 
HETATM   18  C   UNL     1     -42.996  59.297 -57.182  1.00  0.00     0.000 A 
HETATM   19  C   UNL     1     -44.221  58.758 -56.792  1.00  0.00     0.001 A 
HETATM   20  C   UNL     1     -44.581  58.735 -55.441  1.00  0.00     0.014 A 
ENDBRANCH  11  15
BRANCH  13  21
HETATM   21  C   UNL     1     -45.119  61.116 -50.251  1.00  0.00     0.058 A 
HETATM   22  C   UNL     1     -44.337  61.345 -49.107  1.00  0.00     0.031 A 
HETATM   23  C   UNL     1     -44.704  62.330 -48.188  1.00  0.00     0.002 A 
HETATM   24  C   UNL     1     -45.853  63.090 -48.402  1.00  0.00     0.000 A 
HETATM   25  C   UNL     1     -46.635  62.867 -49.534  1.00  0.00     0.002 A 
HETATM   26  C   UNL     1     -46.273  61.883 -50.458  1.00  0.00     0.031 A 
ENDBRANCH  13  21
ENDBRANCH   7  10
BRANCH   1  27
HETATM   27  C   UNL     1     -41.461  56.951 -51.843  1.00  0.00     0.270 C 
HETATM   28  O   UNL     1     -41.266  56.574 -50.699  1.00  0.00    -0.265 OA
BRANCH  27  29
HETATM   29  O   UNL     1     -40.763  57.941 -52.468  1.00  0.00    -0.321 OA
BRANCH  29  30
HETATM   30  C   UNL     1     -40.083  58.874 -51.611  1.00  0.00     0.174 C 
HETATM   31  C   UNL     1     -41.063  59.851 -50.990  1.00  0.00     0.034 C 
ENDBRANCH  29  30
ENDBRANCH  27  29
ENDBRANCH   1  27
BRANCH   2  32
HETATM   32  O   UNL     1     -43.181  54.447 -54.008  1.00  0.00    -0.363 OA
HETATM   33  H   UNL     1     -42.587  53.945 -54.595  1.00  0.00     0.213 HD
ENDBRANCH   2  32
BRANCH   2  34
HETATM   34  C   UNL     1     -40.895  54.395 -53.133  1.00  0.00     0.439 C 
HETATM   35  F   UNL     1     -40.224  55.292 -53.891  1.00  0.00    -0.166 F 
HETATM   36  F   UNL     1     -40.192  54.210 -51.999  1.00  0.00    -0.166 F 
HETATM   37  F   UNL     1     -40.890  53.213 -53.802  1.00  0.00    -0.166 F 
ENDBRANCH   2  34
TORSDOF 8
ENDMDL
MODEL 10
REMARK VINA RESULT:      -7.5      3.333      5.759
REMARK  8 active torsions:
REMARK  status: ('A' for Active; 'I' for Inactive)
REMARK    1  A    between atoms: C_2  and  O_3 
REMARK    2  A    between atoms: O_3  and  C_4 
REMARK    3  A    between atoms: C_4  and  C_5 
REMARK    4  A    between atoms: C_6  and  O_7 
REMARK    5  A    between atoms: C_6  and  C_8 
REMARK    6  A    between atoms: C_16  and  C_17 
REMARK    7  A    between atoms: C_18  and  C_19 
REMARK    8  A    between atoms: N_26  and  C_27 
ROOT
HETATM    1  C   UNL     1     -43.001  56.242 -54.968  1.00  0.00     0.177 C 
HETATM    2  C   UNL     1     -43.584  55.466 -53.785  1.00  0.00     0.250 C 
HETATM    3  N   UNL     1     -44.145  56.337 -52.768  1.00  0.00    -0.303 N 
HETATM    4  C   UNL     1     -44.606  57.590 -52.978  1.00  0.00     0.319 C 
HETATM    5  O   UNL     1     -45.154  58.221 -52.085  1.00  0.00    -0.247 OA
HETATM    6  N   UNL     1     -44.410  58.114 -54.209  1.00  0.00    -0.333 N 
HETATM    7  C   UNL     1     -43.998  57.333 -55.355  1.00  0.00     0.142 C 
HETATM    8  H   UNL     1     -44.287  55.997 -51.823  1.00  0.00     0.167 HD
HETATM    9  H   UNL     1     -44.855  59.012 -54.352  1.00  0.00     0.165 HD
ENDROOT
BRANCH   7  10
HETATM   10  C   UNL     1     -43.526  58.263 -56.432  1.00  0.00     0.015 A 
HETATM   11  C   UNL     1     -43.603  58.107 -57.851  1.00  0.00     0.097 A 
HETATM   12  N   UNL     1     -43.099  59.178 -58.479  1.00  0.00    -0.167 NA
HETATM   13  N   UNL     1     -42.689  60.025 -57.511  1.00  0.00    -0.244 N 
HETATM   14  C   UNL     1     -42.947  59.509 -56.265  1.00  0.00     0.130 A 
BRANCH  11  15
HETATM   15  C   UNL     1     -44.169  57.009 -58.635  1.00  0.00    -0.005 A 
HETATM   16  C   UNL     1     -45.416  57.173 -59.256  1.00  0.00     0.014 A 
HETATM   17  C   UNL     1     -45.983  56.138 -60.003  1.00  0.00     0.001 A 
HETATM   18  C   UNL     1     -45.307  54.928 -60.140  1.00  0.00     0.000 A 
HETATM   19  C   UNL     1     -44.060  54.757 -59.541  1.00  0.00     0.001 A 
HETATM   20  C   UNL     1     -43.489  55.794 -58.798  1.00  0.00     0.014 A 
ENDBRANCH  11  15
BRANCH  13  21
HETATM   21  C   UNL     1     -42.087  61.273 -57.837  1.00  0.00     0.058 A 
HETATM   22  C   UNL     1     -40.878  61.288 -58.552  1.00  0.00     0.031 A 
HETATM   23  C   UNL     1     -40.271  62.499 -58.886  1.00  0.00     0.002 A 
HETATM   24  C   UNL     1     -40.862  63.703 -58.507  1.00  0.00     0.000 A 
HETATM   25  C   UNL     1     -42.060  63.697 -57.794  1.00  0.00     0.002 A 
HETATM   26  C   UNL     1     -42.674  62.488 -57.457  1.00  0.00     0.031 A 
ENDBRANCH  13  21
ENDBRANCH   7  10
BRANCH   1  27
HETATM   27  C   UNL     1     -41.631  56.793 -54.649  1.00  0.00     0.270 C 
HETATM   28  O   UNL     1     -40.582  56.398 -55.131  1.00  0.00    -0.265 OA
BRANCH  27  29
HETATM   29  O   UNL     1     -41.743  57.819 -53.760  1.00  0.00    -0.321 OA
BRANCH  29  30
HETATM   30  C   UNL     1     -40.547  58.170 -53.044  1.00  0.00     0.174 C 
HETATM   31  C   UNL     1     -40.801  58.197 -51.548  1.00  0.00     0.034 C 
ENDBRANCH  29  30
ENDBRANCH  27  29
ENDBRANCH   1  27
BRANCH   2  32
HETATM   32  O   UNL     1     -44.733  54.751 -54.291  1.00  0.00    -0.363 OA
HETATM   33  H   UNL     1     -44.778  53.924 -53.778  1.00  0.00     0.213 HD
ENDBRANCH   2  32
BRANCH   2  34
HETATM   34  C   UNL     1     -42.560  54.429 -53.210  1.00  0.00     0.439 C 
HETATM   35  F   UNL     1     -41.548  55.045 -52.557  1.00  0.00    -0.166 F 
HETATM   36  F   UNL     1     -43.115  53.542 -52.361  1.00  0.00    -0.166 F 
HETATM   37  F   UNL     1     -42.012  53.716 -54.228  1.00  0.00    -0.166 F 
ENDBRANCH   2  34
TORSDOF 8
ENDMDL
