MODEL 1
REMARK VINA RESULT:      -7.6      0.000      0.000
REMARK  11 active torsions:
REMARK  status: ('A' for Active; 'I' for Inactive)
REMARK    1  A    between atoms: C_2  and  N_3 
REMARK    2  A    between atoms: N_3  and  C_5 
REMARK    3  A    between atoms: N_3  and  C_35 
REMARK    4  A    between atoms: C_5  and  C_6 
REMARK    5  A    between atoms: C_6  and  C_7 
REMARK    6  A    between atoms: C_7  and  N_8 
REMARK    7  A    between atoms: N_8  and  C_9 
REMARK    8  A    between atoms: N_8  and  C_19 
REMARK    9  A    between atoms: C_9  and  N_10 
REMARK   10  A    between atoms: N_10  and  C_11 
REMARK   11  A    between atoms: C_19  and  C_20 
ROOT
HETATM    1  N   UNL     1     -41.411  56.954 -51.864  1.00  0.00    -0.255 NA
ENDROOT
BRANCH   1   2
HETATM    2  C   UNL     1     -40.907  57.692 -50.689  1.00  0.00     0.100 C 
BRANCH   2   3
HETATM    3  C   UNL     1     -40.669  59.201 -50.878  1.00  0.00     0.042 C 
BRANCH   3   4
HETATM    4  C   UNL     1     -41.856  60.040 -50.416  1.00  0.00     0.236 C 
BRANCH   4   5
HETATM    5  N   UNL     1     -42.911  60.237 -51.501  1.00  0.00    -0.072 N 
HETATM    6  H   UNL     1     -42.504  59.810 -52.345  1.00  0.00     0.279 HD
BRANCH   5   7
HETATM    7  C   UNL     1     -43.170  61.690 -51.873  1.00  0.00     0.230 C 
HETATM    8  C   UNL     1     -44.505  62.171 -51.337  1.00  0.00     0.034 C 
ENDBRANCH   5   7
BRANCH   5   9
HETATM    9  C   UNL     1     -44.221  59.501 -51.279  1.00  0.00     0.230 C 
HETATM   10  C   UNL     1     -44.534  58.555 -52.425  1.00  0.00     0.034 C 
ENDBRANCH   5   9
ENDBRANCH   4   5
ENDBRANCH   3   4
ENDBRANCH   2   3
ENDBRANCH   1   2
BRANCH   1  11
HETATM   11  C   UNL     1     -41.699  55.608 -51.696  1.00  0.00     0.153 C 
HETATM   12  S   UNL     1     -43.254  54.970 -51.606  1.00  0.00    -0.047 SA
BRANCH  11  13
HETATM   13  N   UNL     1     -40.671  54.716 -51.628  1.00  0.00    -0.338 N 
HETATM   14  H   UNL     1     -39.938  55.051 -51.009  1.00  0.00     0.168 HD
BRANCH  13  15
HETATM   15  C   UNL     1     -40.381  53.503 -52.287  1.00  0.00     0.035 A 
HETATM   16  C   UNL     1     -39.984  52.436 -51.468  1.00  0.00     0.053 A 
HETATM   17  C   UNL     1     -39.690  51.188 -52.018  1.00  0.00     0.036 A 
HETATM   18 CL   UNL     1     -39.232  49.890 -50.986  1.00  0.00    -0.084 Cl
HETATM   19  C   UNL     1     -39.778  50.984 -53.390  1.00  0.00     0.024 A 
HETATM   20  C   UNL     1     -40.159  52.041 -54.214  1.00  0.00     0.004 A 
HETATM   21  C   UNL     1     -40.459  53.294 -53.665  1.00  0.00     0.029 A 
ENDBRANCH  13  15
ENDBRANCH  11  13
ENDBRANCH   1  11
BRANCH   1  22
HETATM   22  C   UNL     1     -40.669  57.225 -53.122  1.00  0.00     0.142 C 
BRANCH  22  23
HETATM   23  C   UNL     1     -41.534  57.330 -54.344  1.00  0.00     0.024 A 
HETATM   24  C   UNL     1     -41.783  58.714 -54.860  1.00  0.00     0.253 A 
HETATM   25  O   UNL     1     -41.460  59.707 -54.214  1.00  0.00    -0.268 OA
HETATM   26  N   UNL     1     -42.402  58.830 -56.073  1.00  0.00    -0.322 N 
HETATM   27  C   UNL     1     -42.835  57.739 -56.832  1.00  0.00     0.048 A 
HETATM   28  H   UNL     1     -42.537  59.773 -56.418  1.00  0.00     0.169 HD
HETATM   29  C   UNL     1     -42.645  56.442 -56.335  1.00  0.00    -0.006 A 
HETATM   30  C   UNL     1     -43.437  57.956 -58.071  1.00  0.00     0.070 A 
HETATM   31  C   UNL     1     -43.081  55.350 -57.090  1.00  0.00     0.053 A 
HETATM   32  C   UNL     1     -41.952  56.268 -55.055  1.00  0.00     0.027 A 
HETATM   33  C   UNL     1     -43.690  55.561 -58.329  1.00  0.00     0.103 A 
HETATM   34  C   UNL     1     -43.843  56.860 -58.828  1.00  0.00     0.104 A 
HETATM   35  O   UNL     1     -44.097  54.444 -59.012  1.00  0.00    -0.346 OA
HETATM   36  O   UNL     1     -44.386  57.133 -60.058  1.00  0.00    -0.346 OA
HETATM   37  C   UNL     1     -44.406  55.964 -60.887  1.00  0.00     0.202 C 
HETATM   38  C   UNL     1     -44.954  54.776 -60.113  1.00  0.00     0.202 C 
ENDBRANCH  22  23
ENDBRANCH   1  22
TORSDOF 11
ENDMDL
MODEL 2
REMARK VINA RESULT:      -7.6      2.146      2.993
REMARK  11 active torsions:
REMARK  status: ('A' for Active; 'I' for Inactive)
REMARK    1  A    between atoms: C_2  and  N_3 
REMARK    2  A    between atoms: N_3  and  C_5 
REMARK    3  A    between atoms: N_3  and  C_35 
REMARK    4  A    between atoms: C_5  and  C_6 
REMARK    5  A    between atoms: C_6  and  C_7 
REMARK    6  A    between atoms: C_7  and  N_8 
REMARK    7  A    between atoms: N_8  and  C_9 
REMARK    8  A    between atoms: N_8  and  C_19 
REMARK    9  A    between atoms: C_9  and  N_10 
REMARK   10  A    between atoms: N_10  and  C_11 
REMARK   11  A    between atoms: C_19  and  C_20 
ROOT
HETATM    1  N   UNL     1     -41.527  55.177 -50.222  1.00  0.00    -0.255 NA
ENDROOT
BRANCH   1   2
HETATM    2  C   UNL     1     -41.008  56.297 -51.031  1.00  0.00     0.100 C 
BRANCH   2   3
HETATM    3  C   UNL     1     -41.040  57.689 -50.374  1.00  0.00     0.042 C 
BRANCH   3   4
HETATM    4  C   UNL     1     -40.279  58.733 -51.183  1.00  0.00     0.236 C 
BRANCH   4   5
HETATM    5  N   UNL     1     -41.182  59.573 -52.082  1.00  0.00    -0.072 N 
HETATM    6  H   UNL     1     -40.731  60.498 -52.117  1.00  0.00     0.279 HD
BRANCH   5   7
HETATM    7  C   UNL     1     -42.573  59.827 -51.517  1.00  0.00     0.230 C 
HETATM    8  C   UNL     1     -42.592  61.044 -50.612  1.00  0.00     0.034 C 
ENDBRANCH   5   7
BRANCH   5   9
HETATM    9  C   UNL     1     -41.268  59.121 -53.529  1.00  0.00     0.230 C 
HETATM   10  C   UNL     1     -42.049  60.107 -54.380  1.00  0.00     0.034 C 
ENDBRANCH   5   9
ENDBRANCH   4   5
ENDBRANCH   3   4
ENDBRANCH   2   3
ENDBRANCH   1   2
BRANCH   1  11
HETATM   11  C   UNL     1     -40.619  54.207 -49.821  1.00  0.00     0.153 C 
HETATM   12  S   UNL     1     -40.302  53.803 -48.219  1.00  0.00    -0.047 SA
BRANCH  11  13
HETATM   13  N   UNL     1     -39.949  53.497 -50.771  1.00  0.00    -0.338 N 
HETATM   14  H   UNL     1     -39.412  54.112 -51.376  1.00  0.00     0.168 HD
BRANCH  13  15
HETATM   15  C   UNL     1     -39.917  52.135 -51.136  1.00  0.00     0.035 A 
HETATM   16  C   UNL     1     -39.751  51.866 -52.503  1.00  0.00     0.053 A 
HETATM   17  C   UNL     1     -39.689  50.552 -52.967  1.00  0.00     0.036 A 
HETATM   18 CL   UNL     1     -39.458  50.253 -54.645  1.00  0.00    -0.084 Cl
HETATM   19  C   UNL     1     -39.800  49.486 -52.083  1.00  0.00     0.024 A 
HETATM   20  C   UNL     1     -39.978  49.742 -50.725  1.00  0.00     0.004 A 
HETATM   21  C   UNL     1     -40.036  51.060 -50.254  1.00  0.00     0.029 A 
ENDBRANCH  13  15
ENDBRANCH  11  13
ENDBRANCH   1  11
BRANCH   1  22
HETATM   22  C   UNL     1     -42.798  54.595 -50.723  1.00  0.00     0.142 C 
BRANCH  22  23
HETATM   23  C   UNL     1     -43.325  55.238 -51.973  1.00  0.00     0.024 A 
HETATM   24  C   UNL     1     -44.241  56.407 -51.779  1.00  0.00     0.253 A 
HETATM   25  O   UNL     1     -44.684  56.696 -50.671  1.00  0.00    -0.268 OA
HETATM   26  N   UNL     1     -44.582  57.129 -52.888  1.00  0.00    -0.322 N 
HETATM   27  C   UNL     1     -44.149  56.819 -54.181  1.00  0.00     0.048 A 
HETATM   28  H   UNL     1     -45.181  57.931 -52.733  1.00  0.00     0.169 HD
HETATM   29  C   UNL     1     -43.326  55.701 -54.376  1.00  0.00    -0.006 A 
HETATM   30  C   UNL     1     -44.530  57.630 -55.249  1.00  0.00     0.070 A 
HETATM   31  C   UNL     1     -42.894  55.387 -55.668  1.00  0.00     0.053 A 
HETATM   32  C   UNL     1     -42.905  54.919 -53.211  1.00  0.00     0.027 A 
HETATM   33  C   UNL     1     -43.278  56.192 -56.743  1.00  0.00     0.103 A 
HETATM   34  C   UNL     1     -44.073  57.325 -56.528  1.00  0.00     0.104 A 
HETATM   35  O   UNL     1     -42.822  55.821 -57.982  1.00  0.00    -0.346 OA
HETATM   36  O   UNL     1     -44.443  58.183 -57.532  1.00  0.00    -0.346 OA
HETATM   37  C   UNL     1     -43.625  58.005 -58.694  1.00  0.00     0.202 C 
HETATM   38  C   UNL     1     -43.498  56.528 -59.031  1.00  0.00     0.202 C 
ENDBRANCH  22  23
ENDBRANCH   1  22
TORSDOF 11
ENDMDL
MODEL 3
REMARK VINA RESULT:      -7.5      1.999      2.793
REMARK  11 active torsions:
REMARK  status: ('A' for Active; 'I' for Inactive)
REMARK    1  A    between atoms: C_2  and  N_3 
REMARK    2  A    between atoms: N_3  and  C_5 
REMARK    3  A    between atoms: N_3  and  C_35 
REMARK    4  A    between atoms: C_5  and  C_6 
REMARK    5  A    between atoms: C_6  and  C_7 
REMARK    6  A    between atoms: C_7  and  N_8 
REMARK    7  A    between atoms: N_8  and  C_9 
REMARK    8  A    between atoms: N_8  and  C_19 
REMARK    9  A    between atoms: C_9  and  N_10 
REMARK   10  A    between atoms: N_10  and  C_11 
REMARK   11  A    between atoms: C_19  and  C_20 
ROOT
HETATM    1  N   UNL     1     -41.857  54.952 -51.893  1.00  0.00    -0.255 NA
ENDROOT
BRANCH   1   2
HETATM    2  C   UNL     1     -43.221  55.225 -51.400  1.00  0.00     0.100 C 
BRANCH   2   3
HETATM    3  C   UNL     1     -43.416  56.533 -50.612  1.00  0.00     0.042 C 
BRANCH   3   4
HETATM    4  C   UNL     1     -44.315  57.525 -51.342  1.00  0.00     0.236 C 
BRANCH   4   5
HETATM    5  N   UNL     1     -43.903  58.979 -51.130  1.00  0.00    -0.072 N 
HETATM    6  H   UNL     1     -44.279  59.227 -50.204  1.00  0.00     0.279 HD
BRANCH   5   7
HETATM    7  C   UNL     1     -44.543  59.963 -52.098  1.00  0.00     0.230 C 
HETATM    8  C   UNL     1     -45.332  59.248 -53.178  1.00  0.00     0.034 C 
ENDBRANCH   5   7
BRANCH   5   9
HETATM    9  C   UNL     1     -42.408  59.227 -51.028  1.00  0.00     0.230 C 
HETATM   10  C   UNL     1     -41.865  59.904 -52.274  1.00  0.00     0.034 C 
ENDBRANCH   5   9
ENDBRANCH   4   5
ENDBRANCH   3   4
ENDBRANCH   2   3
ENDBRANCH   1   2
BRANCH   1  11
HETATM   11  C   UNL     1     -40.978  54.329 -51.021  1.00  0.00     0.153 C 
HETATM   12  S   UNL     1     -41.030  54.479 -49.346  1.00  0.00    -0.047 SA
BRANCH  11  13
HETATM   13  N   UNL     1     -40.017  53.506 -51.528  1.00  0.00    -0.338 N 
HETATM   14  H   UNL     1     -39.249  54.043 -51.922  1.00  0.00     0.168 HD
BRANCH  13  15
HETATM   15  C   UNL     1     -39.910  52.110 -51.695  1.00  0.00     0.035 A 
HETATM   16  C   UNL     1     -39.842  51.651 -53.018  1.00  0.00     0.053 A 
HETATM   17  C   UNL     1     -39.717  50.289 -53.293  1.00  0.00     0.036 A 
HETATM   18 CL   UNL     1     -39.610  49.757 -54.925  1.00  0.00    -0.084 Cl
HETATM   19  C   UNL     1     -39.667  49.362 -52.258  1.00  0.00     0.024 A 
HETATM   20  C   UNL     1     -39.746  49.807 -50.940  1.00  0.00     0.004 A 
HETATM   21  C   UNL     1     -39.866  51.174 -50.660  1.00  0.00     0.029 A 
ENDBRANCH  13  15
ENDBRANCH  11  13
ENDBRANCH   1  11
BRANCH   1  22
HETATM   22  C   UNL     1     -41.231  56.085 -52.621  1.00  0.00     0.142 C 
BRANCH  22  23
HETATM   23  C   UNL     1     -41.644  56.204 -54.060  1.00  0.00     0.024 A 
HETATM   24  C   UNL     1     -41.062  55.192 -54.999  1.00  0.00     0.253 A 
HETATM   25  O   UNL     1     -40.158  54.437 -54.648  1.00  0.00    -0.268 OA
HETATM   26  N   UNL     1     -41.563  55.152 -56.269  1.00  0.00    -0.322 N 
HETATM   27  C   UNL     1     -42.557  56.017 -56.740  1.00  0.00     0.048 A 
HETATM   28  H   UNL     1     -41.177  54.444 -56.881  1.00  0.00     0.169 HD
HETATM   29  C   UNL     1     -43.075  56.994 -55.879  1.00  0.00    -0.006 A 
HETATM   30  C   UNL     1     -43.023  55.885 -58.047  1.00  0.00     0.070 A 
HETATM   31  C   UNL     1     -44.066  57.862 -56.349  1.00  0.00     0.053 A 
HETATM   32  C   UNL     1     -42.594  57.050 -54.497  1.00  0.00     0.027 A 
HETATM   33  C   UNL     1     -44.532  57.739 -57.659  1.00  0.00     0.103 A 
HETATM   34  C   UNL     1     -44.029  56.736 -58.496  1.00  0.00     0.104 A 
HETATM   35  O   UNL     1     -45.501  58.626 -58.053  1.00  0.00    -0.346 OA
HETATM   36  O   UNL     1     -44.480  56.530 -59.776  1.00  0.00    -0.346 OA
HETATM   37  C   UNL     1     -45.739  57.177 -59.992  1.00  0.00     0.202 C 
HETATM   38  C   UNL     1     -45.696  58.605 -59.473  1.00  0.00     0.202 C 
ENDBRANCH  22  23
ENDBRANCH   1  22
TORSDOF 11
ENDMDL
MODEL 4
REMARK VINA RESULT:      -7.5      3.295      6.567
REMARK  11 active torsions:
REMARK  status: ('A' for Active; 'I' for Inactive)
REMARK    1  A    between atoms: C_2  and  N_3 
REMARK    2  A    between atoms: N_3  and  C_5 
REMARK    3  A    between atoms: N_3  and  C_35 
REMARK    4  A    between atoms: C_5  and  C_6 
REMARK    5  A    between atoms: C_6  and  C_7 
REMARK    6  A    between atoms: C_7  and  N_8 
REMARK    7  A    between atoms: N_8  and  C_9 
REMARK    8  A    between atoms: N_8  and  C_19 
REMARK    9  A    between atoms: C_9  and  N_10 
REMARK   10  A    between atoms: N_10  and  C_11 
REMARK   11  A    between atoms: C_19  and  C_20 
ROOT
HETATM    1  N   UNL     1     -43.916  58.386 -54.027  1.00  0.00    -0.255 NA
ENDROOT
BRANCH   1   2
HETATM    2  C   UNL     1     -44.392  59.513 -53.201  1.00  0.00     0.100 C 
BRANCH   2   3
HETATM    3  C   UNL     1     -43.355  60.600 -52.864  1.00  0.00     0.042 C 
BRANCH   3   4
HETATM    4  C   UNL     1     -42.690  60.372 -51.511  1.00  0.00     0.236 C 
BRANCH   4   5
HETATM    5  N   UNL     1     -41.602  59.303 -51.549  1.00  0.00    -0.072 N 
HETATM    6  H   UNL     1     -42.111  58.413 -51.643  1.00  0.00     0.279 HD
BRANCH   5   7
HETATM    7  C   UNL     1     -40.801  59.172 -50.261  1.00  0.00     0.230 C 
HETATM    8  C   UNL     1     -39.384  59.686 -50.433  1.00  0.00     0.034 C 
ENDBRANCH   5   7
BRANCH   5   9
HETATM    9  C   UNL     1     -40.675  59.355 -52.751  1.00  0.00     0.230 C 
HETATM   10  C   UNL     1     -40.477  57.982 -53.367  1.00  0.00     0.034 C 
ENDBRANCH   5   9
ENDBRANCH   4   5
ENDBRANCH   3   4
ENDBRANCH   2   3
ENDBRANCH   1   2
BRANCH   1  11
HETATM   11  C   UNL     1     -43.921  58.559 -55.404  1.00  0.00     0.153 C 
HETATM   12  S   UNL     1     -45.125  59.366 -56.258  1.00  0.00    -0.047 SA
BRANCH  11  13
HETATM   13  N   UNL     1     -42.874  58.082 -56.133  1.00  0.00    -0.338 N 
HETATM   14  H   UNL     1     -42.006  58.140 -55.606  1.00  0.00     0.168 HD
BRANCH  13  15
HETATM   15  C   UNL     1     -42.731  57.622 -57.458  1.00  0.00     0.035 A 
HETATM   16  C   UNL     1     -43.397  56.428 -57.772  1.00  0.00     0.053 A 
HETATM   17  C   UNL     1     -43.335  55.896 -59.060  1.00  0.00     0.036 A 
HETATM   18 CL   UNL     1     -44.184  54.445 -59.422  1.00  0.00    -0.084 Cl
HETATM   19  C   UNL     1     -42.603  56.536 -60.053  1.00  0.00     0.024 A 
HETATM   20  C   UNL     1     -41.927  57.716 -59.749  1.00  0.00     0.004 A 
HETATM   21  C   UNL     1     -41.991  58.256 -58.458  1.00  0.00     0.029 A 
ENDBRANCH  13  15
ENDBRANCH  11  13
ENDBRANCH   1  11
BRANCH   1  22
HETATM   22  C   UNL     1     -44.445  57.060 -53.618  1.00  0.00     0.142 C 
BRANCH  22  23
HETATM   23  C   UNL     1     -43.394  56.076 -53.194  1.00  0.00     0.024 A 
HETATM   24  C   UNL     1     -43.019  56.092 -51.744  1.00  0.00     0.253 A 
HETATM   25  O   UNL     1     -43.407  56.983 -50.992  1.00  0.00    -0.268 OA
HETATM   26  N   UNL     1     -42.212  55.086 -51.292  1.00  0.00    -0.322 N 
HETATM   27  C   UNL     1     -41.701  54.073 -52.110  1.00  0.00     0.048 A 
HETATM   28  H   UNL     1     -41.992  55.099 -50.304  1.00  0.00     0.169 HD
HETATM   29  C   UNL     1     -42.012  54.076 -53.476  1.00  0.00    -0.006 A 
HETATM   30  C   UNL     1     -40.904  53.074 -51.553  1.00  0.00     0.070 A 
HETATM   31  C   UNL     1     -41.499  53.067 -54.296  1.00  0.00     0.053 A 
HETATM   32  C   UNL     1     -42.904  55.115 -53.999  1.00  0.00     0.027 A 
HETATM   33  C   UNL     1     -40.695  52.067 -53.746  1.00  0.00     0.103 A 
HETATM   34  C   UNL     1     -40.420  52.058 -52.372  1.00  0.00     0.104 A 
HETATM   35  O   UNL     1     -40.223  51.112 -54.609  1.00  0.00    -0.346 OA
HETATM   36  O   UNL     1     -39.680  51.078 -51.761  1.00  0.00    -0.346 OA
HETATM   37  C   UNL     1     -39.569  49.917 -52.593  1.00  0.00     0.202 C 
HETATM   38  C   UNL     1     -39.191  50.316 -54.010  1.00  0.00     0.202 C 
ENDBRANCH  22  23
ENDBRANCH   1  22
TORSDOF 11
ENDMDL
MODEL 5
REMARK VINA RESULT:      -7.2      2.018      2.951
REMARK  11 active torsions:
REMARK  status: ('A' for Active; 'I' for Inactive)
REMARK    1  A    between atoms: C_2  and  N_3 
REMARK    2  A    between atoms: N_3  and  C_5 
REMARK    3  A    between atoms: N_3  and  C_35 
REMARK    4  A    between atoms: C_5  and  C_6 
REMARK    5  A    between atoms: C_6  and  C_7 
REMARK    6  A    between atoms: C_7  and  N_8 
REMARK    7  A    between atoms: N_8  and  C_9 
REMARK    8  A    between atoms: N_8  and  C_19 
REMARK    9  A    between atoms: C_9  and  N_10 
REMARK   10  A    between atoms: N_10  and  C_11 
REMARK   11  A    between atoms: C_19  and  C_20 
ROOT
HETATM    1  N   UNL     1     -41.703  55.845 -52.968  1.00  0.00    -0.255 NA
ENDROOT
BRANCH   1   2
HETATM    2  C   UNL     1     -41.358  57.115 -52.300  1.00  0.00     0.100 C 
BRANCH   2   3
HETATM    3  C   UNL     1     -42.379  57.651 -51.279  1.00  0.00     0.042 C 
BRANCH   3   4
HETATM    4  C   UNL     1     -43.300  58.708 -51.877  1.00  0.00     0.236 C 
BRANCH   4   5
HETATM    5  N   UNL     1     -43.393  58.635 -53.398  1.00  0.00    -0.072 N 
HETATM    6  H   UNL     1     -42.642  57.987 -53.676  1.00  0.00     0.279 HD
BRANCH   5   7
HETATM    7  C   UNL     1     -43.078  59.941 -54.113  1.00  0.00     0.230 C 
HETATM    8  C   UNL     1     -42.891  61.082 -53.130  1.00  0.00     0.034 C 
ENDBRANCH   5   7
BRANCH   5   9
HETATM    9  C   UNL     1     -44.668  58.020 -53.947  1.00  0.00     0.230 C 
HETATM   10  C   UNL     1     -45.222  58.822 -55.111  1.00  0.00     0.034 C 
ENDBRANCH   5   9
ENDBRANCH   4   5
ENDBRANCH   3   4
ENDBRANCH   2   3
ENDBRANCH   1   2
BRANCH   1  11
HETATM   11  C   UNL     1     -41.790  54.710 -52.175  1.00  0.00     0.153 C 
HETATM   12  S   UNL     1     -43.228  54.073 -51.577  1.00  0.00    -0.047 SA
BRANCH  11  13
HETATM   13  N   UNL     1     -40.650  54.028 -51.872  1.00  0.00    -0.338 N 
HETATM   14  H   UNL     1     -39.875  54.665 -51.714  1.00  0.00     0.168 HD
BRANCH  13  15
HETATM   15  C   UNL     1     -40.311  52.660 -51.820  1.00  0.00     0.035 A 
HETATM   16  C   UNL     1     -40.093  52.032 -53.056  1.00  0.00     0.053 A 
HETATM   17  C   UNL     1     -39.736  50.685 -53.116  1.00  0.00     0.036 A 
HETATM   18 CL   UNL     1     -39.449  49.948 -54.643  1.00  0.00    -0.084 Cl
HETATM   19  C   UNL     1     -39.599  49.939 -51.951  1.00  0.00     0.024 A 
HETATM   20  C   UNL     1     -39.825  50.550 -50.719  1.00  0.00     0.004 A 
HETATM   21  C   UNL     1     -40.179  51.904 -50.655  1.00  0.00     0.029 A 
ENDBRANCH  13  15
ENDBRANCH  11  13
ENDBRANCH   1  11
BRANCH   1  22
HETATM   22  C   UNL     1     -40.969  55.600 -54.235  1.00  0.00     0.142 C 
BRANCH  22  23
HETATM   23  C   UNL     1     -41.728  55.970 -55.476  1.00  0.00     0.024 A 
HETATM   24  C   UNL     1     -42.748  54.979 -55.945  1.00  0.00     0.253 A 
HETATM   25  O   UNL     1     -42.820  53.853 -55.458  1.00  0.00    -0.268 OA
HETATM   26  N   UNL     1     -43.586  55.367 -56.953  1.00  0.00    -0.322 N 
HETATM   27  C   UNL     1     -43.520  56.616 -57.579  1.00  0.00     0.048 A 
HETATM   28  H   UNL     1     -44.286  54.694 -57.238  1.00  0.00     0.169 HD
HETATM   29  C   UNL     1     -42.541  57.533 -57.174  1.00  0.00    -0.006 A 
HETATM   30  C   UNL     1     -44.435  56.933 -58.583  1.00  0.00     0.070 A 
HETATM   31  C   UNL     1     -42.471  58.780 -57.801  1.00  0.00     0.053 A 
HETATM   32  C   UNL     1     -41.644  57.173 -56.072  1.00  0.00     0.027 A 
HETATM   33  C   UNL     1     -43.379  59.101 -58.812  1.00  0.00     0.103 A 
HETATM   34  C   UNL     1     -44.374  58.188 -59.183  1.00  0.00     0.104 A 
HETATM   35  O   UNL     1     -43.249  60.340 -59.386  1.00  0.00    -0.346 OA
HETATM   36  O   UNL     1     -45.327  58.460 -60.132  1.00  0.00    -0.346 OA
HETATM   37  C   UNL     1     -45.413  59.866 -60.391  1.00  0.00     0.202 C 
HETATM   38  C   UNL     1     -44.025  60.454 -60.586  1.00  0.00     0.202 C 
ENDBRANCH  22  23
ENDBRANCH   1  22
TORSDOF 11
ENDMDL
MODEL 6
REMARK VINA RESULT:      -7.2      2.493      6.808
REMARK  11 active torsions:
REMARK  status: ('A' for Active; 'I' for Inactive)
REMARK    1  A    between atoms: C_2  and  N_3 
REMARK    2  A    between atoms: N_3  and  C_5 
REMARK    3  A    between atoms: N_3  and  C_35 
REMARK    4  A    between atoms: C_5  and  C_6 
REMARK    5  A    between atoms: C_6  and  C_7 
REMARK    6  A    between atoms: C_7  and  N_8 
REMARK    7  A    between atoms: N_8  and  C_9 
REMARK    8  A    between atoms: N_8  and  C_19 
REMARK    9  A    between atoms: C_9  and  N_10 
REMARK   10  A    between atoms: N_10  and  C_11 
REMARK   11  A    between atoms: C_19  and  C_20 
ROOT
HETATM    1  N   UNL     1     -42.608  55.709 -53.796  1.00  0.00    -0.255 NA
ENDROOT
BRANCH   1   2
HETATM    2  C   UNL     1     -42.036  55.567 -55.149  1.00  0.00     0.100 C 
BRANCH   2   3
HETATM    3  C   UNL     1     -42.956  54.955 -56.221  1.00  0.00     0.042 C 
BRANCH   3   4
HETATM    4  C   UNL     1     -42.582  55.397 -57.632  1.00  0.00     0.236 C 
BRANCH   4   5
HETATM    5  N   UNL     1     -43.409  56.579 -58.130  1.00  0.00    -0.072 N 
HETATM    6  H   UNL     1     -43.992  56.850 -57.326  1.00  0.00     0.279 HD
BRANCH   5   7
HETATM    7  C   UNL     1     -44.392  56.238 -59.241  1.00  0.00     0.230 C 
HETATM    8  C   UNL     1     -44.293  54.778 -59.641  1.00  0.00     0.034 C 
ENDBRANCH   5   7
BRANCH   5   9
HETATM    9  C   UNL     1     -42.619  57.827 -58.482  1.00  0.00     0.230 C 
HETATM   10  C   UNL     1     -41.925  57.693 -59.826  1.00  0.00     0.034 C 
ENDBRANCH   5   9
ENDBRANCH   4   5
ENDBRANCH   3   4
ENDBRANCH   2   3
ENDBRANCH   1   2
BRANCH   1  11
HETATM   11  C   UNL     1     -42.201  54.797 -52.833  1.00  0.00     0.153 C 
HETATM   12  S   UNL     1     -43.138  54.314 -51.522  1.00  0.00    -0.047 SA
BRANCH  11  13
HETATM   13  N   UNL     1     -40.976  54.212 -52.953  1.00  0.00    -0.338 N 
HETATM   14  H   UNL     1     -40.236  54.909 -52.934  1.00  0.00     0.168 HD
BRANCH  13  15
HETATM   15  C   UNL     1     -40.539  52.891 -53.182  1.00  0.00     0.035 A 
HETATM   16  C   UNL     1     -40.141  52.168 -52.048  1.00  0.00     0.053 A 
HETATM   17  C   UNL     1     -39.707  50.847 -52.162  1.00  0.00     0.036 A 
HETATM   18 CL   UNL     1     -39.251  49.977 -50.750  1.00  0.00    -0.084 Cl
HETATM   19  C   UNL     1     -39.653  50.228 -53.405  1.00  0.00     0.024 A 
HETATM   20  C   UNL     1     -40.035  50.941 -54.539  1.00  0.00     0.004 A 
HETATM   21  C   UNL     1     -40.475  52.266 -54.428  1.00  0.00     0.029 A 
ENDBRANCH  13  15
ENDBRANCH  11  13
ENDBRANCH   1  11
BRANCH   1  22
HETATM   22  C   UNL     1     -44.074  55.947 -53.773  1.00  0.00     0.142 C 
BRANCH  22  23
HETATM   23  C   UNL     1     -44.470  57.351 -53.418  1.00  0.00     0.024 A 
HETATM   24  C   UNL     1     -44.905  58.222 -54.556  1.00  0.00     0.253 A 
HETATM   25  O   UNL     1     -44.761  57.870 -55.724  1.00  0.00    -0.268 OA
HETATM   26  N   UNL     1     -45.451  59.435 -54.245  1.00  0.00    -0.322 N 
HETATM   27  C   UNL     1     -45.596  59.911 -52.938  1.00  0.00     0.048 A 
HETATM   28  H   UNL     1     -45.764  59.998 -55.027  1.00  0.00     0.169 HD
HETATM   29  C   UNL     1     -45.152  59.119 -51.870  1.00  0.00    -0.006 A 
HETATM   30  C   UNL     1     -46.188  61.154 -52.718  1.00  0.00     0.070 A 
HETATM   31  C   UNL     1     -45.292  59.594 -50.563  1.00  0.00     0.053 A 
HETATM   32  C   UNL     1     -44.593  57.795 -52.153  1.00  0.00     0.027 A 
HETATM   33  C   UNL     1     -45.879  60.841 -50.336  1.00  0.00     0.103 A 
HETATM   34  C   UNL     1     -46.348  61.606 -51.411  1.00  0.00     0.104 A 
HETATM   35  O   UNL     1     -45.979  61.244 -49.030  1.00  0.00    -0.346 OA
HETATM   36  O   UNL     1     -46.978  62.814 -51.254  1.00  0.00    -0.346 OA
HETATM   37  C   UNL     1     -47.427  62.993 -49.905  1.00  0.00     0.202 C 
HETATM   38  C   UNL     1     -46.320  62.634 -48.927  1.00  0.00     0.202 C 
ENDBRANCH  22  23
ENDBRANCH   1  22
TORSDOF 11
ENDMDL
MODEL 7
REMARK VINA RESULT:      -7.2      3.711      8.115
REMARK  11 active torsions:
REMARK  status: ('A' for Active; 'I' for Inactive)
REMARK    1  A    between atoms: C_2  and  N_3 
REMARK    2  A    between atoms: N_3  and  C_5 
REMARK    3  A    between atoms: N_3  and  C_35 
REMARK    4  A    between atoms: C_5  and  C_6 
REMARK    5  A    between atoms: C_6  and  C_7 
REMARK    6  A    between atoms: C_7  and  N_8 
REMARK    7  A    between atoms: N_8  and  C_9 
REMARK    8  A    between atoms: N_8  and  C_19 
REMARK    9  A    between atoms: C_9  and  N_10 
REMARK   10  A    between atoms: N_10  and  C_11 
REMARK   11  A    between atoms: C_19  and  C_20 
ROOT
HETATM    1  N   UNL     1     -43.605  57.797 -53.288  1.00  0.00    -0.255 NA
ENDROOT
BRANCH   1   2
HETATM    2  C   UNL     1     -44.254  57.262 -54.501  1.00  0.00     0.100 C 
BRANCH   2   3
HETATM    3  C   UNL     1     -43.622  57.659 -55.847  1.00  0.00     0.042 C 
BRANCH   3   4
HETATM    4  C   UNL     1     -43.368  56.456 -56.749  1.00  0.00     0.236 C 
BRANCH   4   5
HETATM    5  N   UNL     1     -44.253  56.438 -57.992  1.00  0.00    -0.072 N 
HETATM    6  H   UNL     1     -45.040  55.821 -57.747  1.00  0.00     0.279 HD
BRANCH   5   7
HETATM    7  C   UNL     1     -43.610  55.799 -59.215  1.00  0.00     0.230 C 
HETATM    8  C   UNL     1     -44.337  54.533 -59.628  1.00  0.00     0.034 C 
ENDBRANCH   5   7
BRANCH   5   9
HETATM    9  C   UNL     1     -44.893  57.766 -58.358  1.00  0.00     0.230 C 
HETATM   10  C   UNL     1     -46.325  57.588 -58.829  1.00  0.00     0.034 C 
ENDBRANCH   5   9
ENDBRANCH   4   5
ENDBRANCH   3   4
ENDBRANCH   2   3
ENDBRANCH   1   2
BRANCH   1  11
HETATM   11  C   UNL     1     -44.138  58.953 -52.737  1.00  0.00     0.153 C 
HETATM   12  S   UNL     1     -45.346  59.880 -53.453  1.00  0.00    -0.047 SA
BRANCH  11  13
HETATM   13  N   UNL     1     -43.695  59.369 -51.518  1.00  0.00    -0.338 N 
HETATM   14  H   UNL     1     -42.958  58.760 -51.170  1.00  0.00     0.168 HD
BRANCH  13  15
HETATM   15  C   UNL     1     -44.093  60.384 -50.624  1.00  0.00     0.035 A 
HETATM   16  C   UNL     1     -43.314  61.551 -50.628  1.00  0.00     0.053 A 
HETATM   17  C   UNL     1     -43.632  62.622 -49.794  1.00  0.00     0.036 A 
HETATM   18 CL   UNL     1     -42.675  64.050 -49.841  1.00  0.00    -0.084 Cl
HETATM   19  C   UNL     1     -44.724  62.548 -48.937  1.00  0.00     0.024 A 
HETATM   20  C   UNL     1     -45.497  61.390 -48.916  1.00  0.00     0.004 A 
HETATM   21  C   UNL     1     -45.183  60.313 -49.755  1.00  0.00     0.029 A 
ENDBRANCH  13  15
ENDBRANCH  11  13
ENDBRANCH   1  11
BRANCH   1  22
HETATM   22  C   UNL     1     -42.121  57.827 -53.350  1.00  0.00     0.142 C 
BRANCH  22  23
HETATM   23  C   UNL     1     -41.457  56.543 -52.946  1.00  0.00     0.024 A 
HETATM   24  C   UNL     1     -41.214  56.357 -51.479  1.00  0.00     0.253 A 
HETATM   25  O   UNL     1     -41.373  57.279 -50.682  1.00  0.00    -0.268 OA
HETATM   26  N   UNL     1     -40.790  55.127 -51.063  1.00  0.00    -0.322 N 
HETATM   27  C   UNL     1     -40.546  54.056 -51.928  1.00  0.00     0.048 A 
HETATM   28  H   UNL     1     -40.658  55.013 -50.065  1.00  0.00     0.169 HD
HETATM   29  C   UNL     1     -40.729  54.235 -53.306  1.00  0.00    -0.006 A 
HETATM   30  C   UNL     1     -40.137  52.828 -51.407  1.00  0.00     0.070 A 
HETATM   31  C   UNL     1     -40.482  53.166 -54.172  1.00  0.00     0.053 A 
HETATM   32  C   UNL     1     -41.218  55.526 -53.794  1.00  0.00     0.027 A 
HETATM   33  C   UNL     1     -40.066  51.936 -53.658  1.00  0.00     0.103 A 
HETATM   34  C   UNL     1     -39.920  51.763 -52.276  1.00  0.00     0.104 A 
HETATM   35  O   UNL     1     -39.838  50.935 -54.566  1.00  0.00    -0.346 OA
HETATM   36  O   UNL     1     -39.564  50.568 -51.703  1.00  0.00    -0.346 OA
HETATM   37  C   UNL     1     -39.743  49.480 -52.618  1.00  0.00     0.202 C 
HETATM   38  C   UNL     1     -39.148  49.826 -53.973  1.00  0.00     0.202 C 
ENDBRANCH  22  23
ENDBRANCH   1  22
TORSDOF 11
ENDMDL
MODEL 8
REMARK VINA RESULT:      -7.1      1.665      2.176
REMARK  11 active torsions:
REMARK  status: ('A' for Active; 'I' for Inactive)
REMARK    1  A    between atoms: C_2  and  N_3 
REMARK    2  A    between atoms: N_3  and  C_5 
REMARK    3  A    between atoms: N_3  and  C_35 
REMARK    4  A    between atoms: C_5  and  C_6 
REMARK    5  A    between atoms: C_6  and  C_7 
REMARK    6  A    between atoms: C_7  and  N_8 
REMARK    7  A    between atoms: N_8  and  C_9 
REMARK    8  A    between atoms: N_8  and  C_19 
REMARK    9  A    between atoms: C_9  and  N_10 
REMARK   10  A    between atoms: N_10  and  C_11 
REMARK   11  A    between atoms: C_19  and  C_20 
ROOT
HETATM    1  N   UNL     1     -42.081  56.119 -50.759  1.00  0.00    -0.255 NA
ENDROOT
BRANCH   1   2
HETATM    2  C   UNL     1     -41.569  57.345 -51.402  1.00  0.00     0.100 C 
BRANCH   2   3
HETATM    3  C   UNL     1     -40.921  58.387 -50.473  1.00  0.00     0.042 C 
BRANCH   3   4
HETATM    4  C   UNL     1     -41.130  59.816 -50.963  1.00  0.00     0.236 C 
BRANCH   4   5
HETATM    5  N   UNL     1     -42.576  60.113 -51.348  1.00  0.00    -0.072 N 
HETATM    6  H   UNL     1     -43.010  59.188 -51.476  1.00  0.00     0.279 HD
BRANCH   5   7
HETATM    7  C   UNL     1     -42.740  60.819 -52.687  1.00  0.00     0.230 C 
HETATM    8  C   UNL     1     -41.961  60.119 -53.784  1.00  0.00     0.034 C 
ENDBRANCH   5   7
BRANCH   5   9
HETATM    9  C   UNL     1     -43.411  60.796 -50.279  1.00  0.00     0.230 C 
HETATM   10  C   UNL     1     -43.760  62.222 -50.665  1.00  0.00     0.034 C 
ENDBRANCH   5   9
ENDBRANCH   4   5
ENDBRANCH   3   4
ENDBRANCH   2   3
ENDBRANCH   1   2
BRANCH   1  11
HETATM   11  C   UNL     1     -41.194  55.064 -50.602  1.00  0.00     0.153 C 
HETATM   12  S   UNL     1     -40.981  54.203 -49.172  1.00  0.00    -0.047 SA
BRANCH  11  13
HETATM   13  N   UNL     1     -40.458  54.655 -51.673  1.00  0.00    -0.338 N 
HETATM   14  H   UNL     1     -39.994  55.442 -52.118  1.00  0.00     0.168 HD
BRANCH  13  15
HETATM   15  C   UNL     1     -40.283  53.418 -52.327  1.00  0.00     0.035 A 
HETATM   16  C   UNL     1     -39.863  52.349 -51.523  1.00  0.00     0.053 A 
HETATM   17  C   UNL     1     -39.676  51.079 -52.068  1.00  0.00     0.036 A 
HETATM   18 CL   UNL     1     -39.186  49.780 -51.052  1.00  0.00    -0.084 Cl
HETATM   19  C   UNL     1     -39.895  50.853 -53.422  1.00  0.00     0.024 A 
HETATM   20  C   UNL     1     -40.300  51.911 -54.233  1.00  0.00     0.004 A 
HETATM   21  C   UNL     1     -40.493  53.187 -53.687  1.00  0.00     0.029 A 
ENDBRANCH  13  15
ENDBRANCH  11  13
ENDBRANCH   1  11
BRANCH   1  22
HETATM   22  C   UNL     1     -43.411  55.679 -51.251  1.00  0.00     0.142 C 
BRANCH  22  23
HETATM   23  C   UNL     1     -43.753  56.159 -52.632  1.00  0.00     0.024 A 
HETATM   24  C   UNL     1     -44.542  57.430 -52.712  1.00  0.00     0.253 A 
HETATM   25  O   UNL     1     -45.041  57.939 -51.711  1.00  0.00    -0.268 OA
HETATM   26  N   UNL     1     -44.703  57.993 -53.946  1.00  0.00    -0.322 N 
HETATM   27  C   UNL     1     -44.200  57.435 -55.126  1.00  0.00     0.048 A 
HETATM   28  H   UNL     1     -45.216  58.865 -53.977  1.00  0.00     0.169 HD
HETATM   29  C   UNL     1     -43.498  56.224 -55.064  1.00  0.00    -0.006 A 
HETATM   30  C   UNL     1     -44.394  58.096 -56.339  1.00  0.00     0.070 A 
HETATM   31  C   UNL     1     -42.998  55.662 -56.243  1.00  0.00     0.053 A 
HETATM   32  C   UNL     1     -43.269  55.602 -53.757  1.00  0.00     0.027 A 
HETATM   33  C   UNL     1     -43.194  56.316 -57.461  1.00  0.00     0.103 A 
HETATM   34  C   UNL     1     -43.869  57.542 -57.503  1.00  0.00     0.104 A 
HETATM   35  O   UNL     1     -42.681  55.705 -58.576  1.00  0.00    -0.346 OA
HETATM   36  O   UNL     1     -44.052  58.259 -58.659  1.00  0.00    -0.346 OA
HETATM   37  C   UNL     1     -43.164  57.813 -59.691  1.00  0.00     0.202 C 
HETATM   38  C   UNL     1     -43.181  56.296 -59.784  1.00  0.00     0.202 C 
ENDBRANCH  22  23
ENDBRANCH   1  22
TORSDOF 11
ENDMDL
MODEL 9
REMARK VINA RESULT:      -7.1      3.257      6.619
REMARK  11 active torsions:
REMARK  status: ('A' for Active; 'I' for Inactive)
REMARK    1  A    between atoms: C_2  and  N_3 
REMARK    2  A    between atoms: N_3  and  C_5 
REMARK    3  A    between atoms: N_3  and  C_35 
REMARK    4  A    between atoms: C_5  and  C_6 
REMARK    5  A    between atoms: C_6  and  C_7 
REMARK    6  A    between atoms: C_7  and  N_8 
REMARK    7  A    between atoms: N_8  and  C_9 
REMARK    8  A    between atoms: N_8  and  C_19 
REMARK    9  A    between atoms: C_9  and  N_10 
REMARK   10  A    between atoms: N_10  and  C_11 
REMARK   11  A    between atoms: C_19  and  C_20 
ROOT
HETATM    1  N   UNL     1     -41.953  58.404 -54.188  1.00  0.00    -0.255 NA
ENDROOT
BRANCH   1   2
HETATM    2  C   UNL     1     -41.551  59.744 -53.717  1.00  0.00     0.100 C 
BRANCH   2   3
HETATM    3  C   UNL     1     -42.076  60.170 -52.334  1.00  0.00     0.042 C 
BRANCH   3   4
HETATM    4  C   UNL     1     -43.242  61.147 -52.429  1.00  0.00     0.236 C 
BRANCH   4   5
HETATM    5  N   UNL     1     -44.354  60.855 -51.425  1.00  0.00    -0.072 N 
HETATM    6  H   UNL     1     -43.880  60.401 -50.632  1.00  0.00     0.279 HD
BRANCH   5   7
HETATM    7  C   UNL     1     -45.388  59.846 -51.905  1.00  0.00     0.230 C 
HETATM    8  C   UNL     1     -45.465  58.647 -50.980  1.00  0.00     0.034 C 
ENDBRANCH   5   7
BRANCH   5   9
HETATM    9  C   UNL     1     -45.036  62.075 -50.831  1.00  0.00     0.230 C 
HETATM   10  C   UNL     1     -44.046  63.192 -50.555  1.00  0.00     0.034 C 
ENDBRANCH   5   9
ENDBRANCH   4   5
ENDBRANCH   3   4
ENDBRANCH   2   3
ENDBRANCH   1   2
BRANCH   1  11
HETATM   11  C   UNL     1     -42.626  58.329 -55.398  1.00  0.00     0.153 C 
HETATM   12  S   UNL     1     -43.913  59.321 -55.835  1.00  0.00    -0.047 SA
BRANCH  11  13
HETATM   13  N   UNL     1     -42.214  57.422 -56.328  1.00  0.00    -0.338 N 
HETATM   14  H   UNL     1     -41.472  56.833 -55.960  1.00  0.00     0.168 HD
BRANCH  13  15
HETATM   15  C   UNL     1     -42.531  57.195 -57.683  1.00  0.00     0.035 A 
HETATM   16  C   UNL     1     -43.239  56.017 -57.962  1.00  0.00     0.053 A 
HETATM   17  C   UNL     1     -43.617  55.706 -59.268  1.00  0.00     0.036 A 
HETATM   18 CL   UNL     1     -44.508  54.267 -59.576  1.00  0.00    -0.084 Cl
HETATM   19  C   UNL     1     -43.290  56.556 -60.318  1.00  0.00     0.024 A 
HETATM   20  C   UNL     1     -42.576  57.723 -60.054  1.00  0.00     0.004 A 
HETATM   21  C   UNL     1     -42.199  58.040 -58.743  1.00  0.00     0.029 A 
ENDBRANCH  13  15
ENDBRANCH  11  13
ENDBRANCH   1  11
BRANCH   1  22
HETATM   22  C   UNL     1     -42.564  57.545 -53.142  1.00  0.00     0.142 C 
BRANCH  22  23
HETATM   23  C   UNL     1     -41.772  56.315 -52.805  1.00  0.00     0.024 A 
HETATM   24  C   UNL     1     -41.316  56.192 -51.384  1.00  0.00     0.253 A 
HETATM   25  O   UNL     1     -41.418  57.128 -50.594  1.00  0.00    -0.268 OA
HETATM   26  N   UNL     1     -40.762  55.002 -51.002  1.00  0.00    -0.322 N 
HETATM   27  C   UNL     1     -40.575  53.920 -51.867  1.00  0.00     0.048 A 
HETATM   28  H   UNL     1     -40.485  54.929 -50.031  1.00  0.00     0.169 HD
HETATM   29  C   UNL     1     -40.960  54.043 -53.209  1.00  0.00    -0.006 A 
HETATM   30  C   UNL     1     -40.023  52.735 -51.380  1.00  0.00     0.070 A 
HETATM   31  C   UNL     1     -40.771  52.963 -54.076  1.00  0.00     0.053 A 
HETATM   32  C   UNL     1     -41.592  55.288 -53.655  1.00  0.00     0.027 A 
HETATM   33  C   UNL     1     -40.212  51.777 -53.596  1.00  0.00     0.103 A 
HETATM   34  C   UNL     1     -39.864  51.656 -52.245  1.00  0.00     0.104 A 
HETATM   35  O   UNL     1     -40.051  50.761 -54.504  1.00  0.00    -0.346 OA
HETATM   36  O   UNL     1     -39.358  50.503 -51.700  1.00  0.00    -0.346 OA
HETATM   37  C   UNL     1     -39.596  49.378 -52.554  1.00  0.00     0.202 C 
HETATM   38  C   UNL     1     -39.218  49.714 -53.988  1.00  0.00     0.202 C 
ENDBRANCH  22  23
ENDBRANCH   1  22
TORSDOF 11
ENDMDL
MODEL 10
REMARK VINA RESULT:      -6.8      3.651      6.881
REMARK  11 active torsions:
REMARK  status: ('A' for Active; 'I' for Inactive)
REMARK    1  A    between atoms: C_2  and  N_3 
REMARK    2  A    between atoms: N_3  and  C_5 
REMARK    3  A    between atoms: N_3  and  C_35 
REMARK    4  A    between atoms: C_5  and  C_6 
REMARK    5  A    between atoms: C_6  and  C_7 
REMARK    6  A    between atoms: C_7  and  N_8 
REMARK    7  A    between atoms: N_8  and  C_9 
REMARK    8  A    between atoms: N_8  and  C_19 
REMARK    9  A    between atoms: C_9  and  N_10 
REMARK   10  A    between atoms: N_10  and  C_11 
REMARK   11  A    between atoms: C_19  and  C_20 
ROOT
HETATM    1  N   UNL     1     -42.309  58.362 -55.684  1.00  0.00    -0.255 NA
ENDROOT
BRANCH   1   2
HETATM    2  C   UNL     1     -42.077  59.676 -55.054  1.00  0.00     0.100 C 
BRANCH   2   3
HETATM    3  C   UNL     1     -43.173  60.179 -54.097  1.00  0.00     0.042 C 
BRANCH   3   4
HETATM    4  C   UNL     1     -42.626  61.114 -53.024  1.00  0.00     0.236 C 
BRANCH   4   5
HETATM    5  N   UNL     1     -43.718  61.768 -52.182  1.00  0.00    -0.072 N 
HETATM    6  H   UNL     1     -44.601  61.413 -52.574  1.00  0.00     0.279 HD
BRANCH   5   7
HETATM    7  C   UNL     1     -43.799  63.282 -52.320  1.00  0.00     0.230 C 
HETATM    8  C   UNL     1     -44.865  63.693 -53.317  1.00  0.00     0.034 C 
ENDBRANCH   5   7
BRANCH   5   9
HETATM    9  C   UNL     1     -43.745  61.363 -50.718  1.00  0.00     0.230 C 
HETATM   10  C   UNL     1     -42.474  60.641 -50.311  1.00  0.00     0.034 C 
ENDBRANCH   5   9
ENDBRANCH   4   5
ENDBRANCH   3   4
ENDBRANCH   2   3
ENDBRANCH   1   2
BRANCH   1  11
HETATM   11  C   UNL     1     -42.744  58.355 -57.001  1.00  0.00     0.153 C 
HETATM   12  S   UNL     1     -41.916  59.067 -58.282  1.00  0.00    -0.047 SA
BRANCH  11  13
HETATM   13  N   UNL     1     -43.901  57.707 -57.311  1.00  0.00    -0.338 N 
HETATM   14  H   UNL     1     -44.622  57.896 -56.620  1.00  0.00     0.168 HD
BRANCH  13  15
HETATM   15  C   UNL     1     -44.270  56.784 -58.312  1.00  0.00     0.035 A 
HETATM   16  C   UNL     1     -45.473  57.050 -58.983  1.00  0.00     0.053 A 
HETATM   17  C   UNL     1     -45.920  56.209 -60.003  1.00  0.00     0.036 A 
HETATM   18 CL   UNL     1     -47.385  56.575 -60.826  1.00  0.00    -0.084 Cl
HETATM   19  C   UNL     1     -45.184  55.087 -60.364  1.00  0.00     0.024 A 
HETATM   20  C   UNL     1     -43.994  54.807 -59.696  1.00  0.00     0.004 A 
HETATM   21  C   UNL     1     -43.540  55.651 -58.675  1.00  0.00     0.029 A 
ENDBRANCH  13  15
ENDBRANCH  11  13
ENDBRANCH   1  11
BRANCH   1  22
HETATM   22  C   UNL     1     -43.050  57.396 -54.834  1.00  0.00     0.142 C 
BRANCH  22  23
HETATM   23  C   UNL     1     -42.197  56.323 -54.223  1.00  0.00     0.024 A 
HETATM   24  C   UNL     1     -41.781  56.539 -52.801  1.00  0.00     0.253 A 
HETATM   25  O   UNL     1     -41.964  57.615 -52.236  1.00  0.00    -0.268 OA
HETATM   26  N   UNL     1     -41.170  55.499 -52.159  1.00  0.00    -0.322 N 
HETATM   27  C   UNL     1     -40.892  54.269 -52.764  1.00  0.00     0.048 A 
HETATM   28  H   UNL     1     -40.921  55.655 -51.190  1.00  0.00     0.169 HD
HETATM   29  C   UNL     1     -41.240  54.074 -54.107  1.00  0.00    -0.006 A 
HETATM   30  C   UNL     1     -40.286  53.256 -52.021  1.00  0.00     0.070 A 
HETATM   31  C   UNL     1     -40.959  52.847 -54.715  1.00  0.00     0.053 A 
HETATM   32  C   UNL     1     -41.929  55.149 -54.825  1.00  0.00     0.027 A 
HETATM   33  C   UNL     1     -40.346  51.831 -53.978  1.00  0.00     0.103 A 
HETATM   34  C   UNL     1     -40.035  52.029 -52.627  1.00  0.00     0.104 A 
HETATM   35  O   UNL     1     -40.097  50.656 -54.640  1.00  0.00    -0.346 OA
HETATM   36  O   UNL     1     -39.480  51.056 -51.835  1.00  0.00    -0.346 OA
HETATM   37  C   UNL     1     -39.623  49.760 -52.428  1.00  0.00     0.202 C 
HETATM   38  C   UNL     1     -39.220  49.801 -53.893  1.00  0.00     0.202 C 
ENDBRANCH  22  23
ENDBRANCH   1  22
TORSDOF 11
ENDMDL
