MODEL 1
REMARK VINA RESULT:      -8.9      0.000      0.000
REMARK  5 active torsions:
REMARK  status: ('A' for Active; 'I' for Inactive)
REMARK    1  A    between atoms: C_4  and  C_5 
REMARK    2  A    between atoms: C_10  and  C_11 
REMARK    3  A    between atoms: N_12  and  N_13 
REMARK       I    between atoms: N_13  and  C_14 
REMARK    4  A    between atoms: C_14  and  C_15 
REMARK    5  A    between atoms: C_16  and  O_17 
ROOT
HETATM    1  C   UNL     1     -40.906  54.198 -52.129  1.00  0.00     0.055 A 
HETATM    2  N   UNL     1     -40.628  53.246 -51.175  1.00  0.00    -0.354 N 
HETATM    3  H   UNL     1     -40.727  53.386 -50.180  1.00  0.00     0.166 HD
HETATM    4  C   UNL     1     -40.226  52.069 -51.754  1.00  0.00     0.043 A 
HETATM    5  C   UNL     1     -40.246  52.265 -53.135  1.00  0.00     0.005 A 
HETATM    6  C   UNL     1     -40.669  53.617 -53.372  1.00  0.00     0.023 A 
HETATM    7  C   UNL     1     -39.853  50.857 -51.160  1.00  0.00     0.030 A 
HETATM    8  C   UNL     1     -39.485  49.806 -52.006  1.00  0.00     0.002 A 
HETATM    9  C   UNL     1     -39.491  49.966 -53.388  1.00  0.00     0.001 A 
HETATM   10  C   UNL     1     -39.868  51.185 -53.963  1.00  0.00     0.014 A 
ENDROOT
BRANCH   6  11
HETATM   11  C   UNL     1     -40.822  54.308 -54.638  1.00  0.00     0.153 C 
HETATM   12  N   UNL     1     -41.980  54.362 -55.212  1.00  0.00    -0.183 NA
BRANCH  12  13
HETATM   13  N   UNL     1     -42.032  55.033 -56.400  1.00  0.00    -0.243 N 
HETATM   14  C   UNL     1     -42.865  56.134 -56.522  1.00  0.00     0.274 C 
HETATM   15  O   UNL     1     -43.558  56.605 -55.620  1.00  0.00    -0.266 OA
HETATM   16  H   UNL     1     -41.375  54.788 -57.131  1.00  0.00     0.192 HD
BRANCH  14  17
HETATM   17  C   UNL     1     -42.860  56.825 -57.839  1.00  0.00     0.066 A 
HETATM   18  C   UNL     1     -43.523  56.235 -58.927  1.00  0.00     0.081 A 
HETATM   19  C   UNL     1     -43.559  56.870 -60.167  1.00  0.00     0.037 A 
HETATM   20  C   UNL     1     -42.911  58.092 -60.341  1.00  0.00     0.003 A 
HETATM   21  C   UNL     1     -42.223  58.675 -59.279  1.00  0.00     0.001 A 
HETATM   22  C   UNL     1     -42.192  58.044 -58.031  1.00  0.00     0.020 A 
BRANCH  18  23
HETATM   23  O   UNL     1     -44.164  55.026 -58.847  1.00  0.00    -0.360 OA
HETATM   24  H   UNL     1     -43.482  54.334 -58.689  1.00  0.00     0.217 HD
ENDBRANCH  18  23
ENDBRANCH  14  17
ENDBRANCH  12  13
ENDBRANCH   6  11
BRANCH   1  25
HETATM   25  C   UNL     1     -41.382  55.527 -51.754  1.00  0.00    -0.009 A 
HETATM   26  C   UNL     1     -42.620  55.992 -52.213  1.00  0.00     0.014 A 
HETATM   27  C   UNL     1     -43.072  57.265 -51.859  1.00  0.00     0.001 A 
HETATM   28  C   UNL     1     -42.289  58.081 -51.043  1.00  0.00     0.000 A 
HETATM   29  C   UNL     1     -41.053  57.627 -50.584  1.00  0.00     0.001 A 
HETATM   30  C   UNL     1     -40.600  56.355 -50.939  1.00  0.00     0.014 A 
ENDBRANCH   1  25
TORSDOF 5
ENDMDL
MODEL 2
REMARK VINA RESULT:      -8.8      1.766      2.438
REMARK  5 active torsions:
REMARK  status: ('A' for Active; 'I' for Inactive)
REMARK    1  A    between atoms: C_4  and  C_5 
REMARK    2  A    between atoms: C_10  and  C_11 
REMARK    3  A    between atoms: N_12  and  N_13 
REMARK       I    between atoms: N_13  and  C_14 
REMARK    4  A    between atoms: C_14  and  C_15 
REMARK    5  A    between atoms: C_16  and  O_17 
ROOT
HETATM    1  C   UNL     1     -42.110  55.098 -52.714  1.00  0.00     0.055 A 
HETATM    2  N   UNL     1     -41.184  54.681 -51.785  1.00  0.00    -0.354 N 
HETATM    3  H   UNL     1     -40.979  55.166 -50.924  1.00  0.00     0.166 HD
HETATM    4  C   UNL     1     -40.597  53.501 -52.168  1.00  0.00     0.043 A 
HETATM    5  C   UNL     1     -41.163  53.140 -53.390  1.00  0.00     0.005 A 
HETATM    6  C   UNL     1     -42.116  54.156 -53.739  1.00  0.00     0.023 A 
HETATM    7  C   UNL     1     -39.616  52.736 -51.524  1.00  0.00     0.030 A 
HETATM    8  C   UNL     1     -39.197  51.559 -52.152  1.00  0.00     0.002 A 
HETATM    9  C   UNL     1     -39.739  51.168 -53.372  1.00  0.00     0.001 A 
HETATM   10  C   UNL     1     -40.719  51.946 -53.999  1.00  0.00     0.014 A 
ENDROOT
BRANCH   6  11
HETATM   11  C   UNL     1     -42.944  54.249 -54.927  1.00  0.00     0.153 C 
HETATM   12  N   UNL     1     -42.526  54.906 -55.960  1.00  0.00    -0.183 NA
BRANCH  12  13
HETATM   13  N   UNL     1     -43.369  54.942 -57.033  1.00  0.00    -0.243 N 
HETATM   14  C   UNL     1     -43.334  56.034 -57.886  1.00  0.00     0.274 C 
HETATM   15  O   UNL     1     -42.564  56.989 -57.789  1.00  0.00    -0.266 OA
HETATM   16  H   UNL     1     -43.919  54.121 -57.253  1.00  0.00     0.192 HD
BRANCH  14  17
HETATM   17  C   UNL     1     -44.270  56.001 -59.042  1.00  0.00     0.066 A 
HETATM   18  C   UNL     1     -45.273  56.979 -59.144  1.00  0.00     0.081 A 
HETATM   19  C   UNL     1     -46.147  56.990 -60.228  1.00  0.00     0.037 A 
HETATM   20  C   UNL     1     -46.047  56.009 -61.212  1.00  0.00     0.003 A 
HETATM   21  C   UNL     1     -45.077  55.012 -61.109  1.00  0.00     0.001 A 
HETATM   22  C   UNL     1     -44.192  55.003 -60.025  1.00  0.00     0.020 A 
BRANCH  18  23
HETATM   23  O   UNL     1     -45.454  57.965 -58.209  1.00  0.00    -0.360 OA
HETATM   24  H   UNL     1     -44.566  58.309 -57.959  1.00  0.00     0.217 HD
ENDBRANCH  18  23
ENDBRANCH  14  17
ENDBRANCH  12  13
ENDBRANCH   6  11
BRANCH   1  25
HETATM   25  C   UNL     1     -42.888  56.317 -52.511  1.00  0.00    -0.009 A 
HETATM   26  C   UNL     1     -42.626  57.461 -53.275  1.00  0.00     0.014 A 
HETATM   27  C   UNL     1     -43.368  58.628 -53.076  1.00  0.00     0.001 A 
HETATM   28  C   UNL     1     -44.376  58.658 -52.114  1.00  0.00     0.000 A 
HETATM   29  C   UNL     1     -44.642  57.523 -51.347  1.00  0.00     0.001 A 
HETATM   30  C   UNL     1     -43.901  56.357 -51.544  1.00  0.00     0.014 A 
ENDBRANCH   1  25
TORSDOF 5
ENDMDL
MODEL 3
REMARK VINA RESULT:      -8.8      1.068      1.486
REMARK  5 active torsions:
REMARK  status: ('A' for Active; 'I' for Inactive)
REMARK    1  A    between atoms: C_4  and  C_5 
REMARK    2  A    between atoms: C_10  and  C_11 
REMARK    3  A    between atoms: N_12  and  N_13 
REMARK       I    between atoms: N_13  and  C_14 
REMARK    4  A    between atoms: C_14  and  C_15 
REMARK    5  A    between atoms: C_16  and  O_17 
ROOT
HETATM    1  C   UNL     1     -41.296  55.242 -52.384  1.00  0.00     0.055 A 
HETATM    2  N   UNL     1     -40.958  54.313 -51.427  1.00  0.00    -0.354 N 
HETATM    3  H   UNL     1     -41.085  54.440 -50.434  1.00  0.00     0.166 HD
HETATM    4  C   UNL     1     -40.452  53.174 -52.002  1.00  0.00     0.043 A 
HETATM    5  C   UNL     1     -40.464  53.373 -53.382  1.00  0.00     0.005 A 
HETATM    6  C   UNL     1     -40.992  54.687 -53.623  1.00  0.00     0.023 A 
HETATM    7  C   UNL     1     -39.993  51.994 -51.404  1.00  0.00     0.030 A 
HETATM    8  C   UNL     1     -39.526  50.980 -52.246  1.00  0.00     0.002 A 
HETATM    9  C   UNL     1     -39.522  51.144 -53.627  1.00  0.00     0.001 A 
HETATM   10  C   UNL     1     -39.986  52.330 -54.206  1.00  0.00     0.014 A 
ENDROOT
BRANCH   6  11
HETATM   11  C   UNL     1     -41.179  55.368 -54.891  1.00  0.00     0.153 C 
HETATM   12  N   UNL     1     -42.138  55.014 -55.683  1.00  0.00    -0.183 NA
BRANCH  12  13
HETATM   13  N   UNL     1     -42.239  55.709 -56.854  1.00  0.00    -0.243 N 
HETATM   14  C   UNL     1     -43.154  56.746 -56.949  1.00  0.00     0.274 C 
HETATM   15  O   UNL     1     -43.881  57.140 -56.038  1.00  0.00    -0.266 OA
HETATM   16  H   UNL     1     -41.565  55.534 -57.589  1.00  0.00     0.192 HD
BRANCH  14  17
HETATM   17  C   UNL     1     -43.201  57.470 -58.248  1.00  0.00     0.066 A 
HETATM   18  C   UNL     1     -44.400  57.496 -58.977  1.00  0.00     0.081 A 
HETATM   19  C   UNL     1     -44.483  58.187 -60.184  1.00  0.00     0.037 A 
HETATM   20  C   UNL     1     -43.361  58.840 -60.690  1.00  0.00     0.003 A 
HETATM   21  C   UNL     1     -42.154  58.796 -59.993  1.00  0.00     0.001 A 
HETATM   22  C   UNL     1     -42.070  58.110 -58.777  1.00  0.00     0.020 A 
BRANCH  18  23
HETATM   23  O   UNL     1     -45.543  56.861 -58.563  1.00  0.00    -0.360 OA
HETATM   24  H   UNL     1     -46.241  57.546 -58.447  1.00  0.00     0.217 HD
ENDBRANCH  18  23
ENDBRANCH  14  17
ENDBRANCH  12  13
ENDBRANCH   6  11
BRANCH   1  25
HETATM   25  C   UNL     1     -41.885  56.527 -52.014  1.00  0.00    -0.009 A 
HETATM   26  C   UNL     1     -41.068  57.592 -51.616  1.00  0.00     0.014 A 
HETATM   27  C   UNL     1     -41.632  58.819 -51.257  1.00  0.00     0.001 A 
HETATM   28  C   UNL     1     -43.015  58.988 -51.296  1.00  0.00     0.000 A 
HETATM   29  C   UNL     1     -43.836  57.932 -51.689  1.00  0.00     0.001 A 
HETATM   30  C   UNL     1     -43.274  56.705 -52.046  1.00  0.00     0.014 A 
ENDBRANCH   1  25
TORSDOF 5
ENDMDL
MODEL 4
REMARK VINA RESULT:      -8.5      2.147      5.398
REMARK  5 active torsions:
REMARK  status: ('A' for Active; 'I' for Inactive)
REMARK    1  A    between atoms: C_4  and  C_5 
REMARK    2  A    between atoms: C_10  and  C_11 
REMARK    3  A    between atoms: N_12  and  N_13 
REMARK       I    between atoms: N_13  and  C_14 
REMARK    4  A    between atoms: C_14  and  C_15 
REMARK    5  A    between atoms: C_16  and  O_17 
ROOT
HETATM    1  C   UNL     1     -41.579  56.522 -52.837  1.00  0.00     0.055 A 
HETATM    2  N   UNL     1     -40.991  57.144 -51.759  1.00  0.00    -0.354 N 
HETATM    3  H   UNL     1     -40.206  56.775 -51.243  1.00  0.00     0.166 HD
HETATM    4  C   UNL     1     -41.595  58.347 -51.494  1.00  0.00     0.043 A 
HETATM    5  C   UNL     1     -42.610  58.512 -52.436  1.00  0.00     0.005 A 
HETATM    6  C   UNL     1     -42.604  57.352 -53.282  1.00  0.00     0.023 A 
HETATM    7  C   UNL     1     -41.314  59.293 -50.499  1.00  0.00     0.030 A 
HETATM    8  C   UNL     1     -42.100  60.448 -50.463  1.00  0.00     0.002 A 
HETATM    9  C   UNL     1     -43.123  60.646 -51.386  1.00  0.00     0.001 A 
HETATM   10  C   UNL     1     -43.387  59.690 -52.373  1.00  0.00     0.014 A 
ENDROOT
BRANCH   6  11
HETATM   11  C   UNL     1     -43.485  57.036 -54.391  1.00  0.00     0.153 C 
HETATM   12  N   UNL     1     -43.194  57.439 -55.585  1.00  0.00    -0.183 NA
BRANCH  12  13
HETATM   13  N   UNL     1     -44.078  57.098 -56.568  1.00  0.00    -0.243 N 
HETATM   14  C   UNL     1     -43.739  57.324 -57.893  1.00  0.00     0.274 C 
HETATM   15  O   UNL     1     -42.667  57.782 -58.286  1.00  0.00    -0.266 OA
HETATM   16  H   UNL     1     -44.912  56.579 -56.320  1.00  0.00     0.192 HD
BRANCH  14  17
HETATM   17  C   UNL     1     -44.744  56.914 -58.912  1.00  0.00     0.066 A 
HETATM   18  C   UNL     1     -44.354  56.060 -59.956  1.00  0.00     0.081 A 
HETATM   19  C   UNL     1     -45.278  55.638 -60.910  1.00  0.00     0.037 A 
HETATM   20  C   UNL     1     -46.596  56.084 -60.847  1.00  0.00     0.003 A 
HETATM   21  C   UNL     1     -46.990  56.958 -59.835  1.00  0.00     0.001 A 
HETATM   22  C   UNL     1     -46.067  57.377 -58.870  1.00  0.00     0.020 A 
BRANCH  18  23
HETATM   23  O   UNL     1     -43.074  55.594 -60.104  1.00  0.00    -0.360 OA
HETATM   24  H   UNL     1     -43.126  54.697 -60.507  1.00  0.00     0.217 HD
ENDBRANCH  18  23
ENDBRANCH  14  17
ENDBRANCH  12  13
ENDBRANCH   6  11
BRANCH   1  25
HETATM   25  C   UNL     1     -41.088  55.237 -53.328  1.00  0.00    -0.009 A 
HETATM   26  C   UNL     1     -40.561  55.127 -54.621  1.00  0.00     0.014 A 
HETATM   27  C   UNL     1     -40.097  53.896 -55.092  1.00  0.00     0.001 A 
HETATM   28  C   UNL     1     -40.156  52.769 -54.273  1.00  0.00     0.000 A 
HETATM   29  C   UNL     1     -40.681  52.870 -52.985  1.00  0.00     0.001 A 
HETATM   30  C   UNL     1     -41.147  54.098 -52.515  1.00  0.00     0.014 A 
ENDBRANCH   1  25
TORSDOF 5
ENDMDL
MODEL 5
REMARK VINA RESULT:      -8.2      2.230      7.327
REMARK  5 active torsions:
REMARK  status: ('A' for Active; 'I' for Inactive)
REMARK    1  A    between atoms: C_4  and  C_5 
REMARK    2  A    between atoms: C_10  and  C_11 
REMARK    3  A    between atoms: N_12  and  N_13 
REMARK       I    between atoms: N_13  and  C_14 
REMARK    4  A    between atoms: C_14  and  C_15 
REMARK    5  A    between atoms: C_16  and  O_17 
ROOT
HETATM    1  C   UNL     1     -43.668  57.527 -55.509  1.00  0.00     0.055 A 
HETATM    2  N   UNL     1     -44.051  58.412 -56.491  1.00  0.00    -0.354 N 
HETATM    3  H   UNL     1     -44.365  59.356 -56.320  1.00  0.00     0.166 HD
HETATM    4  C   UNL     1     -43.923  57.852 -57.737  1.00  0.00     0.043 A 
HETATM    5  C   UNL     1     -43.437  56.558 -57.555  1.00  0.00     0.005 A 
HETATM    6  C   UNL     1     -43.283  56.350 -56.143  1.00  0.00     0.023 A 
HETATM    7  C   UNL     1     -44.197  58.396 -58.998  1.00  0.00     0.030 A 
HETATM    8  C   UNL     1     -43.969  57.588 -60.116  1.00  0.00     0.002 A 
HETATM    9  C   UNL     1     -43.486  56.291 -59.973  1.00  0.00     0.001 A 
HETATM   10  C   UNL     1     -43.217  55.766 -58.704  1.00  0.00     0.014 A 
ENDROOT
BRANCH   6  11
HETATM   11  C   UNL     1     -42.835  55.157 -55.448  1.00  0.00     0.153 C 
HETATM   12  N   UNL     1     -42.028  55.258 -54.442  1.00  0.00    -0.183 NA
BRANCH  12  13
HETATM   13  N   UNL     1     -41.659  54.085 -53.848  1.00  0.00    -0.243 N 
HETATM   14  C   UNL     1     -40.535  53.417 -54.308  1.00  0.00     0.274 C 
HETATM   15  O   UNL     1     -39.790  53.811 -55.205  1.00  0.00    -0.266 OA
HETATM   16  H   UNL     1     -42.140  53.787 -53.008  1.00  0.00     0.192 HD
BRANCH  14  17
HETATM   17  C   UNL     1     -40.182  52.154 -53.605  1.00  0.00     0.066 A 
HETATM   18  C   UNL     1     -39.894  52.190 -52.231  1.00  0.00     0.081 A 
HETATM   19  C   UNL     1     -39.586  51.020 -51.539  1.00  0.00     0.037 A 
HETATM   20  C   UNL     1     -39.537  49.804 -52.217  1.00  0.00     0.003 A 
HETATM   21  C   UNL     1     -39.790  49.757 -53.587  1.00  0.00     0.001 A 
HETATM   22  C   UNL     1     -40.107  50.928 -54.283  1.00  0.00     0.020 A 
BRANCH  18  23
HETATM   23  O   UNL     1     -39.897  53.346 -51.495  1.00  0.00    -0.360 OA
HETATM   24  H   UNL     1     -40.299  54.054 -52.049  1.00  0.00     0.217 HD
ENDBRANCH  18  23
ENDBRANCH  14  17
ENDBRANCH  12  13
ENDBRANCH   6  11
BRANCH   1  25
HETATM   25  C   UNL     1     -43.689  57.908 -54.098  1.00  0.00    -0.009 A 
HETATM   26  C   UNL     1     -44.728  57.478 -53.264  1.00  0.00     0.014 A 
HETATM   27  C   UNL     1     -44.750  57.847 -51.917  1.00  0.00     0.001 A 
HETATM   28  C   UNL     1     -43.735  58.647 -51.396  1.00  0.00     0.000 A 
HETATM   29  C   UNL     1     -42.697  59.082 -52.221  1.00  0.00     0.001 A 
HETATM   30  C   UNL     1     -42.675  58.715 -53.568  1.00  0.00     0.014 A 
ENDBRANCH   1  25
TORSDOF 5
ENDMDL
MODEL 6
REMARK VINA RESULT:      -8.1      2.659      7.879
REMARK  5 active torsions:
REMARK  status: ('A' for Active; 'I' for Inactive)
REMARK    1  A    between atoms: C_4  and  C_5 
REMARK    2  A    between atoms: C_10  and  C_11 
REMARK    3  A    between atoms: N_12  and  N_13 
REMARK       I    between atoms: N_13  and  C_14 
REMARK    4  A    between atoms: C_14  and  C_15 
REMARK    5  A    between atoms: C_16  and  O_17 
ROOT
HETATM    1  C   UNL     1     -44.310  57.718 -54.883  1.00  0.00     0.055 A 
HETATM    2  N   UNL     1     -44.884  58.949 -54.665  1.00  0.00    -0.354 N 
HETATM    3  H   UNL     1     -45.108  59.613 -55.392  1.00  0.00     0.166 HD
HETATM    4  C   UNL     1     -45.141  59.146 -53.332  1.00  0.00     0.043 A 
HETATM    5  C   UNL     1     -44.718  57.999 -52.661  1.00  0.00     0.005 A 
HETATM    6  C   UNL     1     -44.185  57.097 -53.643  1.00  0.00     0.023 A 
HETATM    7  C   UNL     1     -45.713  60.246 -52.679  1.00  0.00     0.030 A 
HETATM    8  C   UNL     1     -45.858  60.173 -51.291  1.00  0.00     0.002 A 
HETATM    9  C   UNL     1     -45.447  59.045 -50.588  1.00  0.00     0.001 A 
HETATM   10  C   UNL     1     -44.878  57.955 -51.258  1.00  0.00     0.014 A 
ENDROOT
BRANCH   6  11
HETATM   11  C   UNL     1     -43.598  55.785 -53.443  1.00  0.00     0.153 C 
HETATM   12  N   UNL     1     -42.416  55.676 -52.928  1.00  0.00    -0.183 NA
BRANCH  12  13
HETATM   13  N   UNL     1     -41.942  54.404 -52.777  1.00  0.00    -0.243 N 
HETATM   14  C   UNL     1     -40.913  53.963 -53.594  1.00  0.00     0.274 C 
HETATM   15  O   UNL     1     -40.340  54.641 -54.446  1.00  0.00    -0.266 OA
HETATM   16  H   UNL     1     -42.266  53.849 -51.994  1.00  0.00     0.192 HD
BRANCH  14  17
HETATM   17  C   UNL     1     -40.435  52.573 -53.364  1.00  0.00     0.066 A 
HETATM   18  C   UNL     1     -39.913  52.225 -52.108  1.00  0.00     0.081 A 
HETATM   19  C   UNL     1     -39.482  50.925 -51.853  1.00  0.00     0.037 A 
HETATM   20  C   UNL     1     -39.544  49.962 -52.859  1.00  0.00     0.003 A 
HETATM   21  C   UNL     1     -40.031  50.301 -54.121  1.00  0.00     0.001 A 
HETATM   22  C   UNL     1     -40.472  51.603 -54.377  1.00  0.00     0.020 A 
BRANCH  18  23
HETATM   23  O   UNL     1     -39.795  53.116 -51.073  1.00  0.00    -0.360 OA
HETATM   24  H   UNL     1     -40.544  53.752 -51.138  1.00  0.00     0.217 HD
ENDBRANCH  18  23
ENDBRANCH  14  17
ENDBRANCH  12  13
ENDBRANCH   6  11
BRANCH   1  25
HETATM   25  C   UNL     1     -43.972  57.269 -56.231  1.00  0.00    -0.009 A 
HETATM   26  C   UNL     1     -44.516  57.913 -57.349  1.00  0.00     0.014 A 
HETATM   27  C   UNL     1     -44.197  57.479 -58.638  1.00  0.00     0.001 A 
HETATM   28  C   UNL     1     -43.332  56.400 -58.817  1.00  0.00     0.000 A 
HETATM   29  C   UNL     1     -42.788  55.752 -57.709  1.00  0.00     0.001 A 
HETATM   30  C   UNL     1     -43.108  56.183 -56.420  1.00  0.00     0.014 A 
ENDBRANCH   1  25
TORSDOF 5
ENDMDL
MODEL 7
REMARK VINA RESULT:      -8.1      2.161      3.413
REMARK  5 active torsions:
REMARK  status: ('A' for Active; 'I' for Inactive)
REMARK    1  A    between atoms: C_4  and  C_5 
REMARK    2  A    between atoms: C_10  and  C_11 
REMARK    3  A    between atoms: N_12  and  N_13 
REMARK       I    between atoms: N_13  and  C_14 
REMARK    4  A    between atoms: C_14  and  C_15 
REMARK    5  A    between atoms: C_16  and  O_17 
ROOT
HETATM    1  C   UNL     1     -43.005  56.902 -51.702  1.00  0.00     0.055 A 
HETATM    2  N   UNL     1     -42.194  56.742 -50.602  1.00  0.00    -0.354 N 
HETATM    3  H   UNL     1     -42.175  57.366 -49.809  1.00  0.00     0.166 HD
HETATM    4  C   UNL     1     -41.435  55.604 -50.708  1.00  0.00     0.043 A 
HETATM    5  C   UNL     1     -41.767  55.004 -51.923  1.00  0.00     0.005 A 
HETATM    6  C   UNL     1     -42.756  55.830 -52.555  1.00  0.00     0.023 A 
HETATM    7  C   UNL     1     -40.490  55.068 -49.824  1.00  0.00     0.030 A 
HETATM    8  C   UNL     1     -39.860  53.877 -50.193  1.00  0.00     0.002 A 
HETATM    9  C   UNL     1     -40.164  53.250 -51.398  1.00  0.00     0.001 A 
HETATM   10  C   UNL     1     -41.112  53.801 -52.268  1.00  0.00     0.014 A 
ENDROOT
BRANCH   6  11
HETATM   11  C   UNL     1     -43.397  55.649 -53.844  1.00  0.00     0.153 C 
HETATM   12  N   UNL     1     -42.731  55.850 -54.935  1.00  0.00    -0.183 NA
BRANCH  12  13
HETATM   13  N   UNL     1     -43.414  55.656 -56.101  1.00  0.00    -0.243 N 
HETATM   14  C   UNL     1     -43.143  56.472 -57.188  1.00  0.00     0.274 C 
HETATM   15  O   UNL     1     -42.291  57.359 -57.218  1.00  0.00    -0.266 OA
HETATM   16  H   UNL     1     -44.017  54.847 -56.189  1.00  0.00     0.192 HD
BRANCH  14  17
HETATM   17  C   UNL     1     -43.912  56.194 -58.432  1.00  0.00     0.066 A 
HETATM   18  C   UNL     1     -44.725  57.202 -58.976  1.00  0.00     0.081 A 
HETATM   19  C   UNL     1     -45.437  56.982 -60.152  1.00  0.00     0.037 A 
HETATM   20  C   UNL     1     -45.365  55.743 -60.788  1.00  0.00     0.003 A 
HETATM   21  C   UNL     1     -44.587  54.723 -60.242  1.00  0.00     0.001 A 
HETATM   22  C   UNL     1     -43.865  54.944 -59.065  1.00  0.00     0.020 A 
BRANCH  18  23
HETATM   23  O   UNL     1     -44.869  58.439 -58.402  1.00  0.00    -0.360 OA
HETATM   24  H   UNL     1     -44.744  59.113 -59.109  1.00  0.00     0.217 HD
ENDBRANCH  18  23
ENDBRANCH  14  17
ENDBRANCH  12  13
ENDBRANCH   6  11
BRANCH   1  25
HETATM   25  C   UNL     1     -43.928  58.029 -51.803  1.00  0.00    -0.009 A 
HETATM   26  C   UNL     1     -45.062  58.092 -50.984  1.00  0.00     0.014 A 
HETATM   27  C   UNL     1     -45.947  59.167 -51.085  1.00  0.00     0.001 A 
HETATM   28  C   UNL     1     -45.705  60.186 -52.005  1.00  0.00     0.000 A 
HETATM   29  C   UNL     1     -44.579  60.130 -52.826  1.00  0.00     0.001 A 
HETATM   30  C   UNL     1     -43.695  59.055 -52.727  1.00  0.00     0.014 A 
ENDBRANCH   1  25
TORSDOF 5
ENDMDL
MODEL 8
REMARK VINA RESULT:      -8.1      2.216      5.424
REMARK  5 active torsions:
REMARK  status: ('A' for Active; 'I' for Inactive)
REMARK    1  A    between atoms: C_4  and  C_5 
REMARK    2  A    between atoms: C_10  and  C_11 
REMARK    3  A    between atoms: N_12  and  N_13 
REMARK       I    between atoms: N_13  and  C_14 
REMARK    4  A    between atoms: C_14  and  C_15 
REMARK    5  A    between atoms: C_16  and  O_17 
ROOT
HETATM    1  C   UNL     1     -41.518  56.655 -52.998  1.00  0.00     0.055 A 
HETATM    2  N   UNL     1     -41.024  57.170 -51.821  1.00  0.00    -0.354 N 
HETATM    3  H   UNL     1     -40.364  56.697 -51.221  1.00  0.00     0.166 HD
HETATM    4  C   UNL     1     -41.523  58.426 -51.584  1.00  0.00     0.043 A 
HETATM    5  C   UNL     1     -42.371  58.736 -52.647  1.00  0.00     0.005 A 
HETATM    6  C   UNL     1     -42.373  57.611 -53.538  1.00  0.00     0.023 A 
HETATM    7  C   UNL     1     -41.285  59.301 -50.516  1.00  0.00     0.030 A 
HETATM    8  C   UNL     1     -41.937  60.537 -50.532  1.00  0.00     0.002 A 
HETATM    9  C   UNL     1     -42.791  60.880 -51.575  1.00  0.00     0.001 A 
HETATM   10  C   UNL     1     -43.016  59.993 -52.634  1.00  0.00     0.014 A 
ENDROOT
BRANCH   6  11
HETATM   11  C   UNL     1     -43.118  57.435 -54.771  1.00  0.00     0.153 C 
HETATM   12  N   UNL     1     -42.574  57.736 -55.906  1.00  0.00    -0.183 NA
BRANCH  12  13
HETATM   13  N   UNL     1     -43.347  57.539 -57.014  1.00  0.00    -0.243 N 
HETATM   14  C   UNL     1     -43.401  56.278 -57.588  1.00  0.00     0.274 C 
HETATM   15  O   UNL     1     -42.831  55.275 -57.158  1.00  0.00    -0.266 OA
HETATM   16  H   UNL     1     -43.958  58.284 -57.326  1.00  0.00     0.192 HD
BRANCH  14  17
HETATM   17  C   UNL     1     -44.274  56.132 -58.784  1.00  0.00     0.066 A 
HETATM   18  C   UNL     1     -45.507  56.803 -58.820  1.00  0.00     0.081 A 
HETATM   19  C   UNL     1     -46.335  56.707 -59.936  1.00  0.00     0.037 A 
HETATM   20  C   UNL     1     -45.953  55.920 -61.021  1.00  0.00     0.003 A 
HETATM   21  C   UNL     1     -44.746  55.222 -60.985  1.00  0.00     0.001 A 
HETATM   22  C   UNL     1     -43.909  55.323 -59.869  1.00  0.00     0.020 A 
BRANCH  18  23
HETATM   23  O   UNL     1     -45.968  57.579 -57.789  1.00  0.00    -0.360 OA
HETATM   24  H   UNL     1     -46.264  56.976 -57.068  1.00  0.00     0.217 HD
ENDBRANCH  18  23
ENDBRANCH  14  17
ENDBRANCH  12  13
ENDBRANCH   6  11
BRANCH   1  25
HETATM   25  C   UNL     1     -41.106  55.339 -53.478  1.00  0.00    -0.009 A 
HETATM   26  C   UNL     1     -41.400  54.189 -52.735  1.00  0.00     0.014 A 
HETATM   27  C   UNL     1     -41.001  52.931 -53.193  1.00  0.00     0.001 A 
HETATM   28  C   UNL     1     -40.306  52.815 -54.396  1.00  0.00     0.000 A 
HETATM   29  C   UNL     1     -40.007  53.955 -55.141  1.00  0.00     0.001 A 
HETATM   30  C   UNL     1     -40.404  55.213 -54.684  1.00  0.00     0.014 A 
ENDBRANCH   1  25
TORSDOF 5
ENDMDL
MODEL 9
REMARK VINA RESULT:      -7.7      2.655      9.144
REMARK  5 active torsions:
REMARK  status: ('A' for Active; 'I' for Inactive)
REMARK    1  A    between atoms: C_4  and  C_5 
REMARK    2  A    between atoms: C_10  and  C_11 
REMARK    3  A    between atoms: N_12  and  N_13 
REMARK       I    between atoms: N_13  and  C_14 
REMARK    4  A    between atoms: C_14  and  C_15 
REMARK    5  A    between atoms: C_16  and  O_17 
ROOT
HETATM    1  C   UNL     1     -43.402  58.868 -59.829  1.00  0.00     0.055 A 
HETATM    2  N   UNL     1     -43.478  59.947 -60.679  1.00  0.00    -0.354 N 
HETATM    3  H   UNL     1     -44.108  60.014 -61.465  1.00  0.00     0.166 HD
HETATM    4  C   UNL     1     -42.604  60.936 -60.302  1.00  0.00     0.043 A 
HETATM    5  C   UNL     1     -41.938  60.480 -59.164  1.00  0.00     0.005 A 
HETATM    6  C   UNL     1     -42.439  59.168 -58.869  1.00  0.00     0.023 A 
HETATM    7  C   UNL     1     -42.360  62.188 -60.880  1.00  0.00     0.030 A 
HETATM    8  C   UNL     1     -41.400  63.005 -60.276  1.00  0.00     0.002 A 
HETATM    9  C   UNL     1     -40.715  62.584 -59.141  1.00  0.00     0.001 A 
HETATM   10  C   UNL     1     -40.974  61.329 -58.577  1.00  0.00     0.014 A 
ENDROOT
BRANCH   6  11
HETATM   11  C   UNL     1     -42.044  58.267 -57.802  1.00  0.00     0.153 C 
HETATM   12  N   UNL     1     -42.900  57.916 -56.899  1.00  0.00    -0.183 NA
BRANCH  12  13
HETATM   13  N   UNL     1     -42.442  57.067 -55.932  1.00  0.00    -0.243 N 
HETATM   14  C   UNL     1     -42.545  55.699 -56.129  1.00  0.00     0.274 C 
HETATM   15  O   UNL     1     -42.988  55.156 -57.141  1.00  0.00    -0.266 OA
HETATM   16  H   UNL     1     -41.930  57.448 -55.146  1.00  0.00     0.192 HD
BRANCH  14  17
HETATM   17  C   UNL     1     -42.012  54.833 -55.043  1.00  0.00     0.066 A 
HETATM   18  C   UNL     1     -42.720  54.734 -53.834  1.00  0.00     0.081 A 
HETATM   19  C   UNL     1     -42.260  53.911 -52.808  1.00  0.00     0.037 A 
HETATM   20  C   UNL     1     -41.075  53.195 -52.967  1.00  0.00     0.003 A 
HETATM   21  C   UNL     1     -40.346  53.308 -54.149  1.00  0.00     0.001 A 
HETATM   22  C   UNL     1     -40.808  54.127 -55.185  1.00  0.00     0.020 A 
BRANCH  18  23
HETATM   23  O   UNL     1     -43.880  55.420 -53.587  1.00  0.00    -0.360 OA
HETATM   24  H   UNL     1     -44.569  54.764 -53.333  1.00  0.00     0.217 HD
ENDBRANCH  18  23
ENDBRANCH  14  17
ENDBRANCH  12  13
ENDBRANCH   6  11
BRANCH   1  25
HETATM   25  C   UNL     1     -44.261  57.701 -60.010  1.00  0.00    -0.009 A 
HETATM   26  C   UNL     1     -45.642  57.797 -59.796  1.00  0.00     0.014 A 
HETATM   27  C   UNL     1     -46.462  56.679 -59.965  1.00  0.00     0.001 A 
HETATM   28  C   UNL     1     -45.907  55.459 -60.350  1.00  0.00     0.000 A 
HETATM   29  C   UNL     1     -44.533  55.354 -60.563  1.00  0.00     0.001 A 
HETATM   30  C   UNL     1     -43.712  56.471 -60.392  1.00  0.00     0.014 A 
ENDBRANCH   1  25
TORSDOF 5
ENDMDL
MODEL 10
REMARK VINA RESULT:      -7.7      2.965      7.600
REMARK  5 active torsions:
REMARK  status: ('A' for Active; 'I' for Inactive)
REMARK    1  A    between atoms: C_4  and  C_5 
REMARK    2  A    between atoms: C_10  and  C_11 
REMARK    3  A    between atoms: N_12  and  N_13 
REMARK       I    between atoms: N_13  and  C_14 
REMARK    4  A    between atoms: C_14  and  C_15 
REMARK    5  A    between atoms: C_16  and  O_17 
ROOT
HETATM    1  C   UNL     1     -42.637  55.692 -56.223  1.00  0.00     0.055 A 
HETATM    2  N   UNL     1     -42.683  55.124 -57.475  1.00  0.00    -0.354 N 
HETATM    3  H   UNL     1     -42.395  54.180 -57.687  1.00  0.00     0.166 HD
HETATM    4  C   UNL     1     -43.200  56.000 -58.396  1.00  0.00     0.043 A 
HETATM    5  C   UNL     1     -43.501  57.179 -57.714  1.00  0.00     0.005 A 
HETATM    6  C   UNL     1     -43.137  56.985 -56.339  1.00  0.00     0.023 A 
HETATM    7  C   UNL     1     -43.423  55.833 -59.769  1.00  0.00     0.030 A 
HETATM    8  C   UNL     1     -43.971  56.909 -60.472  1.00  0.00     0.002 A 
HETATM    9  C   UNL     1     -44.283  58.101 -59.826  1.00  0.00     0.001 A 
HETATM   10  C   UNL     1     -44.054  58.248 -58.453  1.00  0.00     0.014 A 
ENDROOT
BRANCH   6  11
HETATM   11  C   UNL     1     -43.230  57.926 -55.237  1.00  0.00     0.153 C 
HETATM   12  N   UNL     1     -44.350  58.080 -54.609  1.00  0.00    -0.183 NA
BRANCH  12  13
HETATM   13  N   UNL     1     -44.347  58.985 -53.587  1.00  0.00    -0.243 N 
HETATM   14  C   UNL     1     -44.352  58.529 -52.278  1.00  0.00     0.274 C 
HETATM   15  O   UNL     1     -44.319  57.348 -51.935  1.00  0.00    -0.266 OA
HETATM   16  H   UNL     1     -44.221  59.967 -53.801  1.00  0.00     0.192 HD
BRANCH  14  17
HETATM   17  C   UNL     1     -44.332  59.570 -51.215  1.00  0.00     0.066 A 
HETATM   18  C   UNL     1     -45.406  59.651 -50.313  1.00  0.00     0.081 A 
HETATM   19  C   UNL     1     -45.404  60.598 -49.291  1.00  0.00     0.037 A 
HETATM   20  C   UNL     1     -44.342  61.492 -49.172  1.00  0.00     0.003 A 
HETATM   21  C   UNL     1     -43.284  61.444 -50.079  1.00  0.00     0.001 A 
HETATM   22  C   UNL     1     -43.279  60.489 -51.101  1.00  0.00     0.020 A 
BRANCH  18  23
HETATM   23  O   UNL     1     -46.499  58.827 -50.374  1.00  0.00    -0.360 OA
HETATM   24  H   UNL     1     -46.935  58.841 -49.491  1.00  0.00     0.217 HD
ENDBRANCH  18  23
ENDBRANCH  14  17
ENDBRANCH  12  13
ENDBRANCH   6  11
BRANCH   1  25
HETATM   25  C   UNL     1     -42.150  54.939 -55.069  1.00  0.00    -0.009 A 
HETATM   26  C   UNL     1     -42.982  54.717 -53.966  1.00  0.00     0.014 A 
HETATM   27  C   UNL     1     -42.514  54.002 -52.861  1.00  0.00     0.001 A 
HETATM   28  C   UNL     1     -41.212  53.504 -52.853  1.00  0.00     0.000 A 
HETATM   29  C   UNL     1     -40.375  53.723 -53.947  1.00  0.00     0.001 A 
HETATM   30  C   UNL     1     -40.842  54.439 -55.051  1.00  0.00     0.014 A 
ENDBRANCH   1  25
TORSDOF 5
ENDMDL
