MODEL 1
REMARK VINA RESULT:      -8.8      0.000      0.000
REMARK  5 active torsions:
REMARK  status: ('A' for Active; 'I' for Inactive)
REMARK    1  A    between atoms: C_9  and  N_10 
REMARK       I    between atoms: N_10  and  C_11 
REMARK    2  A    between atoms: C_11  and  C_12 
REMARK    3  A    between atoms: C_16  and  C_17 
REMARK    4  A    between atoms: C_17  and  O_18 
REMARK    5  A    between atoms: O_18  and  C_19 
ROOT
HETATM    1  C   UNL     1     -40.684  53.694 -53.461  1.00  0.00     0.153 A 
HETATM    2  O   UNL     1     -40.455  52.556 -54.191  1.00  0.00    -0.304 OA
HETATM    3  C   UNL     1     -40.122  51.572 -53.314  1.00  0.00     0.087 A 
HETATM    4  C   UNL     1     -40.150  52.054 -52.011  1.00  0.00     0.009 A 
HETATM    5  C   UNL     1     -40.518  53.433 -52.107  1.00  0.00     0.018 A 
HETATM    6  C   UNL     1     -39.797  50.262 -53.660  1.00  0.00     0.038 A 
HETATM    7  C   UNL     1     -39.484  49.398 -52.608  1.00  0.00     0.003 A 
HETATM    8  C   UNL     1     -39.505  49.838 -51.282  1.00  0.00     0.001 A 
HETATM    9  C   UNL     1     -39.839  51.163 -50.966  1.00  0.00     0.015 A 
ENDROOT
BRANCH   1  10
HETATM   10  C   UNL     1     -41.027  54.912 -54.177  1.00  0.00     0.280 C 
HETATM   11  N   UNL     1     -42.329  54.894 -54.655  1.00  0.00    -0.321 N 
HETATM   12  H   UNL     1     -42.852  54.061 -54.402  1.00  0.00     0.169 HD
HETATM   13  O   UNL     1     -40.235  55.833 -54.339  1.00  0.00    -0.265 OA
BRANCH  11  14
HETATM   14  C   UNL     1     -42.983  55.862 -55.436  1.00  0.00     0.035 A 
HETATM   15  C   UNL     1     -42.860  55.947 -56.825  1.00  0.00     0.039 A 
HETATM   16  C   UNL     1     -43.581  56.919 -57.505  1.00  0.00    -0.022 A 
HETATM   17  C   UNL     1     -43.638  57.146 -58.975  1.00  0.00     0.274 C 
HETATM   18  C   UNL     1     -44.414  57.811 -56.830  1.00  0.00    -0.025 A 
HETATM   19  N   UNL     1     -44.478  58.410 -59.147  1.00  0.00    -0.067 N 
HETATM   20  C   UNL     1     -45.454  58.339 -60.268  1.00  0.00     0.270 C 
HETATM   21  H   UNL     1     -43.812  59.168 -59.335  1.00  0.00     0.280 HD
HETATM   22  C   UNL     1     -45.102  58.716 -57.790  1.00  0.00     0.273 C 
HETATM   23  C   UNL     1     -44.542  57.752 -55.453  1.00  0.00     0.012 A 
HETATM   24  C   UNL     1     -43.823  56.770 -54.760  1.00  0.00     0.030 A 
ENDBRANCH  11  14
ENDBRANCH   1  10
BRANCH   5  25
HETATM   25  C   UNL     1     -40.713  54.394 -50.981  1.00  0.00     0.218 C 
BRANCH  25  26
HETATM   26  O   UNL     1     -42.109  54.560 -50.725  1.00  0.00    -0.347 OA
BRANCH  26  27
HETATM   27  C   UNL     1     -42.641  55.801 -50.932  1.00  0.00     0.069 A 
HETATM   28  C   UNL     1     -41.696  56.812 -51.131  1.00  0.00     0.037 A 
HETATM   29  C   UNL     1     -42.099  58.129 -51.362  1.00  0.00     0.003 A 
HETATM   30  C   UNL     1     -43.455  58.443 -51.395  1.00  0.00     0.000 A 
HETATM   31  C   UNL     1     -44.403  57.441 -51.194  1.00  0.00     0.003 A 
HETATM   32  C   UNL     1     -43.999  56.122 -50.962  1.00  0.00     0.037 A 
ENDBRANCH  26  27
ENDBRANCH  25  26
ENDBRANCH   5  25
TORSDOF 5
ENDMDL
MODEL 2
REMARK VINA RESULT:      -8.4      2.206      5.296
REMARK  5 active torsions:
REMARK  status: ('A' for Active; 'I' for Inactive)
REMARK    1  A    between atoms: C_9  and  N_10 
REMARK       I    between atoms: N_10  and  C_11 
REMARK    2  A    between atoms: C_11  and  C_12 
REMARK    3  A    between atoms: C_16  and  C_17 
REMARK    4  A    between atoms: C_17  and  O_18 
REMARK    5  A    between atoms: O_18  and  C_19 
ROOT
HETATM    1  C   UNL     1     -40.520  53.842 -51.620  1.00  0.00     0.153 A 
HETATM    2  O   UNL     1     -40.263  52.726 -50.865  1.00  0.00    -0.304 OA
HETATM    3  C   UNL     1     -40.018  51.702 -51.725  1.00  0.00     0.087 A 
HETATM    4  C   UNL     1     -40.094  52.146 -53.040  1.00  0.00     0.009 A 
HETATM    5  C   UNL     1     -40.417  53.538 -52.971  1.00  0.00     0.018 A 
HETATM    6  C   UNL     1     -39.730  50.392 -51.354  1.00  0.00     0.038 A 
HETATM    7  C   UNL     1     -39.506  49.484 -52.392  1.00  0.00     0.003 A 
HETATM    8  C   UNL     1     -39.566  49.887 -53.729  1.00  0.00     0.001 A 
HETATM    9  C   UNL     1     -39.856  51.216 -54.070  1.00  0.00     0.015 A 
ENDROOT
BRANCH   1  10
HETATM   10  C   UNL     1     -40.850  55.078 -50.928  1.00  0.00     0.280 C 
HETATM   11  N   UNL     1     -41.296  56.065 -51.793  1.00  0.00    -0.321 N 
HETATM   12  H   UNL     1     -41.363  55.768 -52.762  1.00  0.00     0.169 HD
HETATM   13  O   UNL     1     -40.727  55.213 -49.715  1.00  0.00    -0.265 OA
BRANCH  11  14
HETATM   14  C   UNL     1     -41.644  57.393 -51.494  1.00  0.00     0.035 A 
HETATM   15  C   UNL     1     -42.958  57.869 -51.509  1.00  0.00     0.039 A 
HETATM   16  C   UNL     1     -43.196  59.192 -51.160  1.00  0.00    -0.022 A 
HETATM   17  C   UNL     1     -44.512  59.881 -51.058  1.00  0.00     0.274 C 
HETATM   18  C   UNL     1     -42.155  60.049 -50.805  1.00  0.00    -0.025 A 
HETATM   19  N   UNL     1     -44.172  61.340 -50.760  1.00  0.00    -0.067 N 
HETATM   20  C   UNL     1     -45.045  61.967 -49.732  1.00  0.00     0.270 C 
HETATM   21  H   UNL     1     -44.289  61.843 -51.647  1.00  0.00     0.280 HD
HETATM   22  C   UNL     1     -42.683  61.390 -50.433  1.00  0.00     0.273 C 
HETATM   23  C   UNL     1     -40.846  59.601 -50.794  1.00  0.00     0.012 A 
HETATM   24  C   UNL     1     -40.597  58.267 -51.138  1.00  0.00     0.030 A 
ENDBRANCH  11  14
ENDBRANCH   1  10
BRANCH   5  25
HETATM   25  C   UNL     1     -40.585  54.482 -54.114  1.00  0.00     0.218 C 
BRANCH  25  26
HETATM   26  O   UNL     1     -41.974  54.734 -54.333  1.00  0.00    -0.347 OA
BRANCH  26  27
HETATM   27  C   UNL     1     -42.302  55.641 -55.300  1.00  0.00     0.069 A 
HETATM   28  C   UNL     1     -42.718  55.076 -56.509  1.00  0.00     0.037 A 
HETATM   29  C   UNL     1     -43.090  55.886 -57.584  1.00  0.00     0.003 A 
HETATM   30  C   UNL     1     -43.050  57.271 -57.454  1.00  0.00     0.000 A 
HETATM   31  C   UNL     1     -42.634  57.842 -56.253  1.00  0.00     0.003 A 
HETATM   32  C   UNL     1     -42.260  57.031 -55.176  1.00  0.00     0.037 A 
ENDBRANCH  26  27
ENDBRANCH  25  26
ENDBRANCH   5  25
TORSDOF 5
ENDMDL
MODEL 3
REMARK VINA RESULT:      -8.2      2.463      7.654
REMARK  5 active torsions:
REMARK  status: ('A' for Active; 'I' for Inactive)
REMARK    1  A    between atoms: C_9  and  N_10 
REMARK       I    between atoms: N_10  and  C_11 
REMARK    2  A    between atoms: C_11  and  C_12 
REMARK    3  A    between atoms: C_16  and  C_17 
REMARK    4  A    between atoms: C_17  and  O_18 
REMARK    5  A    between atoms: O_18  and  C_19 
ROOT
HETATM    1  C   UNL     1     -42.384  57.337 -56.446  1.00  0.00     0.153 A 
HETATM    2  O   UNL     1     -42.384  56.904 -57.747  1.00  0.00    -0.304 OA
HETATM    3  C   UNL     1     -42.253  58.001 -58.539  1.00  0.00     0.087 A 
HETATM    4  C   UNL     1     -42.147  59.148 -57.763  1.00  0.00     0.009 A 
HETATM    5  C   UNL     1     -42.229  58.716 -56.402  1.00  0.00     0.018 A 
HETATM    6  C   UNL     1     -42.226  57.989 -59.932  1.00  0.00     0.038 A 
HETATM    7  C   UNL     1     -42.081  59.226 -60.564  1.00  0.00     0.003 A 
HETATM    8  C   UNL     1     -41.965  60.405 -59.823  1.00  0.00     0.001 A 
HETATM    9  C   UNL     1     -41.993  60.384 -58.422  1.00  0.00     0.015 A 
ENDROOT
BRANCH   1  10
HETATM   10  C   UNL     1     -42.548  56.347 -55.393  1.00  0.00     0.280 C 
HETATM   11  N   UNL     1     -41.342  55.990 -54.812  1.00  0.00    -0.321 N 
HETATM   12  H   UNL     1     -40.540  56.495 -55.176  1.00  0.00     0.169 HD
HETATM   13  O   UNL     1     -43.641  55.884 -55.080  1.00  0.00    -0.265 OA
BRANCH  11  14
HETATM   14  C   UNL     1     -41.107  55.028 -53.814  1.00  0.00     0.035 A 
HETATM   15  C   UNL     1     -40.714  53.714 -54.083  1.00  0.00     0.039 A 
HETATM   16  C   UNL     1     -40.471  52.855 -53.020  1.00  0.00    -0.022 A 
HETATM   17  C   UNL     1     -39.996  51.446 -53.082  1.00  0.00     0.274 C 
HETATM   18  C   UNL     1     -40.619  53.274 -51.699  1.00  0.00    -0.025 A 
HETATM   19  N   UNL     1     -40.023  50.956 -51.636  1.00  0.00    -0.067 N 
HETATM   20  C   UNL     1     -38.838  50.142 -51.250  1.00  0.00     0.270 C 
HETATM   21  H   UNL     1     -40.865  50.376 -51.550  1.00  0.00     0.280 HD
HETATM   22  C   UNL     1     -40.255  52.181 -50.757  1.00  0.00     0.273 C 
HETATM   23  C   UNL     1     -41.018  54.567 -51.410  1.00  0.00     0.012 A 
HETATM   24  C   UNL     1     -41.259  55.442 -52.475  1.00  0.00     0.030 A 
ENDBRANCH  11  14
ENDBRANCH   1  10
BRANCH   5  25
HETATM   25  C   UNL     1     -42.140  59.567 -55.179  1.00  0.00     0.218 C 
BRANCH  25  26
HETATM   26  O   UNL     1     -41.040  59.141 -54.374  1.00  0.00    -0.347 OA
BRANCH  26  27
HETATM   27  C   UNL     1     -41.133  59.343 -53.026  1.00  0.00     0.069 A 
HETATM   28  C   UNL     1     -40.025  58.905 -52.295  1.00  0.00     0.037 A 
HETATM   29  C   UNL     1     -39.982  59.055 -50.907  1.00  0.00     0.003 A 
HETATM   30  C   UNL     1     -41.051  59.648 -50.242  1.00  0.00     0.000 A 
HETATM   31  C   UNL     1     -42.160  60.085 -50.963  1.00  0.00     0.003 A 
HETATM   32  C   UNL     1     -42.204  59.933 -52.353  1.00  0.00     0.037 A 
ENDBRANCH  26  27
ENDBRANCH  25  26
ENDBRANCH   5  25
TORSDOF 5
ENDMDL
MODEL 4
REMARK VINA RESULT:      -8.1      1.839      2.616
REMARK  5 active torsions:
REMARK  status: ('A' for Active; 'I' for Inactive)
REMARK    1  A    between atoms: C_9  and  N_10 
REMARK       I    between atoms: N_10  and  C_11 
REMARK    2  A    between atoms: C_11  and  C_12 
REMARK    3  A    between atoms: C_16  and  C_17 
REMARK    4  A    between atoms: C_17  and  O_18 
REMARK    5  A    between atoms: O_18  and  C_19 
ROOT
HETATM    1  C   UNL     1     -42.079  54.355 -54.259  1.00  0.00     0.153 A 
HETATM    2  O   UNL     1     -41.552  53.236 -54.851  1.00  0.00    -0.304 OA
HETATM    3  C   UNL     1     -40.852  52.564 -53.899  1.00  0.00     0.087 A 
HETATM    4  C   UNL     1     -40.934  53.228 -52.681  1.00  0.00     0.009 A 
HETATM    5  C   UNL     1     -41.734  54.390 -52.915  1.00  0.00     0.018 A 
HETATM    6  C   UNL     1     -40.150  51.379 -54.103  1.00  0.00     0.038 A 
HETATM    7  C   UNL     1     -39.494  50.843 -52.991  1.00  0.00     0.003 A 
HETATM    8  C   UNL     1     -39.554  51.473 -51.745  1.00  0.00     0.001 A 
HETATM    9  C   UNL     1     -40.272  52.664 -51.572  1.00  0.00     0.015 A 
ENDROOT
BRANCH   1  10
HETATM   10  C   UNL     1     -42.852  55.269 -55.085  1.00  0.00     0.280 C 
HETATM   11  N   UNL     1     -42.264  55.490 -56.320  1.00  0.00    -0.321 N 
HETATM   12  H   UNL     1     -41.414  54.957 -56.477  1.00  0.00     0.169 HD
HETATM   13  O   UNL     1     -43.898  55.784 -54.705  1.00  0.00    -0.265 OA
BRANCH  11  14
HETATM   14  C   UNL     1     -42.690  56.351 -57.346  1.00  0.00     0.035 A 
HETATM   15  C   UNL     1     -42.507  57.736 -57.319  1.00  0.00     0.039 A 
HETATM   16  C   UNL     1     -42.933  58.491 -58.404  1.00  0.00    -0.022 A 
HETATM   17  C   UNL     1     -42.786  59.959 -58.602  1.00  0.00     0.274 C 
HETATM   18  C   UNL     1     -43.543  57.896 -59.508  1.00  0.00    -0.025 A 
HETATM   19  N   UNL     1     -43.536  60.259 -59.898  1.00  0.00    -0.067 N 
HETATM   20  C   UNL     1     -42.834  61.217 -60.795  1.00  0.00     0.270 C 
HETATM   21  H   UNL     1     -44.435  60.667 -59.616  1.00  0.00     0.280 HD
HETATM   22  C   UNL     1     -43.859  58.916 -60.545  1.00  0.00     0.273 C 
HETATM   23  C   UNL     1     -43.744  56.528 -59.550  1.00  0.00     0.012 A 
HETATM   24  C   UNL     1     -43.312  55.759 -58.464  1.00  0.00     0.030 A 
ENDBRANCH  11  14
ENDBRANCH   1  10
BRANCH   5  25
HETATM   25  C   UNL     1     -42.141  55.420 -51.914  1.00  0.00     0.218 C 
BRANCH  25  26
HETATM   26  O   UNL     1     -41.142  56.438 -51.836  1.00  0.00    -0.347 OA
BRANCH  26  27
HETATM   27  C   UNL     1     -41.454  57.664 -52.353  1.00  0.00     0.069 A 
HETATM   28  C   UNL     1     -42.234  58.466 -51.514  1.00  0.00     0.037 A 
HETATM   29  C   UNL     1     -42.621  59.747 -51.912  1.00  0.00     0.003 A 
HETATM   30  C   UNL     1     -42.228  60.235 -53.154  1.00  0.00     0.000 A 
HETATM   31  C   UNL     1     -41.453  59.441 -53.997  1.00  0.00     0.003 A 
HETATM   32  C   UNL     1     -41.066  58.156 -53.600  1.00  0.00     0.037 A 
ENDBRANCH  26  27
ENDBRANCH  25  26
ENDBRANCH   5  25
TORSDOF 5
ENDMDL
MODEL 5
REMARK VINA RESULT:      -8.1      2.823      5.583
REMARK  5 active torsions:
REMARK  status: ('A' for Active; 'I' for Inactive)
REMARK    1  A    between atoms: C_9  and  N_10 
REMARK       I    between atoms: N_10  and  C_11 
REMARK    2  A    between atoms: C_11  and  C_12 
REMARK    3  A    between atoms: C_16  and  C_17 
REMARK    4  A    between atoms: C_17  and  O_18 
REMARK    5  A    between atoms: O_18  and  C_19 
ROOT
HETATM    1  C   UNL     1     -42.406  55.000 -52.110  1.00  0.00     0.153 A 
HETATM    2  O   UNL     1     -41.376  54.409 -51.424  1.00  0.00    -0.304 OA
HETATM    3  C   UNL     1     -40.892  53.406 -52.203  1.00  0.00     0.087 A 
HETATM    4  C   UNL     1     -41.587  53.349 -53.405  1.00  0.00     0.009 A 
HETATM    5  C   UNL     1     -42.568  54.388 -53.346  1.00  0.00     0.018 A 
HETATM    6  C   UNL     1     -39.849  52.551 -51.857  1.00  0.00     0.038 A 
HETATM    7  C   UNL     1     -39.497  51.582 -52.801  1.00  0.00     0.003 A 
HETATM    8  C   UNL     1     -40.164  51.492 -54.026  1.00  0.00     0.001 A 
HETATM    9  C   UNL     1     -41.209  52.370 -54.345  1.00  0.00     0.015 A 
ENDROOT
BRANCH   1  10
HETATM   10  C   UNL     1     -43.121  56.091 -51.469  1.00  0.00     0.280 C 
HETATM   11  N   UNL     1     -42.609  57.333 -51.813  1.00  0.00    -0.321 N 
HETATM   12  H   UNL     1     -41.847  57.296 -52.484  1.00  0.00     0.169 HD
HETATM   13  O   UNL     1     -44.062  55.910 -50.703  1.00  0.00    -0.265 OA
BRANCH  11  14
HETATM   14  C   UNL     1     -43.004  58.598 -51.346  1.00  0.00     0.035 A 
HETATM   15  C   UNL     1     -44.338  59.004 -51.248  1.00  0.00     0.039 A 
HETATM   16  C   UNL     1     -44.619  60.264 -50.737  1.00  0.00    -0.022 A 
HETATM   17  C   UNL     1     -45.958  60.868 -50.497  1.00  0.00     0.274 C 
HETATM   18  C   UNL     1     -43.603  61.127 -50.330  1.00  0.00    -0.025 A 
HETATM   19  N   UNL     1     -45.672  62.298 -50.046  1.00  0.00    -0.067 N 
HETATM   20  C   UNL     1     -46.521  62.758 -48.914  1.00  0.00     0.270 C 
HETATM   21  H   UNL     1     -45.857  62.893 -50.862  1.00  0.00     0.280 HD
HETATM   22  C   UNL     1     -44.173  62.388 -49.781  1.00  0.00     0.273 C 
HETATM   23  C   UNL     1     -42.275  60.750 -50.429  1.00  0.00     0.012 A 
HETATM   24  C   UNL     1     -41.982  59.479 -50.938  1.00  0.00     0.030 A 
ENDBRANCH  11  14
ENDBRANCH   1  10
BRANCH   5  25
HETATM   25  C   UNL     1     -43.552  54.759 -54.405  1.00  0.00     0.218 C 
BRANCH  25  26
HETATM   26  O   UNL     1     -42.967  55.711 -55.294  1.00  0.00    -0.347 OA
BRANCH  26  27
HETATM   27  C   UNL     1     -43.329  57.020 -55.139  1.00  0.00     0.069 A 
HETATM   28  C   UNL     1     -42.268  57.928 -55.212  1.00  0.00     0.037 A 
HETATM   29  C   UNL     1     -42.493  59.299 -55.077  1.00  0.00     0.003 A 
HETATM   30  C   UNL     1     -43.786  59.772 -54.868  1.00  0.00     0.000 A 
HETATM   31  C   UNL     1     -44.848  58.873 -54.792  1.00  0.00     0.003 A 
HETATM   32  C   UNL     1     -44.622  57.499 -54.926  1.00  0.00     0.037 A 
ENDBRANCH  26  27
ENDBRANCH  25  26
ENDBRANCH   5  25
TORSDOF 5
ENDMDL
MODEL 6
REMARK VINA RESULT:      -8.0      2.390      4.803
REMARK  5 active torsions:
REMARK  status: ('A' for Active; 'I' for Inactive)
REMARK    1  A    between atoms: C_9  and  N_10 
REMARK       I    between atoms: N_10  and  C_11 
REMARK    2  A    between atoms: C_11  and  C_12 
REMARK    3  A    between atoms: C_16  and  C_17 
REMARK    4  A    between atoms: C_17  and  O_18 
REMARK    5  A    between atoms: O_18  and  C_19 
ROOT
HETATM    1  C   UNL     1     -41.183  55.131 -52.418  1.00  0.00     0.153 A 
HETATM    2  O   UNL     1     -40.910  54.298 -51.364  1.00  0.00    -0.304 OA
HETATM    3  C   UNL     1     -40.444  53.130 -51.881  1.00  0.00     0.087 A 
HETATM    4  C   UNL     1     -40.392  53.202 -53.268  1.00  0.00     0.009 A 
HETATM    5  C   UNL     1     -40.869  54.504 -53.616  1.00  0.00     0.018 A 
HETATM    6  C   UNL     1     -40.068  52.015 -51.137  1.00  0.00     0.038 A 
HETATM    7  C   UNL     1     -39.611  50.909 -51.858  1.00  0.00     0.003 A 
HETATM    8  C   UNL     1     -39.536  50.938 -53.253  1.00  0.00     0.001 A 
HETATM    9  C   UNL     1     -39.919  52.078 -53.973  1.00  0.00     0.015 A 
ENDROOT
BRANCH   1  10
HETATM   10  C   UNL     1     -41.733  56.446 -52.128  1.00  0.00     0.280 C 
HETATM   11  N   UNL     1     -43.091  56.521 -52.397  1.00  0.00    -0.321 N 
HETATM   12  H   UNL     1     -43.501  55.648 -52.713  1.00  0.00     0.169 HD
HETATM   13  O   UNL     1     -41.051  57.374 -51.706  1.00  0.00    -0.265 OA
BRANCH  11  14
HETATM   14  C   UNL     1     -43.939  57.638 -52.295  1.00  0.00     0.035 A 
HETATM   15  C   UNL     1     -44.039  58.624 -53.281  1.00  0.00     0.039 A 
HETATM   16  C   UNL     1     -44.937  59.667 -53.097  1.00  0.00    -0.022 A 
HETATM   17  C   UNL     1     -45.239  60.781 -54.037  1.00  0.00     0.274 C 
HETATM   18  C   UNL     1     -45.728  59.752 -51.952  1.00  0.00    -0.025 A 
HETATM   19  N   UNL     1     -46.200  61.691 -53.275  1.00  0.00    -0.067 N 
HETATM   20  C   UNL     1     -47.329  62.204 -54.098  1.00  0.00     0.270 C 
HETATM   21  H   UNL     1     -45.639  62.486 -52.950  1.00  0.00     0.280 HD
HETATM   22  C   UNL     1     -46.632  60.932 -52.024  1.00  0.00     0.273 C 
HETATM   23  C   UNL     1     -45.636  58.792 -50.959  1.00  0.00     0.012 A 
HETATM   24  C   UNL     1     -44.738  57.734 -51.139  1.00  0.00     0.030 A 
ENDBRANCH  11  14
ENDBRANCH   1  10
BRANCH   5  25
HETATM   25  C   UNL     1     -40.984  55.085 -54.986  1.00  0.00     0.218 C 
BRANCH  25  26
HETATM   26  O   UNL     1     -42.358  55.320 -55.297  1.00  0.00    -0.347 OA
BRANCH  26  27
HETATM   27  C   UNL     1     -42.631  56.166 -56.335  1.00  0.00     0.069 A 
HETATM   28  C   UNL     1     -43.067  55.532 -57.502  1.00  0.00     0.037 A 
HETATM   29  C   UNL     1     -43.388  56.276 -58.639  1.00  0.00     0.003 A 
HETATM   30  C   UNL     1     -43.275  57.662 -58.615  1.00  0.00     0.000 A 
HETATM   31  C   UNL     1     -42.838  58.302 -57.456  1.00  0.00     0.003 A 
HETATM   32  C   UNL     1     -42.515  57.557 -56.317  1.00  0.00     0.037 A 
ENDBRANCH  26  27
ENDBRANCH  25  26
ENDBRANCH   5  25
TORSDOF 5
ENDMDL
MODEL 7
REMARK VINA RESULT:      -8.0      1.757      5.200
REMARK  5 active torsions:
REMARK  status: ('A' for Active; 'I' for Inactive)
REMARK    1  A    between atoms: C_9  and  N_10 
REMARK       I    between atoms: N_10  and  C_11 
REMARK    2  A    between atoms: C_11  and  C_12 
REMARK    3  A    between atoms: C_16  and  C_17 
REMARK    4  A    between atoms: C_17  and  O_18 
REMARK    5  A    between atoms: O_18  and  C_19 
ROOT
HETATM    1  C   UNL     1     -41.978  56.119 -54.500  1.00  0.00     0.153 A 
HETATM    2  O   UNL     1     -41.902  57.245 -53.721  1.00  0.00    -0.304 OA
HETATM    3  C   UNL     1     -41.609  56.843 -52.456  1.00  0.00     0.087 A 
HETATM    4  C   UNL     1     -41.473  55.462 -52.406  1.00  0.00     0.009 A 
HETATM    5  C   UNL     1     -41.710  54.991 -53.736  1.00  0.00     0.018 A 
HETATM    6  C   UNL     1     -41.462  57.688 -51.358  1.00  0.00     0.038 A 
HETATM    7  C   UNL     1     -41.157  57.078 -50.138  1.00  0.00     0.003 A 
HETATM    8  C   UNL     1     -41.005  55.693 -50.042  1.00  0.00     0.001 A 
HETATM    9  C   UNL     1     -41.157  54.870 -51.167  1.00  0.00     0.015 A 
ENDROOT
BRANCH   1  10
HETATM   10  C   UNL     1     -42.318  56.278 -55.905  1.00  0.00     0.280 C 
HETATM   11  N   UNL     1     -42.480  57.607 -56.262  1.00  0.00    -0.321 N 
HETATM   12  H   UNL     1     -42.300  58.264 -55.509  1.00  0.00     0.169 HD
HETATM   13  O   UNL     1     -42.453  55.327 -56.668  1.00  0.00    -0.265 OA
BRANCH  11  14
HETATM   14  C   UNL     1     -42.863  58.135 -57.507  1.00  0.00     0.035 A 
HETATM   15  C   UNL     1     -44.169  58.077 -58.001  1.00  0.00     0.039 A 
HETATM   16  C   UNL     1     -44.449  58.664 -59.228  1.00  0.00    -0.022 A 
HETATM   17  C   UNL     1     -45.770  58.764 -59.907  1.00  0.00     0.274 C 
HETATM   18  C   UNL     1     -43.455  59.297 -59.974  1.00  0.00    -0.025 A 
HETATM   19  N   UNL     1     -45.469  59.391 -61.267  1.00  0.00    -0.067 N 
HETATM   20  C   UNL     1     -46.451  60.427 -61.687  1.00  0.00     0.270 C 
HETATM   21  H   UNL     1     -45.491  58.619 -61.944  1.00  0.00     0.280 HD
HETATM   22  C   UNL     1     -44.025  59.878 -61.221  1.00  0.00     0.273 C 
HETATM   23  C   UNL     1     -42.154  59.355 -59.509  1.00  0.00     0.012 A 
HETATM   24  C   UNL     1     -41.864  58.772 -58.270  1.00  0.00     0.030 A 
ENDBRANCH  11  14
ENDBRANCH   1  10
BRANCH   5  25
HETATM   25  C   UNL     1     -41.655  53.579 -54.215  1.00  0.00     0.218 C 
BRANCH  25  26
HETATM   26  O   UNL     1     -40.302  53.122 -54.214  1.00  0.00    -0.347 OA
BRANCH  26  27
HETATM   27  C   UNL     1     -40.030  51.965 -53.538  1.00  0.00     0.069 A 
HETATM   28  C   UNL     1     -40.030  50.815 -54.332  1.00  0.00     0.037 A 
HETATM   29  C   UNL     1     -39.762  49.563 -53.774  1.00  0.00     0.003 A 
HETATM   30  C   UNL     1     -39.490  49.456 -52.414  1.00  0.00     0.000 A 
HETATM   31  C   UNL     1     -39.490  50.598 -51.615  1.00  0.00     0.003 A 
HETATM   32  C   UNL     1     -39.761  51.852 -52.174  1.00  0.00     0.037 A 
ENDBRANCH  26  27
ENDBRANCH  25  26
ENDBRANCH   5  25
TORSDOF 5
ENDMDL
MODEL 8
REMARK VINA RESULT:      -7.9      2.489      8.465
REMARK  5 active torsions:
REMARK  status: ('A' for Active; 'I' for Inactive)
REMARK    1  A    between atoms: C_9  and  N_10 
REMARK       I    between atoms: N_10  and  C_11 
REMARK    2  A    between atoms: C_11  and  C_12 
REMARK    3  A    between atoms: C_16  and  C_17 
REMARK    4  A    between atoms: C_17  and  O_18 
REMARK    5  A    between atoms: O_18  and  C_19 
ROOT
HETATM    1  C   UNL     1     -43.197  58.275 -52.969  1.00  0.00     0.153 A 
HETATM    2  O   UNL     1     -44.040  58.581 -51.932  1.00  0.00    -0.304 OA
HETATM    3  C   UNL     1     -44.905  59.530 -52.378  1.00  0.00     0.087 A 
HETATM    4  C   UNL     1     -44.646  59.833 -53.709  1.00  0.00     0.009 A 
HETATM    5  C   UNL     1     -43.538  59.015 -54.094  1.00  0.00     0.018 A 
HETATM    6  C   UNL     1     -45.912  60.120 -51.619  1.00  0.00     0.038 A 
HETATM    7  C   UNL     1     -46.700  61.077 -52.264  1.00  0.00     0.003 A 
HETATM    8  C   UNL     1     -46.480  61.409 -53.603  1.00  0.00     0.001 A 
HETATM    9  C   UNL     1     -45.459  60.794 -54.341  1.00  0.00     0.015 A 
ENDROOT
BRANCH   1  10
HETATM   10  C   UNL     1     -42.145  57.299 -52.735  1.00  0.00     0.280 C 
HETATM   11  N   UNL     1     -42.396  56.090 -53.365  1.00  0.00    -0.321 N 
HETATM   12  H   UNL     1     -43.246  56.081 -53.921  1.00  0.00     0.169 HD
HETATM   13  O   UNL     1     -41.161  57.537 -52.043  1.00  0.00    -0.265 OA
BRANCH  11  14
HETATM   14  C   UNL     1     -41.638  54.908 -53.314  1.00  0.00     0.035 A 
HETATM   15  C   UNL     1     -41.297  54.259 -52.125  1.00  0.00     0.039 A 
HETATM   16  C   UNL     1     -40.576  53.074 -52.190  1.00  0.00    -0.022 A 
HETATM   17  C   UNL     1     -40.160  52.201 -51.059  1.00  0.00     0.274 C 
HETATM   18  C   UNL     1     -40.183  52.529 -53.412  1.00  0.00    -0.025 A 
HETATM   19  N   UNL     1     -39.298  51.113 -51.695  1.00  0.00    -0.067 N 
HETATM   20  C   UNL     1     -39.556  49.747 -51.163  1.00  0.00     0.270 C 
HETATM   21  H   UNL     1     -38.325  51.369 -51.492  1.00  0.00     0.280 HD
HETATM   22  C   UNL     1     -39.468  51.240 -53.205  1.00  0.00     0.273 C 
HETATM   23  C   UNL     1     -40.501  53.161 -54.600  1.00  0.00     0.012 A 
HETATM   24  C   UNL     1     -41.233  54.352 -54.545  1.00  0.00     0.030 A 
ENDBRANCH  11  14
ENDBRANCH   1  10
BRANCH   5  25
HETATM   25  C   UNL     1     -42.893  58.946 -55.438  1.00  0.00     0.218 C 
BRANCH  25  26
HETATM   26  O   UNL     1     -42.968  57.612 -55.942  1.00  0.00    -0.347 OA
BRANCH  26  27
HETATM   27  C   UNL     1     -42.713  57.429 -57.272  1.00  0.00     0.069 A 
HETATM   28  C   UNL     1     -43.123  56.191 -57.777  1.00  0.00     0.037 A 
HETATM   29  C   UNL     1     -42.931  55.871 -59.122  1.00  0.00     0.003 A 
HETATM   30  C   UNL     1     -42.325  56.790 -59.973  1.00  0.00     0.000 A 
HETATM   31  C   UNL     1     -41.910  58.025 -59.477  1.00  0.00     0.003 A 
HETATM   32  C   UNL     1     -42.102  58.346 -58.129  1.00  0.00     0.037 A 
ENDBRANCH  26  27
ENDBRANCH  25  26
ENDBRANCH   5  25
TORSDOF 5
ENDMDL
MODEL 9
REMARK VINA RESULT:      -7.8      2.264      7.568
REMARK  5 active torsions:
REMARK  status: ('A' for Active; 'I' for Inactive)
REMARK    1  A    between atoms: C_9  and  N_10 
REMARK       I    between atoms: N_10  and  C_11 
REMARK    2  A    between atoms: C_11  and  C_12 
REMARK    3  A    between atoms: C_16  and  C_17 
REMARK    4  A    between atoms: C_17  and  O_18 
REMARK    5  A    between atoms: O_18  and  C_19 
ROOT
HETATM    1  C   UNL     1     -43.181  56.282 -57.077  1.00  0.00     0.153 A 
HETATM    2  O   UNL     1     -43.158  55.297 -58.031  1.00  0.00    -0.304 OA
HETATM    3  C   UNL     1     -44.065  55.636 -58.985  1.00  0.00     0.087 A 
HETATM    4  C   UNL     1     -44.668  56.847 -58.671  1.00  0.00     0.009 A 
HETATM    5  C   UNL     1     -44.091  57.268 -57.432  1.00  0.00     0.018 A 
HETATM    6  C   UNL     1     -44.355  54.884 -60.121  1.00  0.00     0.038 A 
HETATM    7  C   UNL     1     -45.321  55.408 -60.985  1.00  0.00     0.003 A 
HETATM    8  C   UNL     1     -45.950  56.625 -60.712  1.00  0.00     0.001 A 
HETATM    9  C   UNL     1     -45.633  57.359 -59.561  1.00  0.00     0.015 A 
ENDROOT
BRANCH   1  10
HETATM   10  C   UNL     1     -42.315  56.135 -55.918  1.00  0.00     0.280 C 
HETATM   11  N   UNL     1     -42.370  54.861 -55.375  1.00  0.00    -0.321 N 
HETATM   12  H   UNL     1     -42.969  54.218 -55.885  1.00  0.00     0.169 HD
HETATM   13  O   UNL     1     -41.629  57.053 -55.480  1.00  0.00    -0.265 OA
BRANCH  11  14
HETATM   14  C   UNL     1     -41.721  54.374 -54.227  1.00  0.00     0.035 A 
HETATM   15  C   UNL     1     -41.765  55.012 -52.985  1.00  0.00     0.039 A 
HETATM   16  C   UNL     1     -41.119  54.425 -51.905  1.00  0.00    -0.022 A 
HETATM   17  C   UNL     1     -41.088  54.903 -50.496  1.00  0.00     0.274 C 
HETATM   18  C   UNL     1     -40.426  53.223 -52.040  1.00  0.00    -0.025 A 
HETATM   19  N   UNL     1     -40.139  53.948 -49.776  1.00  0.00    -0.067 N 
HETATM   20  C   UNL     1     -40.609  53.531 -48.427  1.00  0.00     0.270 C 
HETATM   21  H   UNL     1     -39.252  54.454 -49.676  1.00  0.00     0.280 HD
HETATM   22  C   UNL     1     -39.867  52.790 -50.730  1.00  0.00     0.273 C 
HETATM   23  C   UNL     1     -40.360  52.580 -53.263  1.00  0.00     0.012 A 
HETATM   24  C   UNL     1     -41.013  53.162 -54.356  1.00  0.00     0.030 A 
ENDBRANCH  11  14
ENDBRANCH   1  10
BRANCH   5  25
HETATM   25  C   UNL     1     -44.384  58.525 -56.682  1.00  0.00     0.218 C 
BRANCH  25  26
HETATM   26  O   UNL     1     -45.411  58.283 -55.719  1.00  0.00    -0.347 OA
BRANCH  26  27
HETATM   27  C   UNL     1     -45.109  58.517 -54.407  1.00  0.00     0.069 A 
HETATM   28  C   UNL     1     -44.727  57.381 -53.688  1.00  0.00     0.037 A 
HETATM   29  C   UNL     1     -44.383  57.474 -52.337  1.00  0.00     0.003 A 
HETATM   30  C   UNL     1     -44.419  58.710 -51.698  1.00  0.00     0.000 A 
HETATM   31  C   UNL     1     -44.801  59.847 -52.407  1.00  0.00     0.003 A 
HETATM   32  C   UNL     1     -45.147  59.753 -53.760  1.00  0.00     0.037 A 
ENDBRANCH  26  27
ENDBRANCH  25  26
ENDBRANCH   5  25
TORSDOF 5
ENDMDL
MODEL 10
REMARK VINA RESULT:      -7.7      2.325      3.315
REMARK  5 active torsions:
REMARK  status: ('A' for Active; 'I' for Inactive)
REMARK    1  A    between atoms: C_9  and  N_10 
REMARK       I    between atoms: N_10  and  C_11 
REMARK    2  A    between atoms: C_11  and  C_12 
REMARK    3  A    between atoms: C_16  and  C_17 
REMARK    4  A    between atoms: C_17  and  O_18 
REMARK    5  A    between atoms: O_18  and  C_19 
ROOT
HETATM    1  C   UNL     1     -42.200  55.093 -55.470  1.00  0.00     0.153 A 
HETATM    2  O   UNL     1     -41.240  54.129 -55.640  1.00  0.00    -0.304 OA
HETATM    3  C   UNL     1     -40.966  53.610 -54.414  1.00  0.00     0.087 A 
HETATM    4  C   UNL     1     -41.755  54.216 -53.444  1.00  0.00     0.009 A 
HETATM    5  C   UNL     1     -42.560  55.177 -54.132  1.00  0.00     0.018 A 
HETATM    6  C   UNL     1     -40.029  52.613 -54.154  1.00  0.00     0.038 A 
HETATM    7  C   UNL     1     -39.896  52.213 -52.821  1.00  0.00     0.003 A 
HETATM    8  C   UNL     1     -40.674  52.790 -51.814  1.00  0.00     0.001 A 
HETATM    9  C   UNL     1     -41.611  53.791 -52.109  1.00  0.00     0.015 A 
ENDROOT
BRANCH   1  10
HETATM   10  C   UNL     1     -42.647  55.830 -56.641  1.00  0.00     0.280 C 
HETATM   11  N   UNL     1     -42.311  57.174 -56.579  1.00  0.00    -0.321 N 
HETATM   12  H   UNL     1     -41.776  57.430 -55.755  1.00  0.00     0.169 HD
HETATM   13  O   UNL     1     -43.261  55.304 -57.564  1.00  0.00    -0.265 OA
BRANCH  11  14
HETATM   14  C   UNL     1     -42.627  58.194 -57.493  1.00  0.00     0.035 A 
HETATM   15  C   UNL     1     -41.988  58.352 -58.726  1.00  0.00     0.039 A 
HETATM   16  C   UNL     1     -42.404  59.372 -59.571  1.00  0.00    -0.022 A 
HETATM   17  C   UNL     1     -41.902  59.680 -60.938  1.00  0.00     0.274 C 
HETATM   18  C   UNL     1     -43.434  60.240 -59.211  1.00  0.00    -0.025 A 
HETATM   19  N   UNL     1     -42.621  60.965 -61.343  1.00  0.00    -0.067 N 
HETATM   20  C   UNL     1     -43.101  60.972 -62.751  1.00  0.00     0.270 C 
HETATM   21  H   UNL     1     -41.937  61.721 -61.222  1.00  0.00     0.280 HD
HETATM   22  C   UNL     1     -43.714  61.207 -60.307  1.00  0.00     0.273 C 
HETATM   23  C   UNL     1     -44.073  60.108 -57.990  1.00  0.00     0.012 A 
HETATM   24  C   UNL     1     -43.665  59.078 -57.134  1.00  0.00     0.030 A 
ENDBRANCH  11  14
ENDBRANCH   1  10
BRANCH   5  25
HETATM   25  C   UNL     1     -43.597  56.073 -53.540  1.00  0.00     0.218 C 
BRANCH  25  26
HETATM   26  O   UNL     1     -43.171  57.433 -53.637  1.00  0.00    -0.347 OA
BRANCH  26  27
HETATM   27  C   UNL     1     -42.197  57.849 -52.774  1.00  0.00     0.069 A 
HETATM   28  C   UNL     1     -41.099  58.458 -53.387  1.00  0.00     0.037 A 
HETATM   29  C   UNL     1     -40.031  58.937 -52.625  1.00  0.00     0.003 A 
HETATM   30  C   UNL     1     -40.058  58.810 -51.239  1.00  0.00     0.000 A 
HETATM   31  C   UNL     1     -41.149  58.202 -50.620  1.00  0.00     0.003 A 
HETATM   32  C   UNL     1     -42.218  57.721 -51.384  1.00  0.00     0.037 A 
ENDBRANCH  26  27
ENDBRANCH  25  26
ENDBRANCH   5  25
TORSDOF 5
ENDMDL
