MODEL 1
REMARK VINA RESULT:      -8.1      0.000      0.000
REMARK  5 active torsions:
REMARK  status: ('A' for Active; 'I' for Inactive)
REMARK    1  A    between atoms: O_2  and  C_3 
REMARK    2  A    between atoms: C_6  and  C_7 
REMARK       I    between atoms: C_7  and  N_8 
REMARK    3  A    between atoms: N_8  and  C_9 
REMARK    4  A    between atoms: C_9  and  C_10 
REMARK       I    between atoms: C_10  and  N_11 
REMARK    5  A    between atoms: N_11  and  N_12 
ROOT
HETATM    1  C   UNL     1     -43.910  57.849 -53.832  1.00  0.00     0.255 C 
HETATM    2  N   UNL     1     -42.664  57.803 -54.427  1.00  0.00    -0.245 N 
HETATM    3  O   UNL     1     -44.850  58.543 -54.222  1.00  0.00    -0.270 OA
HETATM    4  H   UNL     1     -41.968  57.131 -54.093  1.00  0.00     0.192 HD
ENDROOT
BRANCH   1   5
HETATM    5  C   UNL     1     -44.090  56.887 -52.658  1.00  0.00     0.227 C 
BRANCH   5   6
HETATM    6  N   UNL     1     -43.486  55.566 -52.786  1.00  0.00    -0.348 N 
HETATM    7  C   UNL     1     -42.390  55.208 -52.031  1.00  0.00     0.252 C 
HETATM    8  O   UNL     1     -42.041  55.854 -51.049  1.00  0.00    -0.268 OA
HETATM    9  H   UNL     1     -43.848  54.954 -53.502  1.00  0.00     0.163 HD
BRANCH   7  10
HETATM   10  C   UNL     1     -41.612  54.005 -52.457  1.00  0.00     0.032 A 
HETATM   11  C   UNL     1     -41.619  53.520 -53.770  1.00  0.00     0.020 A 
HETATM   12  C   UNL     1     -40.793  52.447 -54.126  1.00  0.00     0.038 A 
HETATM   13  C   UNL     1     -39.938  51.862 -53.189  1.00  0.00     0.068 A 
HETATM   14  C   UNL     1     -39.942  52.328 -51.875  1.00  0.00     0.038 A 
HETATM   15  C   UNL     1     -40.773  53.395 -51.514  1.00  0.00     0.020 A 
BRANCH  13  16
HETATM   16  O   UNL     1     -39.157  50.851 -53.675  1.00  0.00    -0.356 OA
HETATM   17  C   UNL     1     -39.814  49.888 -54.492  1.00  0.00     0.210 C 
ENDBRANCH  13  16
ENDBRANCH   7  10
ENDBRANCH   5   6
ENDBRANCH   1   5
BRANCH   2  18
HETATM   18  N   UNL     1     -42.417  58.546 -55.543  1.00  0.00    -0.166 NA
HETATM   19  C   UNL     1     -42.453  57.933 -56.680  1.00  0.00     0.157 A 
HETATM   20  C   UNL     1     -42.685  56.447 -56.966  1.00  0.00     0.277 A 
HETATM   21  C   UNL     1     -42.255  58.565 -57.979  1.00  0.00     0.028 A 
HETATM   22  O   UNL     1     -42.874  55.595 -56.124  1.00  0.00    -0.266 OA
HETATM   23  N   UNL     1     -42.610  56.320 -58.338  1.00  0.00    -0.321 N 
HETATM   24  C   UNL     1     -42.360  57.554 -58.933  1.00  0.00     0.048 A 
HETATM   25  H   UNL     1     -42.725  55.441 -58.819  1.00  0.00     0.169 HD
HETATM   26  C   UNL     1     -42.223  57.826 -60.277  1.00  0.00     0.032 A 
HETATM   27  C   UNL     1     -41.977  59.156 -60.643  1.00  0.00     0.021 A 
HETATM   28  C   UNL     1     -41.877  60.170 -59.665  1.00  0.00     0.012 A 
HETATM   29 BR   UNL     1     -41.552  61.951 -60.210  1.00  0.00    -0.051 Br
HETATM   30  C   UNL     1     -42.015  59.883 -58.307  1.00  0.00     0.035 A 
ENDBRANCH   2  18
TORSDOF 5
ENDMDL
MODEL 2
REMARK VINA RESULT:      -8.0      1.966      2.395
REMARK  5 active torsions:
REMARK  status: ('A' for Active; 'I' for Inactive)
REMARK    1  A    between atoms: O_2  and  C_3 
REMARK    2  A    between atoms: C_6  and  C_7 
REMARK       I    between atoms: C_7  and  N_8 
REMARK    3  A    between atoms: N_8  and  C_9 
REMARK    4  A    between atoms: C_9  and  C_10 
REMARK       I    between atoms: C_10  and  N_11 
REMARK    5  A    between atoms: N_11  and  N_12 
ROOT
HETATM    1  C   UNL     1     -41.355  58.741 -53.853  1.00  0.00     0.255 C 
HETATM    2  N   UNL     1     -42.063  58.991 -55.013  1.00  0.00    -0.245 N 
HETATM    3  O   UNL     1     -40.304  59.300 -53.538  1.00  0.00    -0.270 OA
HETATM    4  H   UNL     1     -42.974  58.547 -55.155  1.00  0.00     0.192 HD
ENDROOT
BRANCH   1   5
HETATM    5  C   UNL     1     -42.021  57.745 -52.904  1.00  0.00     0.227 C 
BRANCH   5   6
HETATM    6  N   UNL     1     -41.345  56.470 -52.700  1.00  0.00    -0.348 N 
HETATM    7  C   UNL     1     -41.128  55.603 -53.751  1.00  0.00     0.252 C 
HETATM    8  O   UNL     1     -41.240  55.961 -54.918  1.00  0.00    -0.268 OA
HETATM    9  H   UNL     1     -41.114  56.208 -51.754  1.00  0.00     0.163 HD
BRANCH   7  10
HETATM   10  C   UNL     1     -40.767  54.190 -53.425  1.00  0.00     0.032 A 
HETATM   11  C   UNL     1     -40.484  53.231 -54.405  1.00  0.00     0.020 A 
HETATM   12  C   UNL     1     -40.058  51.952 -54.032  1.00  0.00     0.038 A 
HETATM   13  C   UNL     1     -39.886  51.620 -52.686  1.00  0.00     0.068 A 
HETATM   14  C   UNL     1     -40.186  52.564 -51.706  1.00  0.00     0.038 A 
HETATM   15  C   UNL     1     -40.621  53.842 -52.075  1.00  0.00     0.020 A 
BRANCH  13  16
HETATM   16  O   UNL     1     -39.428  50.351 -52.460  1.00  0.00    -0.356 OA
HETATM   17  C   UNL     1     -39.419  49.920 -51.103  1.00  0.00     0.210 C 
ENDBRANCH  13  16
ENDBRANCH   7  10
ENDBRANCH   5   6
ENDBRANCH   1   5
BRANCH   2  18
HETATM   18  N   UNL     1     -41.616  59.932 -55.892  1.00  0.00    -0.166 NA
HETATM   19  C   UNL     1     -41.894  59.753 -57.141  1.00  0.00     0.157 A 
HETATM   20  C   UNL     1     -42.624  58.583 -57.807  1.00  0.00     0.277 A 
HETATM   21  C   UNL     1     -41.536  60.668 -58.219  1.00  0.00     0.028 A 
HETATM   22  O   UNL     1     -43.063  57.613 -57.227  1.00  0.00    -0.266 OA
HETATM   23  N   UNL     1     -42.642  58.880 -59.154  1.00  0.00    -0.321 N 
HETATM   24  C   UNL     1     -42.008  60.095 -59.399  1.00  0.00     0.048 A 
HETATM   25  H   UNL     1     -43.063  58.279 -59.847  1.00  0.00     0.169 HD
HETATM   26  C   UNL     1     -41.831  60.721 -60.615  1.00  0.00     0.032 A 
HETATM   27  C   UNL     1     -41.162  61.952 -60.613  1.00  0.00     0.021 A 
HETATM   28  C   UNL     1     -40.693  62.520 -59.409  1.00  0.00     0.012 A 
HETATM   29 BR   UNL     1     -39.802  64.188 -59.460  1.00  0.00    -0.051 Br
HETATM   30  C   UNL     1     -40.876  61.878 -58.185  1.00  0.00     0.035 A 
ENDBRANCH   2  18
TORSDOF 5
ENDMDL
MODEL 3
REMARK VINA RESULT:      -7.9      4.762      9.405
REMARK  5 active torsions:
REMARK  status: ('A' for Active; 'I' for Inactive)
REMARK    1  A    between atoms: O_2  and  C_3 
REMARK    2  A    between atoms: C_6  and  C_7 
REMARK       I    between atoms: C_7  and  N_8 
REMARK    3  A    between atoms: N_8  and  C_9 
REMARK    4  A    between atoms: C_9  and  C_10 
REMARK       I    between atoms: C_10  and  N_11 
REMARK    5  A    between atoms: N_11  and  N_12 
ROOT
HETATM    1  C   UNL     1     -43.301  56.557 -56.698  1.00  0.00     0.255 C 
HETATM    2  N   UNL     1     -43.641  55.692 -55.675  1.00  0.00    -0.245 N 
HETATM    3  O   UNL     1     -42.275  56.476 -57.375  1.00  0.00    -0.270 OA
HETATM    4  H   UNL     1     -44.555  55.777 -55.223  1.00  0.00     0.192 HD
ENDROOT
BRANCH   1   5
HETATM    5  C   UNL     1     -44.355  57.620 -57.007  1.00  0.00     0.227 C 
BRANCH   5   6
HETATM    6  N   UNL     1     -45.297  57.327 -58.080  1.00  0.00    -0.348 N 
HETATM    7  C   UNL     1     -45.210  57.968 -59.298  1.00  0.00     0.252 C 
HETATM    8  O   UNL     1     -44.208  58.594 -59.630  1.00  0.00    -0.268 OA
HETATM    9  H   UNL     1     -46.060  56.701 -57.875  1.00  0.00     0.163 HD
BRANCH   7  10
HETATM   10  C   UNL     1     -46.392  57.896 -60.209  1.00  0.00     0.032 A 
HETATM   11  C   UNL     1     -47.013  59.032 -60.742  1.00  0.00     0.020 A 
HETATM   12  C   UNL     1     -48.055  58.893 -61.666  1.00  0.00     0.038 A 
HETATM   13  C   UNL     1     -48.474  57.628 -62.087  1.00  0.00     0.068 A 
HETATM   14  C   UNL     1     -47.872  56.494 -61.544  1.00  0.00     0.038 A 
HETATM   15  C   UNL     1     -46.836  56.629 -60.613  1.00  0.00     0.020 A 
BRANCH  13  16
HETATM   16  O   UNL     1     -49.472  57.634 -63.021  1.00  0.00    -0.356 OA
HETATM   17  C   UNL     1     -50.549  58.534 -62.783  1.00  0.00     0.210 C 
ENDBRANCH  13  16
ENDBRANCH   7  10
ENDBRANCH   5   6
ENDBRANCH   1   5
BRANCH   2  18
HETATM   18  N   UNL     1     -42.823  54.644 -55.373  1.00  0.00    -0.166 NA
HETATM   19  C   UNL     1     -42.251  54.657 -54.214  1.00  0.00     0.157 A 
HETATM   20  C   UNL     1     -42.314  55.727 -53.121  1.00  0.00     0.277 A 
HETATM   21  C   UNL     1     -41.378  53.609 -53.699  1.00  0.00     0.028 A 
HETATM   22  O   UNL     1     -42.938  56.765 -53.195  1.00  0.00    -0.266 OA
HETATM   23  N   UNL     1     -41.517  55.256 -52.098  1.00  0.00    -0.321 N 
HETATM   24  C   UNL     1     -40.968  54.020 -52.432  1.00  0.00     0.048 A 
HETATM   25  H   UNL     1     -41.367  55.760 -51.237  1.00  0.00     0.169 HD
HETATM   26  C   UNL     1     -40.127  53.241 -51.667  1.00  0.00     0.032 A 
HETATM   27  C   UNL     1     -39.705  52.022 -52.214  1.00  0.00     0.021 A 
HETATM   28  C   UNL     1     -40.131  51.618 -53.497  1.00  0.00     0.012 A 
HETATM   29 BR   UNL     1     -39.539  49.960 -54.189  1.00  0.00    -0.051 Br
HETATM   30  C   UNL     1     -40.981  52.415 -54.264  1.00  0.00     0.035 A 
ENDBRANCH   2  18
TORSDOF 5
ENDMDL
MODEL 4
REMARK VINA RESULT:      -7.8      3.896      9.217
REMARK  5 active torsions:
REMARK  status: ('A' for Active; 'I' for Inactive)
REMARK    1  A    between atoms: O_2  and  C_3 
REMARK    2  A    between atoms: C_6  and  C_7 
REMARK       I    between atoms: C_7  and  N_8 
REMARK    3  A    between atoms: N_8  and  C_9 
REMARK    4  A    between atoms: C_9  and  C_10 
REMARK       I    between atoms: C_10  and  N_11 
REMARK    5  A    between atoms: N_11  and  N_12 
ROOT
HETATM    1  C   UNL     1     -42.757  56.517 -56.984  1.00  0.00     0.255 C 
HETATM    2  N   UNL     1     -41.793  56.438 -55.997  1.00  0.00    -0.245 N 
HETATM    3  O   UNL     1     -43.230  55.551 -57.583  1.00  0.00    -0.270 OA
HETATM    4  H   UNL     1     -41.520  57.282 -55.487  1.00  0.00     0.192 HD
ENDROOT
BRANCH   1   5
HETATM    5  C   UNL     1     -43.283  57.928 -57.246  1.00  0.00     0.227 C 
BRANCH   5   6
HETATM    6  N   UNL     1     -42.532  58.751 -58.187  1.00  0.00    -0.348 N 
HETATM    7  C   UNL     1     -41.854  59.875 -57.767  1.00  0.00     0.252 C 
HETATM    8  O   UNL     1     -41.623  60.085 -56.580  1.00  0.00    -0.268 OA
HETATM    9  H   UNL     1     -42.593  58.516 -59.167  1.00  0.00     0.163 HD
BRANCH   7  10
HETATM   10  C   UNL     1     -41.417  60.856 -58.806  1.00  0.00     0.032 A 
HETATM   11  C   UNL     1     -41.923  60.859 -60.111  1.00  0.00     0.020 A 
HETATM   12  C   UNL     1     -41.544  61.864 -61.008  1.00  0.00     0.038 A 
HETATM   13  C   UNL     1     -40.680  62.887 -60.612  1.00  0.00     0.068 A 
HETATM   14  C   UNL     1     -40.157  62.877 -59.319  1.00  0.00     0.038 A 
HETATM   15  C   UNL     1     -40.527  61.868 -58.423  1.00  0.00     0.020 A 
BRANCH  13  16
HETATM   16  O   UNL     1     -40.423  63.827 -61.571  1.00  0.00    -0.356 OA
HETATM   17  C   UNL     1     -40.958  63.567 -62.864  1.00  0.00     0.210 C 
ENDBRANCH  13  16
ENDBRANCH   7  10
ENDBRANCH   5   6
ENDBRANCH   1   5
BRANCH   2  18
HETATM   18  N   UNL     1     -41.318  55.220 -55.608  1.00  0.00    -0.166 NA
HETATM   19  C   UNL     1     -41.146  55.031 -54.342  1.00  0.00     0.157 A 
HETATM   20  C   UNL     1     -41.350  56.012 -53.185  1.00  0.00     0.277 A 
HETATM   21  C   UNL     1     -40.685  53.787 -53.736  1.00  0.00     0.028 A 
HETATM   22  O   UNL     1     -41.717  57.162 -53.301  1.00  0.00    -0.266 OA
HETATM   23  N   UNL     1     -41.013  55.312 -52.045  1.00  0.00    -0.321 N 
HETATM   24  C   UNL     1     -40.625  54.013 -52.362  1.00  0.00     0.048 A 
HETATM   25  H   UNL     1     -41.051  55.711 -51.119  1.00  0.00     0.169 HD
HETATM   26  C   UNL     1     -40.223  53.020 -51.494  1.00  0.00     0.032 A 
HETATM   27  C   UNL     1     -39.883  51.779 -52.049  1.00  0.00     0.021 A 
HETATM   28  C   UNL     1     -39.952  51.565 -53.442  1.00  0.00     0.012 A 
HETATM   29 BR   UNL     1     -39.489  49.870 -54.142  1.00  0.00    -0.051 Br
HETATM   30  C   UNL     1     -40.358  52.577 -54.312  1.00  0.00     0.035 A 
ENDBRANCH   2  18
TORSDOF 5
ENDMDL
MODEL 5
REMARK VINA RESULT:      -7.7      2.544      2.873
REMARK  5 active torsions:
REMARK  status: ('A' for Active; 'I' for Inactive)
REMARK    1  A    between atoms: O_2  and  C_3 
REMARK    2  A    between atoms: C_6  and  C_7 
REMARK       I    between atoms: C_7  and  N_8 
REMARK    3  A    between atoms: N_8  and  C_9 
REMARK    4  A    between atoms: C_9  and  C_10 
REMARK       I    between atoms: C_10  and  N_11 
REMARK    5  A    between atoms: N_11  and  N_12 
ROOT
HETATM    1  C   UNL     1     -41.827  58.558 -54.729  1.00  0.00     0.255 C 
HETATM    2  N   UNL     1     -42.802  57.703 -55.208  1.00  0.00    -0.245 N 
HETATM    3  O   UNL     1     -41.668  59.721 -55.101  1.00  0.00    -0.270 OA
HETATM    4  H   UNL     1     -42.921  56.782 -54.780  1.00  0.00     0.192 HD
ENDROOT
BRANCH   1   5
HETATM    5  C   UNL     1     -40.969  57.976 -53.606  1.00  0.00     0.227 C 
BRANCH   5   6
HETATM    6  N   UNL     1     -40.641  56.558 -53.689  1.00  0.00    -0.348 N 
HETATM    7  C   UNL     1     -41.376  55.616 -53.001  1.00  0.00     0.252 C 
HETATM    8  O   UNL     1     -42.474  55.877 -52.520  1.00  0.00    -0.268 OA
HETATM    9  H   UNL     1     -39.811  56.299 -54.200  1.00  0.00     0.163 HD
BRANCH   7  10
HETATM   10  C   UNL     1     -40.784  54.254 -52.838  1.00  0.00     0.032 A 
HETATM   11  C   UNL     1     -40.495  53.693 -51.588  1.00  0.00     0.020 A 
HETATM   12  C   UNL     1     -40.033  52.376 -51.501  1.00  0.00     0.038 A 
HETATM   13  C   UNL     1     -39.876  51.595 -52.648  1.00  0.00     0.068 A 
HETATM   14  C   UNL     1     -40.143  52.154 -53.897  1.00  0.00     0.038 A 
HETATM   15  C   UNL     1     -40.597  53.475 -53.989  1.00  0.00     0.020 A 
BRANCH  13  16
HETATM   16  O   UNL     1     -39.456  50.314 -52.420  1.00  0.00    -0.356 OA
HETATM   17  C   UNL     1     -39.466  49.882 -51.063  1.00  0.00     0.210 C 
ENDBRANCH  13  16
ENDBRANCH   7  10
ENDBRANCH   5   6
ENDBRANCH   1   5
BRANCH   2  18
HETATM   18  N   UNL     1     -43.690  58.144 -56.145  1.00  0.00    -0.166 NA
HETATM   19  C   UNL     1     -43.933  57.359 -57.142  1.00  0.00     0.157 A 
HETATM   20  C   UNL     1     -43.318  55.995 -57.466  1.00  0.00     0.277 A 
HETATM   21  C   UNL     1     -44.878  57.638 -58.217  1.00  0.00     0.028 A 
HETATM   22  O   UNL     1     -42.472  55.434 -56.801  1.00  0.00    -0.266 OA
HETATM   23  N   UNL     1     -43.914  55.593 -58.644  1.00  0.00    -0.321 N 
HETATM   24  C   UNL     1     -44.825  56.549 -59.085  1.00  0.00     0.048 A 
HETATM   25  H   UNL     1     -43.699  54.721 -59.103  1.00  0.00     0.169 HD
HETATM   26  C   UNL     1     -45.612  56.502 -60.216  1.00  0.00     0.032 A 
HETATM   27  C   UNL     1     -46.464  57.588 -60.453  1.00  0.00     0.021 A 
HETATM   28  C   UNL     1     -46.509  58.681 -59.562  1.00  0.00     0.012 A 
HETATM   29 BR   UNL     1     -47.683  60.120 -59.923  1.00  0.00    -0.051 Br
HETATM   30  C   UNL     1     -45.708  58.721 -58.422  1.00  0.00     0.035 A 
ENDBRANCH   2  18
TORSDOF 5
ENDMDL
MODEL 6
REMARK VINA RESULT:      -7.5      4.119      8.178
REMARK  5 active torsions:
REMARK  status: ('A' for Active; 'I' for Inactive)
REMARK    1  A    between atoms: O_2  and  C_3 
REMARK    2  A    between atoms: C_6  and  C_7 
REMARK       I    between atoms: C_7  and  N_8 
REMARK    3  A    between atoms: N_8  and  C_9 
REMARK    4  A    between atoms: C_9  and  C_10 
REMARK       I    between atoms: C_10  and  N_11 
REMARK    5  A    between atoms: N_11  and  N_12 
ROOT
HETATM    1  C   UNL     1     -43.996  56.774 -55.226  1.00  0.00     0.255 C 
HETATM    2  N   UNL     1     -44.187  55.686 -54.395  1.00  0.00    -0.245 N 
HETATM    3  O   UNL     1     -43.030  56.924 -55.976  1.00  0.00    -0.270 OA
HETATM    4  H   UNL     1     -45.062  55.598 -53.872  1.00  0.00     0.192 HD
ENDROOT
BRANCH   1   5
HETATM    5  C   UNL     1     -45.141  57.787 -55.221  1.00  0.00     0.227 C 
BRANCH   5   6
HETATM    6  N   UNL     1     -45.343  58.552 -53.996  1.00  0.00    -0.348 N 
HETATM    7  C   UNL     1     -44.576  59.663 -53.716  1.00  0.00     0.252 C 
HETATM    8  O   UNL     1     -43.895  60.212 -54.576  1.00  0.00    -0.268 OA
HETATM    9  H   UNL     1     -46.005  58.194 -53.325  1.00  0.00     0.163 HD
BRANCH   7  10
HETATM   10  C   UNL     1     -44.580  60.177 -52.314  1.00  0.00     0.032 A 
HETATM   11  C   UNL     1     -45.740  60.252 -51.533  1.00  0.00     0.020 A 
HETATM   12  C   UNL     1     -45.660  60.653 -50.195  1.00  0.00     0.038 A 
HETATM   13  C   UNL     1     -44.428  60.960 -49.612  1.00  0.00     0.068 A 
HETATM   14  C   UNL     1     -43.273  60.906 -50.391  1.00  0.00     0.038 A 
HETATM   15  C   UNL     1     -43.350  60.515 -51.732  1.00  0.00     0.020 A 
BRANCH  13  16
HETATM   16  O   UNL     1     -44.485  61.298 -48.289  1.00  0.00    -0.356 OA
HETATM   17  C   UNL     1     -45.639  60.861 -47.579  1.00  0.00     0.210 C 
ENDBRANCH  13  16
ENDBRANCH   7  10
ENDBRANCH   5   6
ENDBRANCH   1   5
BRANCH   2  18
HETATM   18  N   UNL     1     -43.278  54.670 -54.387  1.00  0.00    -0.166 NA
HETATM   19  C   UNL     1     -42.512  54.573 -53.352  1.00  0.00     0.157 A 
HETATM   20  C   UNL     1     -42.432  55.483 -52.123  1.00  0.00     0.277 A 
HETATM   21  C   UNL     1     -41.510  53.533 -53.146  1.00  0.00     0.028 A 
HETATM   22  O   UNL     1     -43.109  56.473 -51.942  1.00  0.00    -0.266 OA
HETATM   23  N   UNL     1     -41.444  54.941 -51.327  1.00  0.00    -0.321 N 
HETATM   24  C   UNL     1     -40.904  53.803 -51.920  1.00  0.00     0.048 A 
HETATM   25  H   UNL     1     -41.169  55.337 -50.441  1.00  0.00     0.169 HD
HETATM   26  C   UNL     1     -39.903  52.993 -51.427  1.00  0.00     0.032 A 
HETATM   27  C   UNL     1     -39.526  51.891 -52.205  1.00  0.00     0.021 A 
HETATM   28  C   UNL     1     -40.152  51.629 -53.442  1.00  0.00     0.012 A 
HETATM   29 BR   UNL     1     -39.611  50.123 -54.452  1.00  0.00    -0.051 Br
HETATM   30  C   UNL     1     -41.162  52.455 -53.933  1.00  0.00     0.035 A 
ENDBRANCH   2  18
TORSDOF 5
ENDMDL
MODEL 7
REMARK VINA RESULT:      -7.5      5.535      9.147
REMARK  5 active torsions:
REMARK  status: ('A' for Active; 'I' for Inactive)
REMARK    1  A    between atoms: O_2  and  C_3 
REMARK    2  A    between atoms: C_6  and  C_7 
REMARK       I    between atoms: C_7  and  N_8 
REMARK    3  A    between atoms: N_8  and  C_9 
REMARK    4  A    between atoms: C_9  and  C_10 
REMARK       I    between atoms: C_10  and  N_11 
REMARK    5  A    between atoms: N_11  and  N_12 
ROOT
HETATM    1  C   UNL     1     -43.119  57.411 -51.711  1.00  0.00     0.255 C 
HETATM    2  N   UNL     1     -41.831  57.045 -52.054  1.00  0.00    -0.245 N 
HETATM    3  O   UNL     1     -43.978  56.639 -51.283  1.00  0.00    -0.270 OA
HETATM    4  H   UNL     1     -41.153  57.766 -52.315  1.00  0.00     0.192 HD
ENDROOT
BRANCH   1   5
HETATM    5  C   UNL     1     -43.404  58.909 -51.821  1.00  0.00     0.227 C 
BRANCH   5   6
HETATM    6  N   UNL     1     -43.655  59.629 -50.578  1.00  0.00    -0.348 N 
HETATM    7  C   UNL     1     -44.917  60.085 -50.263  1.00  0.00     0.252 C 
HETATM    8  O   UNL     1     -45.916  59.688 -50.854  1.00  0.00    -0.268 OA
HETATM    9  H   UNL     1     -42.861  59.851 -49.997  1.00  0.00     0.163 HD
BRANCH   7  10
HETATM   10  C   UNL     1     -45.039  61.107 -49.179  1.00  0.00     0.032 A 
HETATM   11  C   UNL     1     -45.581  60.821 -47.920  1.00  0.00     0.020 A 
HETATM   12  C   UNL     1     -45.577  61.797 -46.918  1.00  0.00     0.038 A 
HETATM   13  C   UNL     1     -45.014  63.055 -47.146  1.00  0.00     0.068 A 
HETATM   14  C   UNL     1     -44.491  63.351 -48.404  1.00  0.00     0.038 A 
HETATM   15  C   UNL     1     -44.502  62.381 -49.412  1.00  0.00     0.020 A 
BRANCH  13  16
HETATM   16  O   UNL     1     -45.039  63.901 -46.072  1.00  0.00    -0.356 OA
HETATM   17  C   UNL     1     -45.034  63.285 -44.788  1.00  0.00     0.210 C 
ENDBRANCH  13  16
ENDBRANCH   7  10
ENDBRANCH   5   6
ENDBRANCH   1   5
BRANCH   2  18
HETATM   18  N   UNL     1     -41.431  55.750 -51.904  1.00  0.00    -0.166 NA
HETATM   19  C   UNL     1     -41.091  55.111 -52.974  1.00  0.00     0.157 A 
HETATM   20  C   UNL     1     -41.123  55.584 -54.430  1.00  0.00     0.277 A 
HETATM   21  C   UNL     1     -40.601  53.738 -53.009  1.00  0.00     0.028 A 
HETATM   22  O   UNL     1     -41.491  56.679 -54.801  1.00  0.00    -0.266 OA
HETATM   23  N   UNL     1     -40.673  54.513 -55.175  1.00  0.00    -0.321 N 
HETATM   24  C   UNL     1     -40.367  53.434 -54.349  1.00  0.00     0.048 A 
HETATM   25  H   UNL     1     -40.588  54.535 -56.180  1.00  0.00     0.169 HD
HETATM   26  C   UNL     1     -39.890  52.197 -54.726  1.00  0.00     0.032 A 
HETATM   27  C   UNL     1     -39.648  51.263 -53.710  1.00  0.00     0.021 A 
HETATM   28  C   UNL     1     -39.887  51.587 -52.357  1.00  0.00     0.012 A 
HETATM   29 BR   UNL     1     -39.538  50.295 -51.021  1.00  0.00    -0.051 Br
HETATM   30  C   UNL     1     -40.372  52.841 -51.986  1.00  0.00     0.035 A 
ENDBRANCH   2  18
TORSDOF 5
ENDMDL
MODEL 8
REMARK VINA RESULT:      -7.4      3.699      7.802
REMARK  5 active torsions:
REMARK  status: ('A' for Active; 'I' for Inactive)
REMARK    1  A    between atoms: O_2  and  C_3 
REMARK    2  A    between atoms: C_6  and  C_7 
REMARK       I    between atoms: C_7  and  N_8 
REMARK    3  A    between atoms: N_8  and  C_9 
REMARK    4  A    between atoms: C_9  and  C_10 
REMARK       I    between atoms: C_10  and  N_11 
REMARK    5  A    between atoms: N_11  and  N_12 
ROOT
HETATM    1  C   UNL     1     -41.736  59.419 -53.532  1.00  0.00     0.255 C 
HETATM    2  N   UNL     1     -42.506  58.304 -53.261  1.00  0.00    -0.245 N 
HETATM    3  O   UNL     1     -40.697  59.715 -52.941  1.00  0.00    -0.270 OA
HETATM    4  H   UNL     1     -43.306  58.084 -53.860  1.00  0.00     0.192 HD
ENDROOT
BRANCH   1   5
HETATM    5  C   UNL     1     -42.226  60.257 -54.712  1.00  0.00     0.227 C 
BRANCH   5   6
HETATM    6  N   UNL     1     -42.285  59.600 -56.012  1.00  0.00    -0.348 N 
HETATM    7  C   UNL     1     -43.478  59.470 -56.691  1.00  0.00     0.252 C 
HETATM    8  O   UNL     1     -44.472  60.118 -56.381  1.00  0.00    -0.268 OA
HETATM    9  H   UNL     1     -41.439  59.173 -56.360  1.00  0.00     0.163 HD
BRANCH   7  10
HETATM   10  C   UNL     1     -43.536  58.491 -57.818  1.00  0.00     0.032 A 
HETATM   11  C   UNL     1     -44.110  57.220 -57.695  1.00  0.00     0.020 A 
HETATM   12  C   UNL     1     -44.219  56.389 -58.815  1.00  0.00     0.038 A 
HETATM   13  C   UNL     1     -43.783  56.818 -60.070  1.00  0.00     0.068 A 
HETATM   14  C   UNL     1     -43.193  58.075 -60.194  1.00  0.00     0.038 A 
HETATM   15  C   UNL     1     -43.073  58.906 -59.075  1.00  0.00     0.020 A 
BRANCH  13  16
HETATM   16  O   UNL     1     -43.984  55.926 -61.086  1.00  0.00    -0.356 OA
HETATM   17  C   UNL     1     -45.088  55.040 -60.934  1.00  0.00     0.210 C 
ENDBRANCH  13  16
ENDBRANCH   7  10
ENDBRANCH   5   6
ENDBRANCH   1   5
BRANCH   2  18
HETATM   18  N   UNL     1     -42.115  57.428 -52.292  1.00  0.00    -0.166 NA
HETATM   19  C   UNL     1     -41.642  56.290 -52.681  1.00  0.00     0.157 A 
HETATM   20  C   UNL     1     -41.500  55.742 -54.104  1.00  0.00     0.277 A 
HETATM   21  C   UNL     1     -41.138  55.246 -51.797  1.00  0.00     0.028 A 
HETATM   22  O   UNL     1     -41.831  56.327 -55.114  1.00  0.00    -0.266 OA
HETATM   23  N   UNL     1     -40.953  54.484 -53.960  1.00  0.00    -0.321 N 
HETATM   24  C   UNL     1     -40.740  54.190 -52.616  1.00  0.00     0.048 A 
HETATM   25  H   UNL     1     -40.746  53.878 -54.740  1.00  0.00     0.169 HD
HETATM   26  C   UNL     1     -40.208  53.036 -52.082  1.00  0.00     0.032 A 
HETATM   27  C   UNL     1     -40.083  52.970 -50.688  1.00  0.00     0.021 A 
HETATM   28  C   UNL     1     -40.488  54.049 -49.873  1.00  0.00     0.012 A 
HETATM   29 BR   UNL     1     -40.292  53.914 -47.996  1.00  0.00    -0.051 Br
HETATM   30  C   UNL     1     -41.026  55.212 -50.423  1.00  0.00     0.035 A 
ENDBRANCH   2  18
TORSDOF 5
ENDMDL
MODEL 9
REMARK VINA RESULT:      -7.1      5.054      7.304
REMARK  5 active torsions:
REMARK  status: ('A' for Active; 'I' for Inactive)
REMARK    1  A    between atoms: O_2  and  C_3 
REMARK    2  A    between atoms: C_6  and  C_7 
REMARK       I    between atoms: C_7  and  N_8 
REMARK    3  A    between atoms: N_8  and  C_9 
REMARK    4  A    between atoms: C_9  and  C_10 
REMARK       I    between atoms: C_10  and  N_11 
REMARK    5  A    between atoms: N_11  and  N_12 
ROOT
HETATM    1  C   UNL     1     -44.176  57.563 -51.811  1.00  0.00     0.255 C 
HETATM    2  N   UNL     1     -44.299  58.938 -51.874  1.00  0.00    -0.245 N 
HETATM    3  O   UNL     1     -44.425  56.881 -50.816  1.00  0.00    -0.270 OA
HETATM    4  H   UNL     1     -44.158  59.418 -52.766  1.00  0.00     0.192 HD
ENDROOT
BRANCH   1   5
HETATM    5  C   UNL     1     -43.774  56.900 -53.128  1.00  0.00     0.227 C 
BRANCH   5   6
HETATM    6  N   UNL     1     -42.637  55.989 -53.091  1.00  0.00    -0.348 N 
HETATM    7  C   UNL     1     -42.699  54.748 -53.689  1.00  0.00     0.252 C 
HETATM    8  O   UNL     1     -43.581  54.460 -54.491  1.00  0.00    -0.268 OA
HETATM    9  H   UNL     1     -41.834  56.264 -52.545  1.00  0.00     0.163 HD
BRANCH   7  10
HETATM   10  C   UNL     1     -41.661  53.740 -53.314  1.00  0.00     0.032 A 
HETATM   11  C   UNL     1     -41.141  53.628 -52.019  1.00  0.00     0.020 A 
HETATM   12  C   UNL     1     -40.242  52.600 -51.711  1.00  0.00     0.038 A 
HETATM   13  C   UNL     1     -39.871  51.662 -52.677  1.00  0.00     0.068 A 
HETATM   14  C   UNL     1     -40.371  51.781 -53.972  1.00  0.00     0.038 A 
HETATM   15  C   UNL     1     -41.262  52.813 -54.287  1.00  0.00     0.020 A 
BRANCH  13  16
HETATM   16  O   UNL     1     -39.019  50.688 -52.235  1.00  0.00    -0.356 OA
HETATM   17  C   UNL     1     -39.450  49.945 -51.099  1.00  0.00     0.210 C 
ENDBRANCH  13  16
ENDBRANCH   7  10
ENDBRANCH   5   6
ENDBRANCH   1   5
BRANCH   2  18
HETATM   18  N   UNL     1     -44.744  59.630 -50.787  1.00  0.00    -0.166 NA
HETATM   19  C   UNL     1     -44.250  60.808 -50.595  1.00  0.00     0.157 A 
HETATM   20  C   UNL     1     -43.171  61.543 -51.395  1.00  0.00     0.277 A 
HETATM   21  C   UNL     1     -44.631  61.710 -49.514  1.00  0.00     0.028 A 
HETATM   22  O   UNL     1     -42.599  61.098 -52.368  1.00  0.00    -0.266 OA
HETATM   23  N   UNL     1     -43.006  62.757 -50.761  1.00  0.00    -0.321 N 
HETATM   24  C   UNL     1     -43.856  62.859 -49.663  1.00  0.00     0.048 A 
HETATM   25  H   UNL     1     -42.350  63.458 -51.071  1.00  0.00     0.169 HD
HETATM   26  C   UNL     1     -43.979  63.920 -48.791  1.00  0.00     0.032 A 
HETATM   27  C   UNL     1     -44.914  63.796 -47.755  1.00  0.00     0.021 A 
HETATM   28  C   UNL     1     -45.694  62.627 -47.619  1.00  0.00     0.012 A 
HETATM   29 BR   UNL     1     -46.948  62.511 -46.207  1.00  0.00    -0.051 Br
HETATM   30  C   UNL     1     -45.561  61.559 -48.506  1.00  0.00     0.035 A 
ENDBRANCH   2  18
TORSDOF 5
ENDMDL
MODEL 10
REMARK VINA RESULT:      -7.1      3.825      9.127
REMARK  5 active torsions:
REMARK  status: ('A' for Active; 'I' for Inactive)
REMARK    1  A    between atoms: O_2  and  C_3 
REMARK    2  A    between atoms: C_6  and  C_7 
REMARK       I    between atoms: C_7  and  N_8 
REMARK    3  A    between atoms: N_8  and  C_9 
REMARK    4  A    between atoms: C_9  and  C_10 
REMARK       I    between atoms: C_10  and  N_11 
REMARK    5  A    between atoms: N_11  and  N_12 
ROOT
HETATM    1  C   UNL     1     -43.343  57.123 -54.849  1.00  0.00     0.255 C 
HETATM    2  N   UNL     1     -42.122  57.173 -54.203  1.00  0.00    -0.245 N 
HETATM    3  O   UNL     1     -44.064  56.127 -54.912  1.00  0.00    -0.270 OA
HETATM    4  H   UNL     1     -41.628  58.065 -54.121  1.00  0.00     0.192 HD
ENDROOT
BRANCH   1   5
HETATM    5  C   UNL     1     -43.804  58.457 -55.437  1.00  0.00     0.227 C 
BRANCH   5   6
HETATM    6  N   UNL     1     -43.207  58.864 -56.703  1.00  0.00    -0.348 N 
HETATM    7  C   UNL     1     -42.134  59.729 -56.738  1.00  0.00     0.252 C 
HETATM    8  O   UNL     1     -41.471  59.978 -55.737  1.00  0.00    -0.268 OA
HETATM    9  H   UNL     1     -43.656  58.556 -57.553  1.00  0.00     0.163 HD
BRANCH   7  10
HETATM   10  C   UNL     1     -41.805  60.380 -58.042  1.00  0.00     0.032 A 
HETATM   11  C   UNL     1     -42.089  59.792 -59.280  1.00  0.00     0.020 A 
HETATM   12  C   UNL     1     -41.844  60.497 -60.464  1.00  0.00     0.038 A 
HETATM   13  C   UNL     1     -41.339  61.798 -60.430  1.00  0.00     0.068 A 
HETATM   14  C   UNL     1     -41.036  62.381 -59.201  1.00  0.00     0.038 A 
HETATM   15  C   UNL     1     -41.271  61.676 -58.015  1.00  0.00     0.020 A 
BRANCH  13  16
HETATM   16  O   UNL     1     -41.184  62.388 -61.654  1.00  0.00    -0.356 OA
HETATM   17  C   UNL     1     -39.853  62.737 -62.018  1.00  0.00     0.210 C 
ENDBRANCH  13  16
ENDBRANCH   7  10
ENDBRANCH   5   6
ENDBRANCH   1   5
BRANCH   2  18
HETATM   18  N   UNL     1     -41.651  56.068 -53.557  1.00  0.00    -0.166 NA
HETATM   19  C   UNL     1     -41.603  56.116 -52.266  1.00  0.00     0.157 A 
HETATM   20  C   UNL     1     -41.955  57.276 -51.332  1.00  0.00     0.277 A 
HETATM   21  C   UNL     1     -41.169  55.023 -51.403  1.00  0.00     0.028 A 
HETATM   22  O   UNL     1     -42.345  58.368 -51.689  1.00  0.00    -0.266 OA
HETATM   23  N   UNL     1     -41.716  56.807 -50.056  1.00  0.00    -0.321 N 
HETATM   24  C   UNL     1     -41.256  55.493 -50.094  1.00  0.00     0.048 A 
HETATM   25  H   UNL     1     -41.860  57.362 -49.227  1.00  0.00     0.169 HD
HETATM   26  C   UNL     1     -40.915  54.691 -49.025  1.00  0.00     0.032 A 
HETATM   27  C   UNL     1     -40.481  53.390 -49.311  1.00  0.00     0.021 A 
HETATM   28  C   UNL     1     -40.401  52.928 -50.642  1.00  0.00     0.012 A 
HETATM   29 BR   UNL     1     -39.816  51.161 -50.974  1.00  0.00    -0.051 Br
HETATM   30  C   UNL     1     -40.747  53.748 -51.716  1.00  0.00     0.035 A 
ENDBRANCH   2  18
TORSDOF 5
ENDMDL
