MODEL 1
REMARK VINA RESULT:      -7.9      0.000      0.000
REMARK  5 active torsions:
REMARK  status: ('A' for Active; 'I' for Inactive)
REMARK    1  A    between atoms: C_2  and  C_3 
REMARK    2  A    between atoms: C_7  and  N_8 
REMARK    3  A    between atoms: N_8  and  C_9 
REMARK    4  A    between atoms: C_11  and  N_12 
REMARK    5  A    between atoms: C_14  and  N_15 
ROOT
HETATM    1  C   UNL     1     -42.382  54.853 -55.007  1.00  0.00     0.111 A 
HETATM    2  N   UNL     1     -41.987  55.973 -54.380  1.00  0.00    -0.206 NA
HETATM    3  C   UNL     1     -42.062  57.125 -55.051  1.00  0.00     0.202 A 
HETATM    4  N   UNL     1     -42.441  57.247 -56.318  1.00  0.00    -0.199 NA
HETATM    5  C   UNL     1     -42.809  56.107 -56.943  1.00  0.00     0.156 A 
HETATM    6  C   UNL     1     -42.802  54.876 -56.319  1.00  0.00     0.096 A 
ENDROOT
BRANCH   1   7
HETATM    7  N   UNL     1     -42.311  53.610 -54.360  1.00  0.00    -0.265 NA
HETATM    8  H   UNL     1     -42.862  53.641 -53.501  1.00  0.00     0.130 HD
BRANCH   7   9
HETATM    9  C   UNL     1     -40.967  53.099 -54.063  1.00  0.00     0.133 C 
HETATM   10  C   UNL     1     -40.623  53.249 -52.607  1.00  0.00     0.142 A 
HETATM   11  N   UNL     1     -39.954  52.283 -51.916  1.00  0.00    -0.253 N 
HETATM   12  N   UNL     1     -40.844  54.273 -51.804  1.00  0.00    -0.215 NA
HETATM   13  N   UNL     1     -39.716  52.649 -50.650  1.00  0.00    -0.155 NA
HETATM   14  C   UNL     1     -39.586  50.979 -52.419  1.00  0.00     0.153 C 
HETATM   15  C   UNL     1     -40.268  53.870 -50.620  1.00  0.00     0.151 A 
HETATM   16  C   UNL     1     -39.620  50.940 -53.944  1.00  0.00     0.024 C 
HETATM   17  C   UNL     1     -40.889  51.611 -54.480  1.00  0.00     0.029 C 
BRANCH  15  18
HETATM   18  C   UNL     1     -40.238  54.736 -49.403  1.00  0.00     0.051 C 
HETATM   19  C   UNL     1     -40.413  53.913 -48.127  1.00  0.00     0.018 C 
HETATM   20  C   UNL     1     -41.299  55.835 -49.483  1.00  0.00     0.018 C 
ENDBRANCH  15  18
ENDBRANCH   7   9
ENDBRANCH   1   7
BRANCH   3  21
HETATM   21  N   UNL     1     -41.668  58.271 -54.392  1.00  0.00    -0.271 NA
HETATM   22  H   UNL     1     -40.686  58.217 -54.164  1.00  0.00     0.127 HD
HETATM   23  H   UNL     1     -41.984  59.087 -54.897  1.00  0.00     0.127 HD
ENDBRANCH   3  21
BRANCH   5  24
HETATM   24  N   UNL     1     -43.201  56.188 -58.311  1.00  0.00    -0.227 N 
HETATM   25  N   UNL     1     -42.889  57.253 -59.101  1.00  0.00    -0.179 NA
HETATM   26  C   UNL     1     -43.444  56.964 -60.279  1.00  0.00     0.141 A 
HETATM   27  C   UNL     1     -44.108  55.729 -60.280  1.00  0.00     0.040 A 
HETATM   28  C   UNL     1     -43.936  55.248 -59.004  1.00  0.00     0.122 A 
ENDBRANCH   5  24
TORSDOF 5
ENDMDL
MODEL 2
REMARK VINA RESULT:      -7.8      1.396      3.385
REMARK  5 active torsions:
REMARK  status: ('A' for Active; 'I' for Inactive)
REMARK    1  A    between atoms: C_2  and  C_3 
REMARK    2  A    between atoms: C_7  and  N_8 
REMARK    3  A    between atoms: N_8  and  C_9 
REMARK    4  A    between atoms: C_11  and  N_12 
REMARK    5  A    between atoms: C_14  and  N_15 
ROOT
HETATM    1  C   UNL     1     -42.029  56.532 -54.175  1.00  0.00     0.111 A 
HETATM    2  N   UNL     1     -43.027  57.264 -53.656  1.00  0.00    -0.206 NA
HETATM    3  C   UNL     1     -43.951  57.743 -54.491  1.00  0.00     0.202 A 
HETATM    4  N   UNL     1     -43.933  57.603 -55.812  1.00  0.00    -0.199 NA
HETATM    5  C   UNL     1     -42.906  56.887 -56.322  1.00  0.00     0.156 A 
HETATM    6  C   UNL     1     -41.925  56.321 -55.533  1.00  0.00     0.096 A 
ENDROOT
BRANCH   1   7
HETATM    7  N   UNL     1     -41.018  56.015 -53.350  1.00  0.00    -0.265 NA
HETATM    8  H   UNL     1     -40.376  55.453 -53.910  1.00  0.00     0.130 HD
BRANCH   7   9
HETATM    9  C   UNL     1     -41.455  55.243 -52.181  1.00  0.00     0.133 C 
HETATM   10  C   UNL     1     -40.774  53.903 -52.111  1.00  0.00     0.142 A 
HETATM   11  N   UNL     1     -40.339  53.371 -50.934  1.00  0.00    -0.253 N 
HETATM   12  N   UNL     1     -40.531  53.046 -53.084  1.00  0.00    -0.215 NA
HETATM   13  N   UNL     1     -39.807  52.154 -51.104  1.00  0.00    -0.155 NA
HETATM   14  C   UNL     1     -40.361  54.025 -49.646  1.00  0.00     0.153 C 
HETATM   15  C   UNL     1     -39.946  51.987 -52.426  1.00  0.00     0.151 A 
HETATM   16  C   UNL     1     -41.328  55.206 -49.636  1.00  0.00     0.024 C 
HETATM   17  C   UNL     1     -41.162  56.058 -50.898  1.00  0.00     0.029 C 
BRANCH  15  18
HETATM   18  C   UNL     1     -39.522  50.738 -53.128  1.00  0.00     0.051 C 
HETATM   19  C   UNL     1     -40.331  50.510 -54.404  1.00  0.00     0.018 C 
HETATM   20  C   UNL     1     -39.624  49.525 -52.202  1.00  0.00     0.018 C 
ENDBRANCH  15  18
ENDBRANCH   7   9
ENDBRANCH   1   7
BRANCH   3  21
HETATM   21  N   UNL     1     -44.980  58.481 -53.945  1.00  0.00    -0.271 NA
HETATM   22  H   UNL     1     -44.883  58.519 -52.941  1.00  0.00     0.127 HD
HETATM   23  H   UNL     1     -45.076  59.359 -54.437  1.00  0.00     0.127 HD
ENDBRANCH   3  21
BRANCH   5  24
HETATM   24  N   UNL     1     -42.833  56.731 -57.736  1.00  0.00    -0.227 N 
HETATM   25  N   UNL     1     -42.208  57.635 -58.541  1.00  0.00    -0.179 NA
HETATM   26  C   UNL     1     -42.376  57.152 -59.774  1.00  0.00     0.141 A 
HETATM   27  C   UNL     1     -43.093  55.947 -59.792  1.00  0.00     0.040 A 
HETATM   28  C   UNL     1     -43.375  55.696 -58.471  1.00  0.00     0.122 A 
ENDBRANCH   5  24
TORSDOF 5
ENDMDL
MODEL 3
REMARK VINA RESULT:      -7.7      2.045      7.761
REMARK  5 active torsions:
REMARK  status: ('A' for Active; 'I' for Inactive)
REMARK    1  A    between atoms: C_2  and  C_3 
REMARK    2  A    between atoms: C_7  and  N_8 
REMARK    3  A    between atoms: N_8  and  C_9 
REMARK    4  A    between atoms: C_11  and  N_12 
REMARK    5  A    between atoms: C_14  and  N_15 
ROOT
HETATM    1  C   UNL     1     -43.091  55.737 -52.874  1.00  0.00     0.111 A 
HETATM    2  N   UNL     1     -42.815  56.359 -51.717  1.00  0.00    -0.206 NA
HETATM    3  C   UNL     1     -41.818  55.881 -50.971  1.00  0.00     0.202 A 
HETATM    4  N   UNL     1     -41.107  54.794 -51.253  1.00  0.00    -0.199 NA
HETATM    5  C   UNL     1     -41.416  54.163 -52.407  1.00  0.00     0.156 A 
HETATM    6  C   UNL     1     -42.405  54.606 -53.262  1.00  0.00     0.096 A 
ENDROOT
BRANCH   1   7
HETATM    7  N   UNL     1     -44.139  56.183 -53.693  1.00  0.00    -0.265 NA
HETATM    8  H   UNL     1     -44.385  55.450 -54.361  1.00  0.00     0.130 HD
BRANCH   7   9
HETATM    9  C   UNL     1     -43.922  57.446 -54.409  1.00  0.00     0.133 C 
HETATM   10  C   UNL     1     -43.864  57.242 -55.898  1.00  0.00     0.142 A 
HETATM   11  N   UNL     1     -44.444  58.111 -56.772  1.00  0.00    -0.253 N 
HETATM   12  N   UNL     1     -43.254  56.291 -56.580  1.00  0.00    -0.215 NA
HETATM   13  N   UNL     1     -44.227  57.756 -58.046  1.00  0.00    -0.155 NA
HETATM   14  C   UNL     1     -45.263  59.249 -56.423  1.00  0.00     0.153 C 
HETATM   15  C   UNL     1     -43.493  56.645 -57.889  1.00  0.00     0.151 A 
HETATM   16  C   UNL     1     -45.057  59.658 -54.967  1.00  0.00     0.024 C 
HETATM   17  C   UNL     1     -45.060  58.432 -54.049  1.00  0.00     0.029 C 
BRANCH  15  18
HETATM   18  C   UNL     1     -42.957  55.866 -59.046  1.00  0.00     0.051 C 
HETATM   19  C   UNL     1     -42.238  56.772 -60.045  1.00  0.00     0.018 C 
HETATM   20  C   UNL     1     -44.067  55.075 -59.739  1.00  0.00     0.018 C 
ENDBRANCH  15  18
ENDBRANCH   7   9
ENDBRANCH   1   7
BRANCH   3  21
HETATM   21  N   UNL     1     -41.534  56.537 -49.792  1.00  0.00    -0.271 NA
HETATM   22  H   UNL     1     -41.721  55.930 -49.006  1.00  0.00     0.127 HD
HETATM   23  H   UNL     1     -40.619  56.962 -49.843  1.00  0.00     0.127 HD
ENDBRANCH   3  21
BRANCH   5  24
HETATM   24  N   UNL     1     -40.695  52.978 -52.738  1.00  0.00    -0.227 N 
HETATM   25  N   UNL     1     -39.983  52.272 -51.816  1.00  0.00    -0.179 NA
HETATM   26  C   UNL     1     -39.446  51.268 -52.511  1.00  0.00     0.141 A 
HETATM   27  C   UNL     1     -39.797  51.298 -53.869  1.00  0.00     0.040 A 
HETATM   28  C   UNL     1     -40.600  52.405 -53.990  1.00  0.00     0.122 A 
ENDBRANCH   5  24
TORSDOF 5
ENDMDL
MODEL 4
REMARK VINA RESULT:      -7.7      1.961      7.676
REMARK  5 active torsions:
REMARK  status: ('A' for Active; 'I' for Inactive)
REMARK    1  A    between atoms: C_2  and  C_3 
REMARK    2  A    between atoms: C_7  and  N_8 
REMARK    3  A    between atoms: N_8  and  C_9 
REMARK    4  A    between atoms: C_11  and  N_12 
REMARK    5  A    between atoms: C_14  and  N_15 
ROOT
HETATM    1  C   UNL     1     -41.558  55.000 -50.369  1.00  0.00     0.111 A 
HETATM    2  N   UNL     1     -41.335  54.967 -49.045  1.00  0.00    -0.206 NA
HETATM    3  C   UNL     1     -40.673  53.920 -48.549  1.00  0.00     0.202 A 
HETATM    4  N   UNL     1     -40.264  52.871 -49.254  1.00  0.00    -0.199 NA
HETATM    5  C   UNL     1     -40.520  52.907 -50.580  1.00  0.00     0.156 A 
HETATM    6  C   UNL     1     -41.164  53.965 -51.189  1.00  0.00     0.096 A 
ENDROOT
BRANCH   1   7
HETATM    7  N   UNL     1     -42.263  56.066 -50.948  1.00  0.00    -0.265 NA
HETATM    8  H   UNL     1     -42.966  55.699 -51.592  1.00  0.00     0.130 HD
BRANCH   7   9
HETATM    9  C   UNL     1     -41.463  57.093 -51.627  1.00  0.00     0.133 C 
HETATM   10  C   UNL     1     -41.784  57.169 -53.095  1.00  0.00     0.142 A 
HETATM   11  N   UNL     1     -41.873  58.357 -53.757  1.00  0.00    -0.253 N 
HETATM   12  N   UNL     1     -41.978  56.186 -53.953  1.00  0.00    -0.215 NA
HETATM   13  N   UNL     1     -42.122  58.184 -55.061  1.00  0.00    -0.155 NA
HETATM   14  C   UNL     1     -41.788  59.671 -53.161  1.00  0.00     0.153 C 
HETATM   15  C   UNL     1     -42.173  56.847 -55.144  1.00  0.00     0.151 A 
HETATM   16  C   UNL     1     -41.143  59.616 -51.778  1.00  0.00     0.024 C 
HETATM   17  C   UNL     1     -41.719  58.461 -50.953  1.00  0.00     0.029 C 
BRANCH  15  18
HETATM   18  C   UNL     1     -42.402  56.131 -56.436  1.00  0.00     0.051 C 
HETATM   19  C   UNL     1     -43.271  56.953 -57.386  1.00  0.00     0.018 C 
HETATM   20  C   UNL     1     -43.021  54.753 -56.199  1.00  0.00     0.018 C 
ENDBRANCH  15  18
ENDBRANCH   7   9
ENDBRANCH   1   7
BRANCH   3  21
HETATM   21  N   UNL     1     -40.437  53.903 -47.190  1.00  0.00    -0.271 NA
HETATM   22  H   UNL     1     -40.780  53.041 -46.791  1.00  0.00     0.127 HD
HETATM   23  H   UNL     1     -39.476  54.153 -47.002  1.00  0.00     0.127 HD
ENDBRANCH   3  21
BRANCH   5  24
HETATM   24  N   UNL     1     -40.120  51.792 -51.372  1.00  0.00    -0.227 N 
HETATM   25  N   UNL     1     -39.870  50.565 -50.836  1.00  0.00    -0.179 NA
HETATM   26  C   UNL     1     -39.507  49.816 -51.879  1.00  0.00     0.141 A 
HETATM   27  C   UNL     1     -39.520  50.526 -53.088  1.00  0.00     0.040 A 
HETATM   28  C   UNL     1     -39.918  51.793 -52.738  1.00  0.00     0.122 A 
ENDBRANCH   5  24
TORSDOF 5
ENDMDL
MODEL 5
REMARK VINA RESULT:      -7.5      1.862      3.796
REMARK  5 active torsions:
REMARK  status: ('A' for Active; 'I' for Inactive)
REMARK    1  A    between atoms: C_2  and  C_3 
REMARK    2  A    between atoms: C_7  and  N_8 
REMARK    3  A    between atoms: N_8  and  C_9 
REMARK    4  A    between atoms: C_11  and  N_12 
REMARK    5  A    between atoms: C_14  and  N_15 
ROOT
HETATM    1  C   UNL     1     -41.928  58.240 -54.951  1.00  0.00     0.111 A 
HETATM    2  N   UNL     1     -41.657  59.521 -55.249  1.00  0.00    -0.206 NA
HETATM    3  C   UNL     1     -41.977  59.962 -56.467  1.00  0.00     0.202 A 
HETATM    4  N   UNL     1     -42.493  59.215 -57.438  1.00  0.00    -0.199 NA
HETATM    5  C   UNL     1     -42.735  57.922 -57.131  1.00  0.00     0.156 A 
HETATM    6  C   UNL     1     -42.472  57.386 -55.886  1.00  0.00     0.096 A 
ENDROOT
BRANCH   1   7
HETATM    7  N   UNL     1     -41.599  57.714 -53.693  1.00  0.00    -0.265 NA
HETATM    8  H   UNL     1     -40.672  57.287 -53.734  1.00  0.00     0.130 HD
BRANCH   7   9
HETATM    9  C   UNL     1     -42.552  56.764 -53.108  1.00  0.00     0.133 C 
HETATM   10  C   UNL     1     -41.899  55.449 -52.780  1.00  0.00     0.142 A 
HETATM   11  N   UNL     1     -42.188  54.760 -51.641  1.00  0.00    -0.253 N 
HETATM   12  N   UNL     1     -41.033  54.754 -53.493  1.00  0.00    -0.215 NA
HETATM   13  N   UNL     1     -41.526  53.597 -51.579  1.00  0.00    -0.155 NA
HETATM   14  C   UNL     1     -43.041  55.213 -50.566  1.00  0.00     0.153 C 
HETATM   15  C   UNL     1     -40.836  53.626 -52.728  1.00  0.00     0.151 A 
HETATM   16  C   UNL     1     -43.952  56.351 -51.019  1.00  0.00     0.024 C 
HETATM   17  C   UNL     1     -43.168  57.386 -51.832  1.00  0.00     0.029 C 
BRANCH  15  18
HETATM   18  C   UNL     1     -39.942  52.508 -53.157  1.00  0.00     0.051 C 
HETATM   19  C   UNL     1     -40.583  51.670 -54.262  1.00  0.00     0.018 C 
HETATM   20  C   UNL     1     -39.556  51.625 -51.969  1.00  0.00     0.018 C 
ENDBRANCH  15  18
ENDBRANCH   7   9
ENDBRANCH   1   7
BRANCH   3  21
HETATM   21  N   UNL     1     -41.708  61.283 -56.757  1.00  0.00    -0.271 NA
HETATM   22  H   UNL     1     -41.328  61.744 -55.943  1.00  0.00     0.127 HD
HETATM   23  H   UNL     1     -41.181  61.349 -57.617  1.00  0.00     0.127 HD
ENDBRANCH   3  21
BRANCH   5  24
HETATM   24  N   UNL     1     -43.266  57.078 -58.149  1.00  0.00    -0.227 N 
HETATM   25  N   UNL     1     -43.949  57.566 -59.222  1.00  0.00    -0.179 NA
HETATM   26  C   UNL     1     -44.293  56.480 -59.916  1.00  0.00     0.141 A 
HETATM   27  C   UNL     1     -43.845  55.290 -59.323  1.00  0.00     0.040 A 
HETATM   28  C   UNL     1     -43.186  55.700 -58.190  1.00  0.00     0.122 A 
ENDBRANCH   5  24
TORSDOF 5
ENDMDL
MODEL 6
REMARK VINA RESULT:      -7.4      1.816      8.240
REMARK  5 active torsions:
REMARK  status: ('A' for Active; 'I' for Inactive)
REMARK    1  A    between atoms: C_2  and  C_3 
REMARK    2  A    between atoms: C_7  and  N_8 
REMARK    3  A    between atoms: N_8  and  C_9 
REMARK    4  A    between atoms: C_11  and  N_12 
REMARK    5  A    between atoms: C_14  and  N_15 
ROOT
HETATM    1  C   UNL     1     -42.843  54.289 -53.632  1.00  0.00     0.111 A 
HETATM    2  N   UNL     1     -42.047  53.529 -54.401  1.00  0.00    -0.206 NA
HETATM    3  C   UNL     1     -41.038  52.885 -53.812  1.00  0.00     0.202 A 
HETATM    4  N   UNL     1     -40.717  52.981 -52.526  1.00  0.00    -0.199 NA
HETATM    5  C   UNL     1     -41.512  53.772 -51.771  1.00  0.00     0.156 A 
HETATM    6  C   UNL     1     -42.601  54.446 -52.284  1.00  0.00     0.096 A 
ENDROOT
BRANCH   1   7
HETATM    7  N   UNL     1     -43.910  55.004 -54.196  1.00  0.00    -0.265 NA
HETATM    8  H   UNL     1     -44.256  54.507 -55.018  1.00  0.00     0.130 HD
BRANCH   7   9
HETATM    9  C   UNL     1     -43.652  56.406 -54.543  1.00  0.00     0.133 C 
HETATM   10  C   UNL     1     -43.635  56.618 -56.032  1.00  0.00     0.142 A 
HETATM   11  N   UNL     1     -44.194  57.716 -56.615  1.00  0.00    -0.253 N 
HETATM   12  N   UNL     1     -43.085  55.871 -56.969  1.00  0.00    -0.215 NA
HETATM   13  N   UNL     1     -44.021  57.719 -57.943  1.00  0.00    -0.155 NA
HETATM   14  C   UNL     1     -44.952  58.745 -55.939  1.00  0.00     0.153 C 
HETATM   15  C   UNL     1     -43.336  56.581 -58.122  1.00  0.00     0.151 A 
HETATM   16  C   UNL     1     -44.696  58.728 -54.434  1.00  0.00     0.024 C 
HETATM   17  C   UNL     1     -44.735  57.297 -53.889  1.00  0.00     0.029 C 
BRANCH  15  18
HETATM   18  C   UNL     1     -42.861  56.132 -59.466  1.00  0.00     0.051 C 
HETATM   19  C   UNL     1     -42.102  57.242 -60.191  1.00  0.00     0.018 C 
HETATM   20  C   UNL     1     -44.025  55.628 -60.320  1.00  0.00     0.018 C 
ENDBRANCH  15  18
ENDBRANCH   7   9
ENDBRANCH   1   7
BRANCH   3  21
HETATM   21  N   UNL     1     -40.235  52.096 -54.608  1.00  0.00    -0.271 NA
HETATM   22  H   UNL     1     -40.631  52.025 -55.535  1.00  0.00     0.127 HD
HETATM   23  H   UNL     1     -39.273  52.396 -54.536  1.00  0.00     0.127 HD
ENDBRANCH   3  21
BRANCH   5  24
HETATM   24  N   UNL     1     -41.192  53.923 -50.390  1.00  0.00    -0.227 N 
HETATM   25  N   UNL     1     -41.440  55.072 -49.703  1.00  0.00    -0.179 NA
HETATM   26  C   UNL     1     -40.984  54.827 -48.473  1.00  0.00     0.141 A 
HETATM   27  C   UNL     1     -40.448  53.537 -48.339  1.00  0.00     0.040 A 
HETATM   28  C   UNL     1     -40.594  52.975 -49.584  1.00  0.00     0.122 A 
ENDBRANCH   5  24
TORSDOF 5
ENDMDL
MODEL 7
REMARK VINA RESULT:      -7.3      2.079      4.772
REMARK  5 active torsions:
REMARK  status: ('A' for Active; 'I' for Inactive)
REMARK    1  A    between atoms: C_2  and  C_3 
REMARK    2  A    between atoms: C_7  and  N_8 
REMARK    3  A    between atoms: N_8  and  C_9 
REMARK    4  A    between atoms: C_11  and  N_12 
REMARK    5  A    between atoms: C_14  and  N_15 
ROOT
HETATM    1  C   UNL     1     -42.829  56.108 -58.186  1.00  0.00     0.111 A 
HETATM    2  N   UNL     1     -43.571  55.150 -58.766  1.00  0.00    -0.206 NA
HETATM    3  C   UNL     1     -44.078  55.398 -59.975  1.00  0.00     0.202 A 
HETATM    4  N   UNL     1     -43.957  56.546 -60.633  1.00  0.00    -0.199 NA
HETATM    5  C   UNL     1     -43.230  57.509 -60.024  1.00  0.00     0.156 A 
HETATM    6  C   UNL     1     -42.635  57.330 -58.791  1.00  0.00     0.096 A 
ENDROOT
BRANCH   1   7
HETATM    7  N   UNL     1     -42.283  55.913 -56.908  1.00  0.00    -0.265 NA
HETATM    8  H   UNL     1     -41.635  55.124 -56.931  1.00  0.00     0.130 HD
BRANCH   7   9
HETATM    9  C   UNL     1     -43.237  55.733 -55.806  1.00  0.00     0.133 C 
HETATM   10  C   UNL     1     -42.611  55.020 -54.639  1.00  0.00     0.142 A 
HETATM   11  N   UNL     1     -42.865  55.381 -53.349  1.00  0.00    -0.253 N 
HETATM   12  N   UNL     1     -41.806  53.976 -54.640  1.00  0.00    -0.215 NA
HETATM   13  N   UNL     1     -42.239  54.582 -52.475  1.00  0.00    -0.155 NA
HETATM   14  C   UNL     1     -43.648  56.518 -52.922  1.00  0.00     0.153 C 
HETATM   15  C   UNL     1     -41.608  53.734 -53.299  1.00  0.00     0.151 A 
HETATM   16  C   UNL     1     -44.542  57.033 -54.047  1.00  0.00     0.024 C 
HETATM   17  C   UNL     1     -43.767  57.118 -55.366  1.00  0.00     0.029 C 
BRANCH  15  18
HETATM   18  C   UNL     1     -40.773  52.600 -52.799  1.00  0.00     0.051 C 
HETATM   19  C   UNL     1     -39.922  53.017 -51.600  1.00  0.00     0.018 C 
HETATM   20  C   UNL     1     -39.891  52.033 -53.912  1.00  0.00     0.018 C 
ENDBRANCH  15  18
ENDBRANCH   7   9
ENDBRANCH   1   7
BRANCH   3  21
HETATM   21  N   UNL     1     -44.826  54.403 -60.567  1.00  0.00    -0.271 NA
HETATM   22  H   UNL     1     -45.598  54.808 -61.077  1.00  0.00     0.127 HD
HETATM   23  H   UNL     1     -44.222  53.766 -61.068  1.00  0.00     0.127 HD
ENDBRANCH   3  21
BRANCH   5  24
HETATM   24  N   UNL     1     -43.093  58.765 -60.683  1.00  0.00    -0.227 N 
HETATM   25  N   UNL     1     -44.166  59.501 -61.086  1.00  0.00    -0.179 NA
HETATM   26  C   UNL     1     -43.631  60.575 -61.670  1.00  0.00     0.141 A 
HETATM   27  C   UNL     1     -42.228  60.560 -61.652  1.00  0.00     0.040 A 
HETATM   28  C   UNL     1     -41.906  59.388 -61.011  1.00  0.00     0.122 A 
ENDBRANCH   5  24
TORSDOF 5
ENDMDL
MODEL 8
REMARK VINA RESULT:      -7.3      2.402      7.878
REMARK  5 active torsions:
REMARK  status: ('A' for Active; 'I' for Inactive)
REMARK    1  A    between atoms: C_2  and  C_3 
REMARK    2  A    between atoms: C_7  and  N_8 
REMARK    3  A    between atoms: N_8  and  C_9 
REMARK    4  A    between atoms: C_11  and  N_12 
REMARK    5  A    between atoms: C_14  and  N_15 
ROOT
HETATM    1  C   UNL     1     -42.259  55.314 -55.745  1.00  0.00     0.111 A 
HETATM    2  N   UNL     1     -43.223  55.881 -55.001  1.00  0.00    -0.206 NA
HETATM    3  C   UNL     1     -43.298  55.544 -53.713  1.00  0.00     0.202 A 
HETATM    4  N   UNL     1     -42.529  54.641 -53.113  1.00  0.00    -0.199 NA
HETATM    5  C   UNL     1     -41.582  54.059 -53.882  1.00  0.00     0.156 A 
HETATM    6  C   UNL     1     -41.404  54.373 -55.214  1.00  0.00     0.096 A 
ENDROOT
BRANCH   1   7
HETATM    7  N   UNL     1     -42.140  55.615 -57.110  1.00  0.00    -0.265 NA
HETATM    8  H   UNL     1     -41.277  56.138 -57.269  1.00  0.00     0.130 HD
BRANCH   7   9
HETATM    9  C   UNL     1     -43.266  56.326 -57.727  1.00  0.00     0.133 C 
HETATM   10  C   UNL     1     -42.918  57.755 -58.042  1.00  0.00     0.142 A 
HETATM   11  N   UNL     1     -43.323  58.363 -59.193  1.00  0.00    -0.253 N 
HETATM   12  N   UNL     1     -42.254  58.627 -57.309  1.00  0.00    -0.215 NA
HETATM   13  N   UNL     1     -42.939  59.645 -59.242  1.00  0.00    -0.155 NA
HETATM   14  C   UNL     1     -44.019  57.730 -60.290  1.00  0.00     0.153 C 
HETATM   15  C   UNL     1     -42.295  59.772 -58.073  1.00  0.00     0.151 A 
HETATM   16  C   UNL     1     -44.661  56.414 -59.858  1.00  0.00     0.024 C 
HETATM   17  C   UNL     1     -43.688  55.582 -59.017  1.00  0.00     0.029 C 
BRANCH  15  18
HETATM   18  C   UNL     1     -41.689  61.062 -57.625  1.00  0.00     0.051 C 
HETATM   19  C   UNL     1     -42.750  62.019 -57.080  1.00  0.00     0.018 C 
HETATM   20  C   UNL     1     -40.900  61.722 -58.756  1.00  0.00     0.018 C 
ENDBRANCH  15  18
ENDBRANCH   7   9
ENDBRANCH   1   7
BRANCH   3  21
HETATM   21  N   UNL     1     -44.282  56.143 -52.955  1.00  0.00    -0.271 NA
HETATM   22  H   UNL     1     -44.748  55.452 -52.385  1.00  0.00     0.127 HD
HETATM   23  H   UNL     1     -43.911  56.959 -52.487  1.00  0.00     0.127 HD
ENDBRANCH   3  21
BRANCH   5  24
HETATM   24  N   UNL     1     -40.750  53.068 -53.286  1.00  0.00    -0.227 N 
HETATM   25  N   UNL     1     -40.236  52.022 -53.992  1.00  0.00    -0.179 NA
HETATM   26  C   UNL     1     -39.546  51.322 -53.090  1.00  0.00     0.141 A 
HETATM   27  C   UNL     1     -39.592  51.891 -51.809  1.00  0.00     0.040 A 
HETATM   28  C   UNL     1     -40.370  53.013 -51.960  1.00  0.00     0.122 A 
ENDBRANCH   5  24
TORSDOF 5
ENDMDL
MODEL 9
REMARK VINA RESULT:      -7.2      3.554      6.409
REMARK  5 active torsions:
REMARK  status: ('A' for Active; 'I' for Inactive)
REMARK    1  A    between atoms: C_2  and  C_3 
REMARK    2  A    between atoms: C_7  and  N_8 
REMARK    3  A    between atoms: N_8  and  C_9 
REMARK    4  A    between atoms: C_11  and  N_12 
REMARK    5  A    between atoms: C_14  and  N_15 
ROOT
HETATM    1  C   UNL     1     -41.498  57.533 -51.349  1.00  0.00     0.111 A 
HETATM    2  N   UNL     1     -40.242  58.004 -51.291  1.00  0.00    -0.206 NA
HETATM    3  C   UNL     1     -40.068  59.279 -50.940  1.00  0.00     0.202 A 
HETATM    4  N   UNL     1     -41.047  60.145 -50.698  1.00  0.00    -0.199 NA
HETATM    5  C   UNL     1     -42.306  59.662 -50.787  1.00  0.00     0.156 A 
HETATM    6  C   UNL     1     -42.582  58.348 -51.106  1.00  0.00     0.096 A 
ENDROOT
BRANCH   1   7
HETATM    7  N   UNL     1     -41.746  56.205 -51.728  1.00  0.00    -0.265 NA
HETATM    8  H   UNL     1     -41.112  55.583 -51.224  1.00  0.00     0.130 HD
BRANCH   7   9
HETATM    9  C   UNL     1     -41.684  55.909 -53.165  1.00  0.00     0.133 C 
HETATM   10  C   UNL     1     -41.295  54.479 -53.423  1.00  0.00     0.142 A 
HETATM   11  N   UNL     1     -41.876  53.737 -54.408  1.00  0.00    -0.253 N 
HETATM   12  N   UNL     1     -40.370  53.752 -52.829  1.00  0.00    -0.215 NA
HETATM   13  N   UNL     1     -41.345  52.510 -54.487  1.00  0.00    -0.155 NA
HETATM   14  C   UNL     1     -42.980  54.149 -55.245  1.00  0.00     0.153 C 
HETATM   15  C   UNL     1     -40.426  52.558 -53.513  1.00  0.00     0.151 A 
HETATM   16  C   UNL     1     -43.154  55.665 -55.231  1.00  0.00     0.024 C 
HETATM   17  C   UNL     1     -43.060  56.213 -53.804  1.00  0.00     0.029 C 
BRANCH  15  18
HETATM   18  C   UNL     1     -39.517  51.411 -53.209  1.00  0.00     0.051 C 
HETATM   19  C   UNL     1     -39.848  50.191 -54.067  1.00  0.00     0.018 C 
HETATM   20  C   UNL     1     -39.562  51.051 -51.723  1.00  0.00     0.018 C 
ENDBRANCH  15  18
ENDBRANCH   7   9
ENDBRANCH   1   7
BRANCH   3  21
HETATM   21  N   UNL     1     -38.774  59.749 -50.869  1.00  0.00    -0.271 NA
HETATM   22  H   UNL     1     -38.134  59.053 -51.226  1.00  0.00     0.127 HD
HETATM   23  H   UNL     1     -38.719  60.677 -51.265  1.00  0.00     0.127 HD
ENDBRANCH   3  21
BRANCH   5  24
HETATM   24  N   UNL     1     -43.388  60.561 -50.559  1.00  0.00    -0.227 N 
HETATM   25  N   UNL     1     -43.196  61.872 -50.239  1.00  0.00    -0.179 NA
HETATM   26  C   UNL     1     -44.429  62.358 -50.086  1.00  0.00     0.141 A 
HETATM   27  C   UNL     1     -45.425  61.395 -50.305  1.00  0.00     0.040 A 
HETATM   28  C   UNL     1     -44.731  60.249 -50.609  1.00  0.00     0.122 A 
ENDBRANCH   5  24
TORSDOF 5
ENDMDL
MODEL 10
REMARK VINA RESULT:      -7.1      3.202      7.385
REMARK  5 active torsions:
REMARK  status: ('A' for Active; 'I' for Inactive)
REMARK    1  A    between atoms: C_2  and  C_3 
REMARK    2  A    between atoms: C_7  and  N_8 
REMARK    3  A    between atoms: N_8  and  C_9 
REMARK    4  A    between atoms: C_11  and  N_12 
REMARK    5  A    between atoms: C_14  and  N_15 
ROOT
HETATM    1  C   UNL     1     -41.333  55.039 -52.359  1.00  0.00     0.111 A 
HETATM    2  N   UNL     1     -41.277  55.344 -53.666  1.00  0.00    -0.206 NA
HETATM    3  C   UNL     1     -40.882  54.393 -54.514  1.00  0.00     0.202 A 
HETATM    4  N   UNL     1     -40.479  53.176 -54.163  1.00  0.00    -0.199 NA
HETATM    5  C   UNL     1     -40.515  52.894 -52.841  1.00  0.00     0.156 A 
HETATM    6  C   UNL     1     -40.946  53.801 -51.894  1.00  0.00     0.096 A 
ENDROOT
BRANCH   1   7
HETATM    7  N   UNL     1     -41.725  56.002 -51.417  1.00  0.00    -0.265 NA
HETATM    8  H   UNL     1     -42.741  55.993 -51.323  1.00  0.00     0.130 HD
BRANCH   7   9
HETATM    9  C   UNL     1     -41.266  57.377 -51.652  1.00  0.00     0.133 C 
HETATM   10  C   UNL     1     -42.416  58.313 -51.907  1.00  0.00     0.142 A 
HETATM   11  N   UNL     1     -42.452  59.575 -51.394  1.00  0.00    -0.253 N 
HETATM   12  N   UNL     1     -43.491  58.122 -52.647  1.00  0.00    -0.215 NA
HETATM   13  N   UNL     1     -43.544  60.243 -51.787  1.00  0.00    -0.155 NA
HETATM   14  C   UNL     1     -41.492  60.148 -50.478  1.00  0.00     0.153 C 
HETATM   15  C   UNL     1     -44.151  59.326 -52.554  1.00  0.00     0.151 A 
HETATM   16  C   UNL     1     -40.183  59.362 -50.479  1.00  0.00     0.024 C 
HETATM   17  C   UNL     1     -40.451  57.855 -50.427  1.00  0.00     0.029 C 
BRANCH  15  18
HETATM   18  C   UNL     1     -45.433  59.601 -53.272  1.00  0.00     0.051 C 
HETATM   19  C   UNL     1     -45.191  59.927 -54.745  1.00  0.00     0.018 C 
HETATM   20  C   UNL     1     -46.213  60.728 -52.593  1.00  0.00     0.018 C 
ENDBRANCH  15  18
ENDBRANCH   7   9
ENDBRANCH   1   7
BRANCH   3  21
HETATM   21  N   UNL     1     -40.842  54.712 -55.854  1.00  0.00    -0.271 NA
HETATM   22  H   UNL     1     -41.770  54.939 -56.183  1.00  0.00     0.127 HD
HETATM   23  H   UNL     1     -40.110  55.386 -56.029  1.00  0.00     0.127 HD
ENDBRANCH   3  21
BRANCH   5  24
HETATM   24  N   UNL     1     -40.069  51.609 -52.417  1.00  0.00    -0.227 N 
HETATM   25  N   UNL     1     -39.855  50.584 -53.287  1.00  0.00    -0.179 NA
HETATM   26  C   UNL     1     -39.476  49.566 -52.513  1.00  0.00     0.141 A 
HETATM   27  C   UNL     1     -39.431  49.905 -51.152  1.00  0.00     0.040 A 
HETATM   28  C   UNL     1     -39.815  51.224 -51.116  1.00  0.00     0.122 A 
ENDBRANCH   5  24
TORSDOF 5
ENDMDL
