MODEL 1
REMARK VINA RESULT:      -8.1      0.000      0.000
REMARK  5 active torsions:
REMARK  status: ('A' for Active; 'I' for Inactive)
REMARK    1  A    between atoms: C_7  and  C_8 
REMARK    2  A    between atoms: C_11  and  N_12 
REMARK       I    between atoms: N_12  and  C_13 
REMARK    3  A    between atoms: C_13  and  C_14 
REMARK    4  A    between atoms: C_16  and  O_17 
REMARK    5  A    between atoms: C_20  and  O_21 
ROOT
HETATM    1  C   UNL     1     -42.352  56.142 -52.098  1.00  0.00     0.017 A 
HETATM    2  C   UNL     1     -41.767  57.230 -51.438  1.00  0.00     0.018 A 
HETATM    3  C   UNL     1     -42.455  58.443 -51.298  1.00  0.00     0.030 A 
HETATM    4  C   UNL     1     -43.742  58.592 -51.813  1.00  0.00     0.035 A 
HETATM    5  C   UNL     1     -44.314  57.525 -52.514  1.00  0.00     0.030 A 
HETATM    6  C   UNL     1     -43.627  56.313 -52.652  1.00  0.00     0.018 A 
ENDROOT
BRANCH   4   7
HETATM    7  N   UNL     1     -44.536  59.745 -51.637  1.00  0.00    -0.323 N 
HETATM    8  C   UNL     1     -45.595  59.901 -50.762  1.00  0.00     0.256 C 
HETATM    9  O   UNL     1     -45.992  59.106 -49.921  1.00  0.00    -0.267 OA
HETATM   10  H   UNL     1     -44.398  60.477 -52.323  1.00  0.00     0.169 HD
BRANCH   8  11
HETATM   11  C   UNL     1     -46.352  61.165 -50.948  1.00  0.00     0.037 A 
HETATM   12  C   UNL     1     -46.333  62.100 -49.909  1.00  0.00     0.054 A 
HETATM   13  C   UNL     1     -47.080  63.272 -50.008  1.00  0.00     0.071 A 
HETATM   14  C   UNL     1     -47.822  63.512 -51.165  1.00  0.00     0.073 A 
HETATM   15  C   UNL     1     -47.823  62.591 -52.223  1.00  0.00     0.071 A 
HETATM   16  C   UNL     1     -47.087  61.412 -52.115  1.00  0.00     0.054 A 
BRANCH  13  17
HETATM   17  O   UNL     1     -47.006  64.090 -48.914  1.00  0.00    -0.356 OA
HETATM   18  C   UNL     1     -48.016  63.936 -47.925  1.00  0.00     0.210 C 
ENDBRANCH  13  17
BRANCH  15  19
HETATM   19  O   UNL     1     -48.589  62.963 -53.294  1.00  0.00    -0.356 OA
HETATM   20  C   UNL     1     -49.815  62.268 -53.491  1.00  0.00     0.210 C 
ENDBRANCH  15  19
ENDBRANCH   8  11
ENDBRANCH   4   7
BRANCH   1  21
HETATM   21  C   UNL     1     -41.699  54.838 -52.182  1.00  0.00     0.180 A 
HETATM   22  N   UNL     1     -41.007  54.199 -51.254  1.00  0.00    -0.221 NA
HETATM   23  C   UNL     1     -40.552  53.079 -51.902  1.00  0.00     0.093 A 
HETATM   24  C   UNL     1     -41.010  53.070 -53.208  1.00  0.00     0.107 A 
HETATM   25  C   UNL     1     -39.738  52.028 -51.464  1.00  0.00     0.035 A 
HETATM   26  C   UNL     1     -40.728  52.081 -54.141  1.00  0.00     0.046 A 
HETATM   27  O   UNL     1     -41.754  54.197 -53.396  1.00  0.00    -0.289 OA
HETATM   28  C   UNL     1     -39.918  51.023 -53.696  1.00  0.00    -0.059 A 
HETATM   29  C   UNL     1     -39.523  49.930 -54.650  1.00  0.00     0.048 C 
HETATM   30  C   UNL     1     -39.423  51.009 -52.378  1.00  0.00     0.009 A 
ENDBRANCH   1  21
TORSDOF 5
ENDMDL
MODEL 2
REMARK VINA RESULT:      -8.0      0.191      2.225
REMARK  5 active torsions:
REMARK  status: ('A' for Active; 'I' for Inactive)
REMARK    1  A    between atoms: C_7  and  C_8 
REMARK    2  A    between atoms: C_11  and  N_12 
REMARK       I    between atoms: N_12  and  C_13 
REMARK    3  A    between atoms: C_13  and  C_14 
REMARK    4  A    between atoms: C_16  and  O_17 
REMARK    5  A    between atoms: C_20  and  O_21 
ROOT
HETATM    1  C   UNL     1     -42.320  56.099 -52.082  1.00  0.00     0.017 A 
HETATM    2  C   UNL     1     -41.718  57.208 -51.473  1.00  0.00     0.018 A 
HETATM    3  C   UNL     1     -42.409  58.419 -51.336  1.00  0.00     0.030 A 
HETATM    4  C   UNL     1     -43.716  58.546 -51.804  1.00  0.00     0.035 A 
HETATM    5  C   UNL     1     -44.307  57.458 -52.456  1.00  0.00     0.030 A 
HETATM    6  C   UNL     1     -43.617  56.247 -52.590  1.00  0.00     0.018 A 
ENDROOT
BRANCH   4   7
HETATM    7  N   UNL     1     -44.512  59.697 -51.627  1.00  0.00    -0.323 N 
HETATM    8  C   UNL     1     -45.558  59.858 -50.737  1.00  0.00     0.256 C 
HETATM    9  O   UNL     1     -45.938  59.069 -49.882  1.00  0.00    -0.267 OA
HETATM   10  H   UNL     1     -44.387  60.423 -52.321  1.00  0.00     0.169 HD
BRANCH   8  11
HETATM   11  C   UNL     1     -46.322  61.117 -50.923  1.00  0.00     0.037 A 
HETATM   12  C   UNL     1     -47.013  61.294 -52.125  1.00  0.00     0.054 A 
HETATM   13  C   UNL     1     -47.690  62.487 -52.374  1.00  0.00     0.071 A 
HETATM   14  C   UNL     1     -47.693  63.485 -51.399  1.00  0.00     0.073 A 
HETATM   15  C   UNL     1     -47.025  63.302 -50.180  1.00  0.00     0.071 A 
HETATM   16  C   UNL     1     -46.335  62.115 -49.939  1.00  0.00     0.054 A 
BRANCH  13  17
HETATM   17  O   UNL     1     -48.298  62.553 -53.597  1.00  0.00    -0.356 OA
HETATM   18  C   UNL     1     -49.716  62.451 -53.619  1.00  0.00     0.210 C 
ENDBRANCH  13  17
BRANCH  15  19
HETATM   19  O   UNL     1     -47.121  64.363 -49.319  1.00  0.00    -0.356 OA
HETATM   20  C   UNL     1     -47.863  64.165 -48.122  1.00  0.00     0.210 C 
ENDBRANCH  15  19
ENDBRANCH   8  11
ENDBRANCH   4   7
BRANCH   1  21
HETATM   21  C   UNL     1     -41.660  54.798 -52.159  1.00  0.00     0.180 A 
HETATM   22  N   UNL     1     -40.982  54.158 -51.221  1.00  0.00    -0.221 NA
HETATM   23  C   UNL     1     -40.512  53.042 -51.864  1.00  0.00     0.093 A 
HETATM   24  C   UNL     1     -40.945  53.036 -53.178  1.00  0.00     0.107 A 
HETATM   25  C   UNL     1     -39.701  51.993 -51.415  1.00  0.00     0.035 A 
HETATM   26  C   UNL     1     -40.643  52.051 -54.110  1.00  0.00     0.046 A 
HETATM   27  O   UNL     1     -41.690  54.161 -53.376  1.00  0.00    -0.289 OA
HETATM   28  C   UNL     1     -39.837  50.994 -53.654  1.00  0.00    -0.059 A 
HETATM   29  C   UNL     1     -39.421  49.906 -54.604  1.00  0.00     0.048 C 
HETATM   30  C   UNL     1     -39.366  50.978 -52.327  1.00  0.00     0.009 A 
ENDBRANCH   1  21
TORSDOF 5
ENDMDL
MODEL 3
REMARK VINA RESULT:      -7.8      0.805      1.328
REMARK  5 active torsions:
REMARK  status: ('A' for Active; 'I' for Inactive)
REMARK    1  A    between atoms: C_7  and  C_8 
REMARK    2  A    between atoms: C_11  and  N_12 
REMARK       I    between atoms: N_12  and  C_13 
REMARK    3  A    between atoms: C_13  and  C_14 
REMARK    4  A    between atoms: C_16  and  O_17 
REMARK    5  A    between atoms: C_20  and  O_21 
ROOT
HETATM    1  C   UNL     1     -42.152  56.217 -52.316  1.00  0.00     0.017 A 
HETATM    2  C   UNL     1     -41.783  57.167 -51.356  1.00  0.00     0.018 A 
HETATM    3  C   UNL     1     -42.522  58.345 -51.184  1.00  0.00     0.030 A 
HETATM    4  C   UNL     1     -43.648  58.596 -51.969  1.00  0.00     0.035 A 
HETATM    5  C   UNL     1     -43.995  57.673 -52.962  1.00  0.00     0.030 A 
HETATM    6  C   UNL     1     -43.257  56.496 -53.131  1.00  0.00     0.018 A 
ENDROOT
BRANCH   4   7
HETATM    7  N   UNL     1     -44.497  59.709 -51.801  1.00  0.00    -0.323 N 
HETATM    8  C   UNL     1     -45.593  59.802 -50.963  1.00  0.00     0.256 C 
HETATM    9  O   UNL     1     -45.984  58.974 -50.152  1.00  0.00    -0.267 OA
HETATM   10  H   UNL     1     -44.366  60.460 -52.466  1.00  0.00     0.169 HD
BRANCH   8  11
HETATM   11  C   UNL     1     -46.397  61.036 -51.152  1.00  0.00     0.037 A 
HETATM   12  C   UNL     1     -46.384  61.990 -50.131  1.00  0.00     0.054 A 
HETATM   13  C   UNL     1     -47.174  63.134 -50.232  1.00  0.00     0.071 A 
HETATM   14  C   UNL     1     -47.951  63.326 -51.375  1.00  0.00     0.073 A 
HETATM   15  C   UNL     1     -47.946  62.387 -52.415  1.00  0.00     0.071 A 
HETATM   16  C   UNL     1     -47.168  61.235 -52.305  1.00  0.00     0.054 A 
BRANCH  13  17
HETATM   17  O   UNL     1     -47.102  63.974 -49.155  1.00  0.00    -0.356 OA
HETATM   18  C   UNL     1     -47.562  63.467 -47.910  1.00  0.00     0.210 C 
ENDBRANCH  13  17
BRANCH  15  19
HETATM   19  O   UNL     1     -48.751  62.712 -53.473  1.00  0.00    -0.356 OA
HETATM   20  C   UNL     1     -50.096  62.250 -53.435  1.00  0.00     0.210 C 
ENDBRANCH  15  19
ENDBRANCH   8  11
ENDBRANCH   4   7
BRANCH   1  21
HETATM   21  C   UNL     1     -41.457  54.940 -52.457  1.00  0.00     0.180 A 
HETATM   22  N   UNL     1     -41.071  54.327 -53.563  1.00  0.00    -0.221 NA
HETATM   23  C   UNL     1     -40.560  53.136 -53.114  1.00  0.00     0.093 A 
HETATM   24  C   UNL     1     -40.637  53.080 -51.734  1.00  0.00     0.107 A 
HETATM   25  C   UNL     1     -40.026  52.043 -53.805  1.00  0.00     0.035 A 
HETATM   26  C   UNL     1     -40.212  52.010 -50.957  1.00  0.00     0.046 A 
HETATM   27  O   UNL     1     -41.208  54.241 -51.301  1.00  0.00    -0.289 OA
HETATM   28  C   UNL     1     -39.668  50.917 -51.654  1.00  0.00    -0.059 A 
HETATM   29  C   UNL     1     -39.224  49.695 -50.900  1.00  0.00     0.048 C 
HETATM   30  C   UNL     1     -39.590  50.936 -53.059  1.00  0.00     0.009 A 
ENDBRANCH   1  21
TORSDOF 5
ENDMDL
MODEL 4
REMARK VINA RESULT:      -7.7      5.788     11.074
REMARK  5 active torsions:
REMARK  status: ('A' for Active; 'I' for Inactive)
REMARK    1  A    between atoms: C_7  and  C_8 
REMARK    2  A    between atoms: C_11  and  N_12 
REMARK       I    between atoms: N_12  and  C_13 
REMARK    3  A    between atoms: C_13  and  C_14 
REMARK    4  A    between atoms: C_16  and  O_17 
REMARK    5  A    between atoms: C_20  and  O_21 
ROOT
HETATM    1  C   UNL     1     -43.846  57.142 -57.382  1.00  0.00     0.017 A 
HETATM    2  C   UNL     1     -43.933  57.595 -56.059  1.00  0.00     0.018 A 
HETATM    3  C   UNL     1     -43.405  56.842 -55.002  1.00  0.00     0.030 A 
HETATM    4  C   UNL     1     -42.778  55.621 -55.246  1.00  0.00     0.035 A 
HETATM    5  C   UNL     1     -42.729  55.140 -56.559  1.00  0.00     0.030 A 
HETATM    6  C   UNL     1     -43.255  55.894 -57.615  1.00  0.00     0.018 A 
ENDROOT
BRANCH   4   7
HETATM    7  N   UNL     1     -42.142  54.846 -54.254  1.00  0.00    -0.323 N 
HETATM    8  C   UNL     1     -40.797  54.536 -54.173  1.00  0.00     0.256 C 
HETATM    9  O   UNL     1     -39.894  54.940 -54.893  1.00  0.00    -0.267 OA
HETATM   10  H   UNL     1     -42.762  54.357 -53.621  1.00  0.00     0.169 HD
BRANCH   8  11
HETATM   11  C   UNL     1     -40.467  53.543 -53.120  1.00  0.00     0.037 A 
HETATM   12  C   UNL     1     -40.097  52.257 -53.524  1.00  0.00     0.054 A 
HETATM   13  C   UNL     1     -39.842  51.271 -52.573  1.00  0.00     0.071 A 
HETATM   14  C   UNL     1     -39.932  51.592 -51.218  1.00  0.00     0.073 A 
HETATM   15  C   UNL     1     -40.275  52.888 -50.806  1.00  0.00     0.071 A 
HETATM   16  C   UNL     1     -40.545  53.868 -51.759  1.00  0.00     0.054 A 
BRANCH  13  17
HETATM   17  O   UNL     1     -39.524  50.046 -53.092  1.00  0.00    -0.356 OA
HETATM   18  C   UNL     1     -39.619  49.899 -54.502  1.00  0.00     0.210 C 
ENDBRANCH  13  17
BRANCH  15  19
HETATM   19  O   UNL     1     -40.317  53.056 -49.448  1.00  0.00    -0.356 OA
HETATM   20  C   UNL     1     -40.484  54.383 -48.961  1.00  0.00     0.210 C 
ENDBRANCH  15  19
ENDBRANCH   8  11
ENDBRANCH   4   7
BRANCH   1  21
HETATM   21  C   UNL     1     -44.305  57.944 -58.513  1.00  0.00     0.180 A 
HETATM   22  N   UNL     1     -43.633  58.834 -59.223  1.00  0.00    -0.221 NA
HETATM   23  C   UNL     1     -44.572  59.341 -60.084  1.00  0.00     0.093 A 
HETATM   24  C   UNL     1     -45.789  58.715 -59.876  1.00  0.00     0.107 A 
HETATM   25  C   UNL     1     -44.483  60.338 -61.061  1.00  0.00     0.035 A 
HETATM   26  C   UNL     1     -46.956  58.996 -60.576  1.00  0.00     0.046 A 
HETATM   27  O   UNL     1     -45.626  57.810 -58.869  1.00  0.00    -0.289 OA
HETATM   28  C   UNL     1     -46.861  59.992 -61.563  1.00  0.00    -0.059 A 
HETATM   29  C   UNL     1     -48.083  60.394 -62.340  1.00  0.00     0.048 C 
HETATM   30  C   UNL     1     -45.642  60.658 -61.789  1.00  0.00     0.009 A 
ENDBRANCH   1  21
TORSDOF 5
ENDMDL
MODEL 5
REMARK VINA RESULT:      -7.6      5.773     10.777
REMARK  5 active torsions:
REMARK  status: ('A' for Active; 'I' for Inactive)
REMARK    1  A    between atoms: C_7  and  C_8 
REMARK    2  A    between atoms: C_11  and  N_12 
REMARK       I    between atoms: N_12  and  C_13 
REMARK    3  A    between atoms: C_13  and  C_14 
REMARK    4  A    between atoms: C_16  and  O_17 
REMARK    5  A    between atoms: C_20  and  O_21 
ROOT
HETATM    1  C   UNL     1     -43.949  57.325 -57.422  1.00  0.00     0.017 A 
HETATM    2  C   UNL     1     -44.199  57.621 -56.076  1.00  0.00     0.018 A 
HETATM    3  C   UNL     1     -43.711  56.797 -55.053  1.00  0.00     0.030 A 
HETATM    4  C   UNL     1     -42.962  55.660 -55.356  1.00  0.00     0.035 A 
HETATM    5  C   UNL     1     -42.749  55.332 -56.699  1.00  0.00     0.030 A 
HETATM    6  C   UNL     1     -43.235  56.158 -57.721  1.00  0.00     0.018 A 
ENDROOT
BRANCH   4   7
HETATM    7  N   UNL     1     -42.360  54.829 -54.389  1.00  0.00    -0.323 N 
HETATM    8  C   UNL     1     -41.069  54.918 -53.901  1.00  0.00     0.256 C 
HETATM    9  O   UNL     1     -40.235  55.777 -54.152  1.00  0.00    -0.267 OA
HETATM   10  H   UNL     1     -42.888  54.003 -54.134  1.00  0.00     0.169 HD
BRANCH   8  11
HETATM   11  C   UNL     1     -40.670  53.782 -53.033  1.00  0.00     0.037 A 
HETATM   12  C   UNL     1     -40.677  53.980 -51.649  1.00  0.00     0.054 A 
HETATM   13  C   UNL     1     -40.249  52.967 -50.794  1.00  0.00     0.071 A 
HETATM   14  C   UNL     1     -39.841  51.746 -51.335  1.00  0.00     0.073 A 
HETATM   15  C   UNL     1     -39.858  51.532 -52.720  1.00  0.00     0.071 A 
HETATM   16  C   UNL     1     -40.273  52.552 -53.574  1.00  0.00     0.054 A 
BRANCH  13  17
HETATM   17  O   UNL     1     -40.269  53.293 -49.466  1.00  0.00    -0.356 OA
HETATM   18  C   UNL     1     -40.886  54.524 -49.115  1.00  0.00     0.210 C 
ENDBRANCH  13  17
BRANCH  15  19
HETATM   19  O   UNL     1     -39.439  50.286 -53.103  1.00  0.00    -0.356 OA
HETATM   20  C   UNL     1     -39.938  49.782 -54.337  1.00  0.00     0.210 C 
ENDBRANCH  15  19
ENDBRANCH   8  11
ENDBRANCH   4   7
BRANCH   1  21
HETATM   21  C   UNL     1     -44.366  58.211 -58.506  1.00  0.00     0.180 A 
HETATM   22  N   UNL     1     -45.589  58.575 -58.853  1.00  0.00    -0.221 NA
HETATM   23  C   UNL     1     -45.397  59.329 -59.982  1.00  0.00     0.093 A 
HETATM   24  C   UNL     1     -44.045  59.414 -60.268  1.00  0.00     0.107 A 
HETATM   25  C   UNL     1     -46.308  59.966 -60.831  1.00  0.00     0.035 A 
HETATM   26  C   UNL     1     -43.503  60.099 -61.348  1.00  0.00     0.046 A 
HETATM   27  O   UNL     1     -43.373  58.701 -59.320  1.00  0.00    -0.289 OA
HETATM   28  C   UNL     1     -44.421  60.745 -62.194  1.00  0.00    -0.059 A 
HETATM   29  C   UNL     1     -43.930  61.473 -63.414  1.00  0.00     0.048 C 
HETATM   30  C   UNL     1     -45.803  60.665 -61.940  1.00  0.00     0.009 A 
ENDBRANCH   1  21
TORSDOF 5
ENDMDL
MODEL 6
REMARK VINA RESULT:      -7.6      6.049     10.810
REMARK  5 active torsions:
REMARK  status: ('A' for Active; 'I' for Inactive)
REMARK    1  A    between atoms: C_7  and  C_8 
REMARK    2  A    between atoms: C_11  and  N_12 
REMARK       I    between atoms: N_12  and  C_13 
REMARK    3  A    between atoms: C_13  and  C_14 
REMARK    4  A    between atoms: C_16  and  O_17 
REMARK    5  A    between atoms: C_20  and  O_21 
ROOT
HETATM    1  C   UNL     1     -43.357  57.229 -57.766  1.00  0.00     0.017 A 
HETATM    2  C   UNL     1     -43.304  55.830 -57.785  1.00  0.00     0.018 A 
HETATM    3  C   UNL     1     -42.754  55.114 -56.714  1.00  0.00     0.030 A 
HETATM    4  C   UNL     1     -42.246  55.783 -55.601  1.00  0.00     0.035 A 
HETATM    5  C   UNL     1     -42.253  57.182 -55.596  1.00  0.00     0.030 A 
HETATM    6  C   UNL     1     -42.806  57.896 -56.666  1.00  0.00     0.018 A 
ENDROOT
BRANCH   4   7
HETATM    7  N   UNL     1     -41.759  55.139 -54.445  1.00  0.00    -0.323 N 
HETATM    8  C   UNL     1     -40.697  54.256 -54.369  1.00  0.00     0.256 C 
HETATM    9  O   UNL     1     -39.931  53.930 -55.266  1.00  0.00    -0.267 OA
HETATM   10  H   UNL     1     -42.337  55.230 -53.619  1.00  0.00     0.169 HD
BRANCH   8  11
HETATM   11  C   UNL     1     -40.549  53.600 -53.045  1.00  0.00     0.037 A 
HETATM   12  C   UNL     1     -40.892  54.335 -51.906  1.00  0.00     0.054 A 
HETATM   13  C   UNL     1     -40.709  53.787 -50.638  1.00  0.00     0.071 A 
HETATM   14  C   UNL     1     -40.208  52.490 -50.522  1.00  0.00     0.073 A 
HETATM   15  C   UNL     1     -39.889  51.737 -51.661  1.00  0.00     0.071 A 
HETATM   16  C   UNL     1     -40.058  52.293 -52.928  1.00  0.00     0.054 A 
BRANCH  13  17
HETATM   17  O   UNL     1     -41.049  54.616 -49.604  1.00  0.00    -0.356 OA
HETATM   18  C   UNL     1     -40.580  54.258 -48.311  1.00  0.00     0.210 C 
ENDBRANCH  13  17
BRANCH  15  19
HETATM   19  O   UNL     1     -39.415  50.481 -51.392  1.00  0.00    -0.356 OA
HETATM   20  C   UNL     1     -39.585  49.492 -52.401  1.00  0.00     0.210 C 
ENDBRANCH  15  19
ENDBRANCH   8  11
ENDBRANCH   4   7
BRANCH   1  21
HETATM   21  C   UNL     1     -44.006  57.999 -58.825  1.00  0.00     0.180 A 
HETATM   22  N   UNL     1     -43.490  58.942 -59.596  1.00  0.00    -0.221 NA
HETATM   23  C   UNL     1     -44.559  59.379 -60.335  1.00  0.00     0.093 A 
HETATM   24  C   UNL     1     -45.693  58.661 -59.995  1.00  0.00     0.107 A 
HETATM   25  C   UNL     1     -44.661  60.385 -61.301  1.00  0.00     0.035 A 
HETATM   26  C   UNL     1     -46.951  58.855 -60.550  1.00  0.00     0.046 A 
HETATM   27  O   UNL     1     -45.345  57.766 -59.027  1.00  0.00    -0.289 OA
HETATM   28  C   UNL     1     -47.048  59.860 -61.527  1.00  0.00    -0.059 A 
HETATM   29  C   UNL     1     -48.380  60.172 -62.151  1.00  0.00     0.048 C 
HETATM   30  C   UNL     1     -45.918  60.619 -61.884  1.00  0.00     0.009 A 
ENDBRANCH   1  21
TORSDOF 5
ENDMDL
MODEL 7
REMARK VINA RESULT:      -7.5      1.240      1.626
REMARK  5 active torsions:
REMARK  status: ('A' for Active; 'I' for Inactive)
REMARK    1  A    between atoms: C_7  and  C_8 
REMARK    2  A    between atoms: C_11  and  N_12 
REMARK       I    between atoms: N_12  and  C_13 
REMARK    3  A    between atoms: C_13  and  C_14 
REMARK    4  A    between atoms: C_16  and  O_17 
REMARK    5  A    between atoms: C_20  and  O_21 
ROOT
HETATM    1  C   UNL     1     -42.812  55.960 -52.384  1.00  0.00     0.017 A 
HETATM    2  C   UNL     1     -43.734  56.283 -53.388  1.00  0.00     0.018 A 
HETATM    3  C   UNL     1     -44.434  57.496 -53.362  1.00  0.00     0.030 A 
HETATM    4  C   UNL     1     -44.226  58.413 -52.332  1.00  0.00     0.035 A 
HETATM    5  C   UNL     1     -43.342  58.076 -51.301  1.00  0.00     0.030 A 
HETATM    6  C   UNL     1     -42.641  56.865 -51.329  1.00  0.00     0.018 A 
ENDROOT
BRANCH   4   7
HETATM    7  N   UNL     1     -44.820  59.690 -52.277  1.00  0.00    -0.323 N 
HETATM    8  C   UNL     1     -45.945  60.056 -51.561  1.00  0.00     0.256 C 
HETATM    9  O   UNL     1     -46.587  59.369 -50.778  1.00  0.00    -0.267 OA
HETATM   10  H   UNL     1     -44.463  60.365 -52.941  1.00  0.00     0.169 HD
BRANCH   8  11
HETATM   11  C   UNL     1     -46.434  61.426 -51.859  1.00  0.00     0.037 A 
HETATM   12  C   UNL     1     -45.652  62.507 -51.442  1.00  0.00     0.054 A 
HETATM   13  C   UNL     1     -46.099  63.812 -51.639  1.00  0.00     0.071 A 
HETATM   14  C   UNL     1     -47.319  64.024 -52.283  1.00  0.00     0.073 A 
HETATM   15  C   UNL     1     -48.095  62.944 -52.729  1.00  0.00     0.071 A 
HETATM   16  C   UNL     1     -47.653  61.639 -52.516  1.00  0.00     0.054 A 
BRANCH  13  17
HETATM   17  O   UNL     1     -45.263  64.781 -51.157  1.00  0.00    -0.356 OA
HETATM   18  C   UNL     1     -43.868  64.572 -51.330  1.00  0.00     0.210 C 
ENDBRANCH  13  17
BRANCH  15  19
HETATM   19  O   UNL     1     -49.261  63.305 -53.348  1.00  0.00    -0.356 OA
HETATM   20  C   UNL     1     -50.134  62.257 -53.755  1.00  0.00     0.210 C 
ENDBRANCH  15  19
ENDBRANCH   8  11
ENDBRANCH   4   7
BRANCH   1  21
HETATM   21  C   UNL     1     -42.001  54.746 -52.431  1.00  0.00     0.180 A 
HETATM   22  N   UNL     1     -41.137  54.294 -51.538  1.00  0.00    -0.221 NA
HETATM   23  C   UNL     1     -40.605  53.180 -52.135  1.00  0.00     0.093 A 
HETATM   24  C   UNL     1     -41.189  52.984 -53.374  1.00  0.00     0.107 A 
HETATM   25  C   UNL     1     -39.616  52.288 -51.706  1.00  0.00     0.035 A 
HETATM   26  C   UNL     1     -40.874  51.950 -54.246  1.00  0.00     0.046 A 
HETATM   27  O   UNL     1     -42.094  53.985 -53.572  1.00  0.00    -0.289 OA
HETATM   28  C   UNL     1     -39.887  51.050 -53.808  1.00  0.00    -0.059 A 
HETATM   29  C   UNL     1     -39.448  49.926 -54.704  1.00  0.00     0.048 C 
HETATM   30  C   UNL     1     -39.262  51.230 -52.559  1.00  0.00     0.009 A 
ENDBRANCH   1  21
TORSDOF 5
ENDMDL
MODEL 8
REMARK VINA RESULT:      -7.4      1.840     10.816
REMARK  5 active torsions:
REMARK  status: ('A' for Active; 'I' for Inactive)
REMARK    1  A    between atoms: C_7  and  C_8 
REMARK    2  A    between atoms: C_11  and  N_12 
REMARK       I    between atoms: N_12  and  C_13 
REMARK    3  A    between atoms: C_13  and  C_14 
REMARK    4  A    between atoms: C_16  and  O_17 
REMARK    5  A    between atoms: C_20  and  O_21 
ROOT
HETATM    1  C   UNL     1     -44.887  59.711 -51.883  1.00  0.00     0.017 A 
HETATM    2  C   UNL     1     -43.746  59.782 -52.692  1.00  0.00     0.018 A 
HETATM    3  C   UNL     1     -42.878  58.689 -52.814  1.00  0.00     0.030 A 
HETATM    4  C   UNL     1     -43.135  57.500 -52.131  1.00  0.00     0.035 A 
HETATM    5  C   UNL     1     -44.247  57.438 -51.285  1.00  0.00     0.030 A 
HETATM    6  C   UNL     1     -45.115  58.530 -51.165  1.00  0.00     0.018 A 
ENDROOT
BRANCH   4   7
HETATM    7  N   UNL     1     -42.366  56.327 -52.269  1.00  0.00    -0.323 N 
HETATM    8  C   UNL     1     -42.612  55.264 -53.119  1.00  0.00     0.256 C 
HETATM    9  O   UNL     1     -43.489  55.174 -53.967  1.00  0.00    -0.267 OA
HETATM   10  H   UNL     1     -41.642  56.197 -51.573  1.00  0.00     0.169 HD
BRANCH   8  11
HETATM   11  C   UNL     1     -41.728  54.092 -52.894  1.00  0.00     0.037 A 
HETATM   12  C   UNL     1     -41.280  53.849 -51.593  1.00  0.00     0.054 A 
HETATM   13  C   UNL     1     -40.396  52.801 -51.341  1.00  0.00     0.071 A 
HETATM   14  C   UNL     1     -39.989  51.985 -52.397  1.00  0.00     0.073 A 
HETATM   15  C   UNL     1     -40.457  52.206 -53.700  1.00  0.00     0.071 A 
HETATM   16  C   UNL     1     -41.329  53.265 -53.952  1.00  0.00     0.054 A 
BRANCH  13  17
HETATM   17  O   UNL     1     -40.004  52.686 -50.036  1.00  0.00    -0.356 OA
HETATM   18  C   UNL     1     -40.064  53.862 -49.239  1.00  0.00     0.210 C 
ENDBRANCH  13  17
BRANCH  15  19
HETATM   19  O   UNL     1     -39.979  51.323 -54.630  1.00  0.00    -0.356 OA
HETATM   20  C   UNL     1     -39.804  49.973 -54.215  1.00  0.00     0.210 C 
ENDBRANCH  15  19
ENDBRANCH   8  11
ENDBRANCH   4   7
BRANCH   1  21
HETATM   21  C   UNL     1     -45.858  60.800 -51.805  1.00  0.00     0.180 A 
HETATM   22  N   UNL     1     -45.954  61.758 -50.899  1.00  0.00    -0.221 NA
HETATM   23  C   UNL     1     -47.089  62.436 -51.263  1.00  0.00     0.093 A 
HETATM   24  C   UNL     1     -47.633  61.870 -52.402  1.00  0.00     0.107 A 
HETATM   25  C   UNL     1     -47.736  63.531 -50.678  1.00  0.00     0.035 A 
HETATM   26  C   UNL     1     -48.790  62.309 -53.033  1.00  0.00     0.046 A 
HETATM   27  O   UNL     1     -46.844  60.818 -52.762  1.00  0.00    -0.289 OA
HETATM   28  C   UNL     1     -49.432  63.414 -52.448  1.00  0.00    -0.059 A 
HETATM   29  C   UNL     1     -50.715  63.931 -53.035  1.00  0.00     0.048 C 
HETATM   30  C   UNL     1     -48.913  64.004 -51.280  1.00  0.00     0.009 A 
ENDBRANCH   1  21
TORSDOF 5
ENDMDL
MODEL 9
REMARK VINA RESULT:      -7.1      4.129      4.888
REMARK  5 active torsions:
REMARK  status: ('A' for Active; 'I' for Inactive)
REMARK    1  A    between atoms: C_7  and  C_8 
REMARK    2  A    between atoms: C_11  and  N_12 
REMARK       I    between atoms: N_12  and  C_13 
REMARK    3  A    between atoms: C_13  and  C_14 
REMARK    4  A    between atoms: C_16  and  O_17 
REMARK    5  A    between atoms: C_20  and  O_21 
ROOT
HETATM    1  C   UNL     1     -41.141  55.611 -54.418  1.00  0.00     0.017 A 
HETATM    2  C   UNL     1     -40.907  56.692 -53.559  1.00  0.00     0.018 A 
HETATM    3  C   UNL     1     -41.405  57.968 -53.854  1.00  0.00     0.030 A 
HETATM    4  C   UNL     1     -42.146  58.189 -55.014  1.00  0.00     0.035 A 
HETATM    5  C   UNL     1     -42.343  57.124 -55.900  1.00  0.00     0.030 A 
HETATM    6  C   UNL     1     -41.848  55.849 -55.603  1.00  0.00     0.018 A 
ENDROOT
BRANCH   4   7
HETATM    7  N   UNL     1     -42.757  59.418 -55.340  1.00  0.00    -0.323 N 
HETATM    8  C   UNL     1     -42.312  60.351 -56.259  1.00  0.00     0.256 C 
HETATM    9  O   UNL     1     -41.358  60.254 -57.019  1.00  0.00    -0.267 OA
HETATM   10  H   UNL     1     -43.520  59.699 -54.737  1.00  0.00     0.169 HD
BRANCH   8  11
HETATM   11  C   UNL     1     -43.069  61.628 -56.239  1.00  0.00     0.037 A 
HETATM   12  C   UNL     1     -43.984  61.832 -55.202  1.00  0.00     0.054 A 
HETATM   13  C   UNL     1     -44.765  62.986 -55.175  1.00  0.00     0.071 A 
HETATM   14  C   UNL     1     -44.602  63.943 -56.177  1.00  0.00     0.073 A 
HETATM   15  C   UNL     1     -43.666  63.757 -57.204  1.00  0.00     0.071 A 
HETATM   16  C   UNL     1     -42.897  62.595 -57.238  1.00  0.00     0.054 A 
BRANCH  13  17
HETATM   17  O   UNL     1     -45.646  63.054 -54.130  1.00  0.00    -0.356 OA
HETATM   18  C   UNL     1     -46.539  61.960 -53.968  1.00  0.00     0.210 C 
ENDBRANCH  13  17
BRANCH  15  19
HETATM   19  O   UNL     1     -43.612  64.781 -58.111  1.00  0.00    -0.356 OA
HETATM   20  C   UNL     1     -43.373  64.436 -59.470  1.00  0.00     0.210 C 
ENDBRANCH  15  19
ENDBRANCH   8  11
ENDBRANCH   4   7
BRANCH   1  21
HETATM   21  C   UNL     1     -40.714  54.251 -54.094  1.00  0.00     0.180 A 
HETATM   22  N   UNL     1     -40.591  53.210 -54.899  1.00  0.00    -0.221 NA
HETATM   23  C   UNL     1     -40.254  52.184 -54.054  1.00  0.00     0.093 A 
HETATM   24  C   UNL     1     -40.163  52.652 -52.755  1.00  0.00     0.107 A 
HETATM   25  C   UNL     1     -40.020  50.826 -54.301  1.00  0.00     0.035 A 
HETATM   26  C   UNL     1     -39.847  51.873 -51.650  1.00  0.00     0.046 A 
HETATM   27  O   UNL     1     -40.454  53.985 -52.771  1.00  0.00    -0.289 OA
HETATM   28  C   UNL     1     -39.605  50.511 -51.902  1.00  0.00    -0.059 A 
HETATM   29  C   UNL     1     -39.300  49.581 -50.761  1.00  0.00     0.048 C 
HETATM   30  C   UNL     1     -39.703  50.000 -53.209  1.00  0.00     0.009 A 
ENDBRANCH   1  21
TORSDOF 5
ENDMDL
MODEL 10
REMARK VINA RESULT:      -7.1      2.027     11.069
REMARK  5 active torsions:
REMARK  status: ('A' for Active; 'I' for Inactive)
REMARK    1  A    between atoms: C_7  and  C_8 
REMARK    2  A    between atoms: C_11  and  N_12 
REMARK       I    between atoms: N_12  and  C_13 
REMARK    3  A    between atoms: C_13  and  C_14 
REMARK    4  A    between atoms: C_16  and  O_17 
REMARK    5  A    between atoms: C_20  and  O_21 
ROOT
HETATM    1  C   UNL     1     -44.450  59.373 -50.932  1.00  0.00     0.017 A 
HETATM    2  C   UNL     1     -45.122  58.153 -51.077  1.00  0.00     0.018 A 
HETATM    3  C   UNL     1     -44.426  56.980 -51.401  1.00  0.00     0.030 A 
HETATM    4  C   UNL     1     -43.044  57.004 -51.584  1.00  0.00     0.035 A 
HETATM    5  C   UNL     1     -42.373  58.228 -51.486  1.00  0.00     0.030 A 
HETATM    6  C   UNL     1     -43.069  59.399 -51.161  1.00  0.00     0.018 A 
ENDROOT
BRANCH   4   7
HETATM    7  N   UNL     1     -42.257  55.858 -51.822  1.00  0.00    -0.323 N 
HETATM    8  C   UNL     1     -42.149  55.153 -53.007  1.00  0.00     0.256 C 
HETATM    9  O   UNL     1     -42.645  55.433 -54.089  1.00  0.00    -0.267 OA
HETATM   10  H   UNL     1     -41.843  55.436 -51.000  1.00  0.00     0.169 HD
BRANCH   8  11
HETATM   11  C   UNL     1     -41.392  53.882 -52.887  1.00  0.00     0.037 A 
HETATM   12  C   UNL     1     -41.086  53.418 -51.604  1.00  0.00     0.054 A 
HETATM   13  C   UNL     1     -40.321  52.265 -51.441  1.00  0.00     0.071 A 
HETATM   14  C   UNL     1     -39.890  51.567 -52.570  1.00  0.00     0.073 A 
HETATM   15  C   UNL     1     -40.217  52.012 -53.858  1.00  0.00     0.071 A 
HETATM   16  C   UNL     1     -40.969  53.174 -54.020  1.00  0.00     0.054 A 
BRANCH  13  17
HETATM   17  O   UNL     1     -40.060  51.933 -50.140  1.00  0.00    -0.356 OA
HETATM   18  C   UNL     1     -40.327  50.592 -49.751  1.00  0.00     0.210 C 
ENDBRANCH  13  17
BRANCH  15  19
HETATM   19  O   UNL     1     -39.732  51.223 -54.867  1.00  0.00    -0.356 OA
HETATM   20  C   UNL     1     -39.688  49.820 -54.633  1.00  0.00     0.210 C 
ENDBRANCH  15  19
ENDBRANCH   8  11
ENDBRANCH   4   7
BRANCH   1  21
HETATM   21  C   UNL     1     -45.133  60.593 -50.507  1.00  0.00     0.180 A 
HETATM   22  N   UNL     1     -45.251  61.741 -51.151  1.00  0.00    -0.221 NA
HETATM   23  C   UNL     1     -45.899  62.552 -50.256  1.00  0.00     0.093 A 
HETATM   24  C   UNL     1     -46.173  61.849 -49.095  1.00  0.00     0.107 A 
HETATM   25  C   UNL     1     -46.282  63.896 -50.338  1.00  0.00     0.035 A 
HETATM   26  C   UNL     1     -46.816  62.374 -47.981  1.00  0.00     0.046 A 
HETATM   27  O   UNL     1     -45.688  60.584 -49.250  1.00  0.00    -0.289 OA
HETATM   28  C   UNL     1     -47.207  63.722 -48.071  1.00  0.00    -0.059 A 
HETATM   29  C   UNL     1     -47.869  64.388 -46.897  1.00  0.00     0.048 C 
HETATM   30  C   UNL     1     -46.930  64.469 -49.231  1.00  0.00     0.009 A 
ENDBRANCH   1  21
TORSDOF 5
ENDMDL
