MODEL 1
REMARK VINA RESULT:      -9.0      0.000      0.000
REMARK  6 active torsions:
REMARK  status: ('A' for Active; 'I' for Inactive)
REMARK    1  A    between atoms: C_6  and  N_7 
REMARK    2  A    between atoms: N_7  and  C_8 
REMARK    3  A    between atoms: C_8  and  N_9 
REMARK    4  A    between atoms: C_12  and  C_13 
REMARK    5  A    between atoms: N_15  and  C_16 
REMARK    6  A    between atoms: C_22  and  O_23 
ROOT
HETATM    1  N   UNL     1     -42.605  56.462 -52.396  1.00  0.00    -0.358 N 
HETATM    2  C   UNL     1     -43.761  56.188 -53.256  1.00  0.00     0.126 C 
HETATM    3  C   UNL     1     -44.472  57.478 -53.649  1.00  0.00     0.031 C 
HETATM    4  C   UNL     1     -43.525  58.471 -54.337  1.00  0.00     0.043 C 
HETATM    5  C   UNL     1     -42.260  58.680 -53.490  1.00  0.00     0.031 C 
HETATM    6  C   UNL     1     -41.628  57.377 -53.001  1.00  0.00     0.126 C 
ENDROOT
BRANCH   4   7
HETATM    7  C   UNL     1     -43.267  58.095 -55.773  1.00  0.00     0.063 C 
HETATM    8  N   UNL     1     -44.236  57.629 -56.566  1.00  0.00    -0.169 NA
HETATM    9  N   UNL     1     -43.632  57.369 -57.759  1.00  0.00    -0.211 N 
HETATM   10  C   UNL     1     -42.328  57.866 -57.770  1.00  0.00     0.165 C 
HETATM   11  C   UNL     1     -42.051  58.236 -56.476  1.00  0.00     0.087 C 
BRANCH   9  12
HETATM   12  C   UNL     1     -44.341  56.672 -58.779  1.00  0.00     0.061 A 
HETATM   13  C   UNL     1     -43.831  55.454 -59.256  1.00  0.00     0.031 A 
HETATM   14  C   UNL     1     -44.510  54.748 -60.252  1.00  0.00     0.002 A 
HETATM   15  C   UNL     1     -45.688  55.257 -60.791  1.00  0.00     0.000 A 
HETATM   16  C   UNL     1     -46.187  56.480 -60.344  1.00  0.00     0.002 A 
HETATM   17  C   UNL     1     -45.514  57.192 -59.345  1.00  0.00     0.031 A 
ENDBRANCH   9  12
BRANCH  10  18
HETATM   18  O   UNL     1     -41.547  57.985 -58.844  1.00  0.00    -0.345 OA
HETATM   19  H   UNL     1     -41.215  57.100 -59.082  1.00  0.00     0.219 HD
ENDBRANCH  10  18
ENDBRANCH   4   7
BRANCH   1  20
HETATM   20  C   UNL     1     -42.096  55.460 -51.578  1.00  0.00     0.174 C 
HETATM   21  S   UNL     1     -42.873  54.826 -50.228  1.00  0.00    -0.041 SA
BRANCH  20  22
HETATM   22  N   UNL     1     -40.901  54.884 -51.911  1.00  0.00    -0.333 N 
HETATM   23  H   UNL     1     -40.130  55.542 -51.863  1.00  0.00     0.168 HD
BRANCH  22  24
HETATM   24  C   UNL     1     -40.602  53.662 -52.552  1.00  0.00     0.034 A 
HETATM   25  C   UNL     1     -40.190  52.602 -51.734  1.00  0.00     0.036 A 
HETATM   26  C   UNL     1     -39.824  51.354 -52.273  1.00  0.00    -0.054 A 
HETATM   27  C   UNL     1     -39.850  51.176 -53.668  1.00  0.00    -0.056 A 
HETATM   28  C   UNL     1     -39.373  50.258 -51.346  1.00  0.00     0.049 C 
HETATM   29  C   UNL     1     -39.471  49.867 -54.304  1.00  0.00     0.049 C 
HETATM   30  C   UNL     1     -40.261  52.240 -54.482  1.00  0.00     0.009 A 
HETATM   31  C   UNL     1     -40.622  53.474 -53.930  1.00  0.00     0.030 A 
ENDBRANCH  22  24
ENDBRANCH  20  22
ENDBRANCH   1  20
TORSDOF 6
ENDMDL
MODEL 2
REMARK VINA RESULT:      -8.7      1.697      2.117
REMARK  6 active torsions:
REMARK  status: ('A' for Active; 'I' for Inactive)
REMARK    1  A    between atoms: C_6  and  N_7 
REMARK    2  A    between atoms: N_7  and  C_8 
REMARK    3  A    between atoms: C_8  and  N_9 
REMARK    4  A    between atoms: C_12  and  C_13 
REMARK    5  A    between atoms: N_15  and  C_16 
REMARK    6  A    between atoms: C_22  and  O_23 
ROOT
HETATM    1  N   UNL     1     -41.870  56.966 -51.982  1.00  0.00    -0.358 N 
HETATM    2  C   UNL     1     -43.089  57.728 -52.274  1.00  0.00     0.126 C 
HETATM    3  C   UNL     1     -42.808  59.226 -52.296  1.00  0.00     0.031 C 
HETATM    4  C   UNL     1     -41.705  59.591 -53.298  1.00  0.00     0.043 C 
HETATM    5  C   UNL     1     -40.461  58.719 -53.066  1.00  0.00     0.031 C 
HETATM    6  C   UNL     1     -40.774  57.230 -52.924  1.00  0.00     0.126 C 
ENDROOT
BRANCH   4   7
HETATM    7  C   UNL     1     -42.216  59.596 -54.715  1.00  0.00     0.063 C 
HETATM    8  N   UNL     1     -42.188  58.501 -55.480  1.00  0.00    -0.169 NA
HETATM    9  N   UNL     1     -42.690  58.890 -56.685  1.00  0.00    -0.211 N 
HETATM   10  C   UNL     1     -43.220  60.179 -56.606  1.00  0.00     0.165 C 
HETATM   11  C   UNL     1     -42.830  60.676 -55.386  1.00  0.00     0.087 C 
BRANCH   9  12
HETATM   12  C   UNL     1     -42.621  58.010 -57.803  1.00  0.00     0.061 A 
HETATM   13  C   UNL     1     -43.223  56.745 -57.714  1.00  0.00     0.031 A 
HETATM   14  C   UNL     1     -43.175  55.863 -58.797  1.00  0.00     0.002 A 
HETATM   15  C   UNL     1     -42.515  56.230 -59.967  1.00  0.00     0.000 A 
HETATM   16  C   UNL     1     -41.890  57.474 -60.054  1.00  0.00     0.002 A 
HETATM   17  C   UNL     1     -41.936  58.361 -58.974  1.00  0.00     0.031 A 
ENDBRANCH   9  12
BRANCH  10  18
HETATM   18  O   UNL     1     -43.985  60.766 -57.527  1.00  0.00    -0.345 OA
HETATM   19  H   UNL     1     -44.827  61.024 -57.109  1.00  0.00     0.219 HD
ENDBRANCH  10  18
ENDBRANCH   4   7
BRANCH   1  20
HETATM   20  C   UNL     1     -41.963  55.672 -51.484  1.00  0.00     0.174 C 
HETATM   21  S   UNL     1     -43.371  54.960 -50.898  1.00  0.00    -0.041 SA
BRANCH  20  22
HETATM   22  N   UNL     1     -40.855  54.872 -51.520  1.00  0.00    -0.333 N 
HETATM   23  H   UNL     1     -40.043  55.321 -51.110  1.00  0.00     0.168 HD
BRANCH  22  24
HETATM   24  C   UNL     1     -40.580  53.693 -52.247  1.00  0.00     0.034 A 
HETATM   25  C   UNL     1     -40.176  52.573 -51.508  1.00  0.00     0.036 A 
HETATM   26  C   UNL     1     -39.834  51.360 -52.135  1.00  0.00    -0.054 A 
HETATM   27  C   UNL     1     -39.874  51.280 -53.539  1.00  0.00    -0.056 A 
HETATM   28  C   UNL     1     -39.391  50.197 -51.291  1.00  0.00     0.049 C 
HETATM   29  C   UNL     1     -39.520  50.012 -54.268  1.00  0.00     0.049 C 
HETATM   30  C   UNL     1     -40.276  52.404 -54.274  1.00  0.00     0.009 A 
HETATM   31  C   UNL     1     -40.614  53.601 -53.634  1.00  0.00     0.030 A 
ENDBRANCH  22  24
ENDBRANCH  20  22
ENDBRANCH   1  20
TORSDOF 6
ENDMDL
MODEL 3
REMARK VINA RESULT:      -8.6      4.478      7.551
REMARK  6 active torsions:
REMARK  status: ('A' for Active; 'I' for Inactive)
REMARK    1  A    between atoms: C_6  and  N_7 
REMARK    2  A    between atoms: N_7  and  C_8 
REMARK    3  A    between atoms: C_8  and  N_9 
REMARK    4  A    between atoms: C_12  and  C_13 
REMARK    5  A    between atoms: N_15  and  C_16 
REMARK    6  A    between atoms: C_22  and  O_23 
ROOT
HETATM    1  N   UNL     1     -41.624  56.860 -53.023  1.00  0.00    -0.358 N 
HETATM    2  C   UNL     1     -41.676  56.922 -51.560  1.00  0.00     0.126 C 
HETATM    3  C   UNL     1     -40.930  58.143 -51.034  1.00  0.00     0.031 C 
HETATM    4  C   UNL     1     -41.464  59.449 -51.638  1.00  0.00     0.043 C 
HETATM    5  C   UNL     1     -41.514  59.350 -53.170  1.00  0.00     0.031 C 
HETATM    6  C   UNL     1     -42.157  58.060 -53.681  1.00  0.00     0.126 C 
ENDROOT
BRANCH   4   7
HETATM    7  C   UNL     1     -42.757  59.876 -50.992  1.00  0.00     0.063 C 
HETATM    8  N   UNL     1     -42.805  60.863 -50.093  1.00  0.00    -0.169 NA
HETATM    9  N   UNL     1     -44.111  60.940 -49.711  1.00  0.00    -0.211 N 
HETATM   10  C   UNL     1     -44.911  60.135 -50.525  1.00  0.00     0.165 C 
HETATM   11  C   UNL     1     -44.046  59.374 -51.275  1.00  0.00     0.087 C 
BRANCH   9  12
HETATM   12  C   UNL     1     -44.484  61.765 -48.612  1.00  0.00     0.061 A 
HETATM   13  C   UNL     1     -44.893  61.160 -47.412  1.00  0.00     0.031 A 
HETATM   14  C   UNL     1     -45.260  61.945 -46.316  1.00  0.00     0.002 A 
HETATM   15  C   UNL     1     -45.236  63.334 -46.413  1.00  0.00     0.000 A 
HETATM   16  C   UNL     1     -44.858  63.943 -47.609  1.00  0.00     0.002 A 
HETATM   17  C   UNL     1     -44.488  63.163 -48.710  1.00  0.00     0.031 A 
ENDBRANCH   9  12
BRANCH  10  18
HETATM   18  O   UNL     1     -46.243  60.155 -50.573  1.00  0.00    -0.345 OA
HETATM   19  H   UNL     1     -46.584  59.531 -49.907  1.00  0.00     0.219 HD
ENDBRANCH  10  18
ENDBRANCH   4   7
BRANCH   1  20
HETATM   20  C   UNL     1     -41.833  55.650 -53.674  1.00  0.00     0.174 C 
HETATM   21  S   UNL     1     -43.295  55.151 -54.342  1.00  0.00    -0.041 SA
BRANCH  20  22
HETATM   22  N   UNL     1     -40.771  54.808 -53.857  1.00  0.00    -0.333 N 
HETATM   23  H   UNL     1     -40.300  54.970 -54.740  1.00  0.00     0.168 HD
BRANCH  22  24
HETATM   24  C   UNL     1     -40.398  53.620 -53.192  1.00  0.00     0.034 A 
HETATM   25  C   UNL     1     -40.202  52.483 -53.987  1.00  0.00     0.036 A 
HETATM   26  C   UNL     1     -39.873  51.237 -53.423  1.00  0.00    -0.054 A 
HETATM   27  C   UNL     1     -39.763  51.125 -52.025  1.00  0.00    -0.056 A 
HETATM   28  C   UNL     1     -39.692  50.048 -54.325  1.00  0.00     0.049 C 
HETATM   29  C   UNL     1     -39.413  49.821 -51.361  1.00  0.00     0.049 C 
HETATM   30  C   UNL     1     -39.962  52.264 -51.233  1.00  0.00     0.009 A 
HETATM   31  C   UNL     1     -40.288  53.497 -51.811  1.00  0.00     0.030 A 
ENDBRANCH  22  24
ENDBRANCH  20  22
ENDBRANCH   1  20
TORSDOF 6
ENDMDL
MODEL 4
REMARK VINA RESULT:      -8.4      2.860      7.148
REMARK  6 active torsions:
REMARK  status: ('A' for Active; 'I' for Inactive)
REMARK    1  A    between atoms: C_6  and  N_7 
REMARK    2  A    between atoms: N_7  and  C_8 
REMARK    3  A    between atoms: C_8  and  N_9 
REMARK    4  A    between atoms: C_12  and  C_13 
REMARK    5  A    between atoms: N_15  and  C_16 
REMARK    6  A    between atoms: C_22  and  O_23 
ROOT
HETATM    1  N   UNL     1     -42.378  59.884 -54.055  1.00  0.00    -0.358 N 
HETATM    2  C   UNL     1     -41.238  59.010 -53.767  1.00  0.00     0.126 C 
HETATM    3  C   UNL     1     -40.978  58.920 -52.268  1.00  0.00     0.031 C 
HETATM    4  C   UNL     1     -42.216  58.444 -51.496  1.00  0.00     0.043 C 
HETATM    5  C   UNL     1     -43.441  59.289 -51.875  1.00  0.00     0.031 C 
HETATM    6  C   UNL     1     -43.618  59.471 -53.383  1.00  0.00     0.126 C 
ENDROOT
BRANCH   4   7
HETATM    7  C   UNL     1     -42.414  56.955 -51.621  1.00  0.00     0.063 C 
HETATM    8  N   UNL     1     -41.399  56.126 -51.881  1.00  0.00    -0.169 NA
HETATM    9  N   UNL     1     -41.956  54.886 -51.955  1.00  0.00    -0.211 N 
HETATM   10  C   UNL     1     -43.288  54.917 -51.538  1.00  0.00     0.165 C 
HETATM   11  C   UNL     1     -43.618  56.246 -51.423  1.00  0.00     0.087 C 
BRANCH   9  12
HETATM   12  C   UNL     1     -41.180  53.783 -52.415  1.00  0.00     0.061 A 
HETATM   13  C   UNL     1     -41.250  53.415 -53.768  1.00  0.00     0.031 A 
HETATM   14  C   UNL     1     -40.495  52.341 -54.246  1.00  0.00     0.002 A 
HETATM   15  C   UNL     1     -39.681  51.618 -53.379  1.00  0.00     0.000 A 
HETATM   16  C   UNL     1     -39.628  51.958 -52.028  1.00  0.00     0.002 A 
HETATM   17  C   UNL     1     -40.378  53.033 -51.542  1.00  0.00     0.031 A 
ENDBRANCH   9  12
BRANCH  10  18
HETATM   18  O   UNL     1     -44.047  53.854 -51.271  1.00  0.00    -0.345 OA
HETATM   19  H   UNL     1     -43.859  53.563 -50.359  1.00  0.00     0.219 HD
ENDBRANCH  10  18
ENDBRANCH   4   7
BRANCH   1  20
HETATM   20  C   UNL     1     -42.515  60.455 -55.315  1.00  0.00     0.174 C 
HETATM   21  S   UNL     1     -43.302  61.907 -55.638  1.00  0.00    -0.041 SA
BRANCH  20  22
HETATM   22  N   UNL     1     -41.919  59.844 -56.382  1.00  0.00    -0.333 N 
HETATM   23  H   UNL     1     -41.118  60.363 -56.725  1.00  0.00     0.168 HD
BRANCH  22  24
HETATM   24  C   UNL     1     -42.365  58.808 -57.232  1.00  0.00     0.034 A 
HETATM   25  C   UNL     1     -42.485  57.532 -56.667  1.00  0.00     0.036 A 
HETATM   26  C   UNL     1     -42.877  56.420 -57.435  1.00  0.00    -0.054 A 
HETATM   27  C   UNL     1     -43.130  56.591 -58.809  1.00  0.00    -0.056 A 
HETATM   28  C   UNL     1     -42.972  55.071 -56.778  1.00  0.00     0.049 C 
HETATM   29  C   UNL     1     -43.553  55.441 -59.683  1.00  0.00     0.049 C 
HETATM   30  C   UNL     1     -43.006  57.869 -59.370  1.00  0.00     0.009 A 
HETATM   31  C   UNL     1     -42.616  58.964 -58.591  1.00  0.00     0.030 A 
ENDBRANCH  22  24
ENDBRANCH  20  22
ENDBRANCH   1  20
TORSDOF 6
ENDMDL
MODEL 5
REMARK VINA RESULT:      -8.4      2.939      7.585
REMARK  6 active torsions:
REMARK  status: ('A' for Active; 'I' for Inactive)
REMARK    1  A    between atoms: C_6  and  N_7 
REMARK    2  A    between atoms: N_7  and  C_8 
REMARK    3  A    between atoms: C_8  and  N_9 
REMARK    4  A    between atoms: C_12  and  C_13 
REMARK    5  A    between atoms: N_15  and  C_16 
REMARK    6  A    between atoms: C_22  and  O_23 
ROOT
HETATM    1  N   UNL     1     -42.284  59.952 -53.560  1.00  0.00    -0.358 N 
HETATM    2  C   UNL     1     -41.157  59.019 -53.459  1.00  0.00     0.126 C 
HETATM    3  C   UNL     1     -40.776  58.774 -52.003  1.00  0.00     0.031 C 
HETATM    4  C   UNL     1     -41.962  58.261 -51.176  1.00  0.00     0.043 C 
HETATM    5  C   UNL     1     -43.182  59.176 -51.363  1.00  0.00     0.031 C 
HETATM    6  C   UNL     1     -43.477  59.511 -52.825  1.00  0.00     0.126 C 
ENDROOT
BRANCH   4   7
HETATM    7  C   UNL     1     -42.226  56.798 -51.425  1.00  0.00     0.063 C 
HETATM    8  N   UNL     1     -41.239  55.936 -51.682  1.00  0.00    -0.169 NA
HETATM    9  N   UNL     1     -41.852  54.736 -51.884  1.00  0.00    -0.211 N 
HETATM   10  C   UNL     1     -43.205  54.812 -51.551  1.00  0.00     0.165 C 
HETATM   11  C   UNL     1     -43.475  56.145 -51.358  1.00  0.00     0.087 C 
BRANCH   9  12
HETATM   12  C   UNL     1     -41.103  53.628 -52.376  1.00  0.00     0.061 A 
HETATM   13  C   UNL     1     -41.226  53.266 -53.727  1.00  0.00     0.031 A 
HETATM   14  C   UNL     1     -40.500  52.187 -54.236  1.00  0.00     0.002 A 
HETATM   15  C   UNL     1     -39.661  51.453 -53.402  1.00  0.00     0.000 A 
HETATM   16  C   UNL     1     -39.555  51.788 -52.052  1.00  0.00     0.002 A 
HETATM   17  C   UNL     1     -40.277  52.869 -51.536  1.00  0.00     0.031 A 
ENDBRANCH   9  12
BRANCH  10  18
HETATM   18  O   UNL     1     -44.033  53.776 -51.414  1.00  0.00    -0.345 OA
HETATM   19  H   UNL     1     -44.484  53.627 -52.266  1.00  0.00     0.219 HD
ENDBRANCH  10  18
ENDBRANCH   4   7
BRANCH   1  20
HETATM   20  C   UNL     1     -42.505  60.649 -54.742  1.00  0.00     0.174 C 
HETATM   21  S   UNL     1     -43.501  61.995 -54.899  1.00  0.00    -0.041 SA
BRANCH  20  22
HETATM   22  N   UNL     1     -41.822  60.270 -55.865  1.00  0.00    -0.333 N 
HETATM   23  H   UNL     1     -41.110  60.944 -56.127  1.00  0.00     0.168 HD
BRANCH  22  24
HETATM   24  C   UNL     1     -42.106  59.292 -56.843  1.00  0.00     0.034 A 
HETATM   25  C   UNL     1     -41.899  59.654 -58.181  1.00  0.00     0.036 A 
HETATM   26  C   UNL     1     -42.192  58.772 -59.237  1.00  0.00    -0.054 A 
HETATM   27  C   UNL     1     -42.730  57.505 -58.943  1.00  0.00    -0.056 A 
HETATM   28  C   UNL     1     -41.966  59.222 -60.654  1.00  0.00     0.049 C 
HETATM   29  C   UNL     1     -43.064  56.518 -60.027  1.00  0.00     0.049 C 
HETATM   30  C   UNL     1     -42.937  57.149 -57.604  1.00  0.00     0.009 A 
HETATM   31  C   UNL     1     -42.639  58.038 -56.565  1.00  0.00     0.030 A 
ENDBRANCH  22  24
ENDBRANCH  20  22
ENDBRANCH   1  20
TORSDOF 6
ENDMDL
MODEL 6
REMARK VINA RESULT:      -8.3      2.681      7.646
REMARK  6 active torsions:
REMARK  status: ('A' for Active; 'I' for Inactive)
REMARK    1  A    between atoms: C_6  and  N_7 
REMARK    2  A    between atoms: N_7  and  C_8 
REMARK    3  A    between atoms: C_8  and  N_9 
REMARK    4  A    between atoms: C_12  and  C_13 
REMARK    5  A    between atoms: N_15  and  C_16 
REMARK    6  A    between atoms: C_22  and  O_23 
ROOT
HETATM    1  N   UNL     1     -43.587  59.384 -55.135  1.00  0.00    -0.358 N 
HETATM    2  C   UNL     1     -42.374  58.565 -55.212  1.00  0.00     0.126 C 
HETATM    3  C   UNL     1     -41.525  58.720 -53.955  1.00  0.00     0.031 C 
HETATM    4  C   UNL     1     -42.312  58.380 -52.683  1.00  0.00     0.043 C 
HETATM    5  C   UNL     1     -43.638  59.155 -52.649  1.00  0.00     0.031 C 
HETATM    6  C   UNL     1     -44.420  59.090 -53.961  1.00  0.00     0.126 C 
ENDROOT
BRANCH   4   7
HETATM    7  C   UNL     1     -42.448  56.891 -52.490  1.00  0.00     0.063 C 
HETATM    8  N   UNL     1     -41.410  56.062 -52.639  1.00  0.00    -0.169 NA
HETATM    9  N   UNL     1     -41.912  54.814 -52.425  1.00  0.00    -0.211 N 
HETATM   10  C   UNL     1     -43.220  54.885 -51.943  1.00  0.00     0.165 C 
HETATM   11  C   UNL     1     -43.606  56.197 -52.081  1.00  0.00     0.087 C 
BRANCH   9  12
HETATM   12  C   UNL     1     -41.111  53.668 -52.698  1.00  0.00     0.061 A 
HETATM   13  C   UNL     1     -41.074  53.156 -54.005  1.00  0.00     0.031 A 
HETATM   14  C   UNL     1     -40.293  52.036 -54.301  1.00  0.00     0.002 A 
HETATM   15  C   UNL     1     -39.558  51.411 -53.297  1.00  0.00     0.000 A 
HETATM   16  C   UNL     1     -39.612  51.896 -51.990  1.00  0.00     0.002 A 
HETATM   17  C   UNL     1     -40.390  53.018 -51.687  1.00  0.00     0.031 A 
ENDBRANCH   9  12
BRANCH  10  18
HETATM   18  O   UNL     1     -43.914  53.873 -51.420  1.00  0.00    -0.345 OA
HETATM   19  H   UNL     1     -43.956  53.996 -50.454  1.00  0.00     0.219 HD
ENDBRANCH  10  18
ENDBRANCH   4   7
BRANCH   1  20
HETATM   20  C   UNL     1     -44.257  59.743 -56.298  1.00  0.00     0.174 C 
HETATM   21  S   UNL     1     -43.865  61.056 -57.275  1.00  0.00    -0.041 SA
BRANCH  20  22
HETATM   22  N   UNL     1     -45.278  58.947 -56.741  1.00  0.00    -0.333 N 
HETATM   23  H   UNL     1     -46.033  58.881 -56.067  1.00  0.00     0.168 HD
BRANCH  22  24
HETATM   24  C   UNL     1     -45.342  58.018 -57.802  1.00  0.00     0.034 A 
HETATM   25  C   UNL     1     -44.140  57.411 -58.187  1.00  0.00     0.036 A 
HETATM   26  C   UNL     1     -44.083  56.504 -59.261  1.00  0.00    -0.054 A 
HETATM   27  C   UNL     1     -45.257  56.220 -59.982  1.00  0.00    -0.056 A 
HETATM   28  C   UNL     1     -42.760  55.897 -59.640  1.00  0.00     0.049 C 
HETATM   29  C   UNL     1     -45.261  55.260 -61.140  1.00  0.00     0.049 C 
HETATM   30  C   UNL     1     -46.457  56.832 -59.595  1.00  0.00     0.009 A 
HETATM   31  C   UNL     1     -46.497  57.730 -58.523  1.00  0.00     0.030 A 
ENDBRANCH  22  24
ENDBRANCH  20  22
ENDBRANCH   1  20
TORSDOF 6
ENDMDL
MODEL 7
REMARK VINA RESULT:      -8.2      2.554      7.156
REMARK  6 active torsions:
REMARK  status: ('A' for Active; 'I' for Inactive)
REMARK    1  A    between atoms: C_6  and  N_7 
REMARK    2  A    between atoms: N_7  and  C_8 
REMARK    3  A    between atoms: C_8  and  N_9 
REMARK    4  A    between atoms: C_12  and  C_13 
REMARK    5  A    between atoms: N_15  and  C_16 
REMARK    6  A    between atoms: C_22  and  O_23 
ROOT
HETATM    1  N   UNL     1     -44.089  58.601 -52.753  1.00  0.00    -0.358 N 
HETATM    2  C   UNL     1     -42.648  58.746 -52.978  1.00  0.00     0.126 C 
HETATM    3  C   UNL     1     -41.850  58.230 -51.786  1.00  0.00     0.031 C 
HETATM    4  C   UNL     1     -42.188  56.770 -51.455  1.00  0.00     0.043 C 
HETATM    5  C   UNL     1     -43.708  56.589 -51.324  1.00  0.00     0.031 C 
HETATM    6  C   UNL     1     -44.502  57.220 -52.468  1.00  0.00     0.126 C 
ENDROOT
BRANCH   4   7
HETATM    7  C   UNL     1     -41.518  55.812 -52.406  1.00  0.00     0.063 C 
HETATM    8  N   UNL     1     -41.490  54.496 -52.179  1.00  0.00    -0.169 NA
HETATM    9  N   UNL     1     -40.782  53.966 -53.215  1.00  0.00    -0.211 N 
HETATM   10  C   UNL     1     -40.544  54.932 -54.194  1.00  0.00     0.165 C 
HETATM   11  C   UNL     1     -40.917  56.133 -53.642  1.00  0.00     0.087 C 
BRANCH   9  12
HETATM   12  C   UNL     1     -40.393  52.596 -53.184  1.00  0.00     0.061 A 
HETATM   13  C   UNL     1     -39.841  52.069 -52.006  1.00  0.00     0.031 A 
HETATM   14  C   UNL     1     -39.455  50.727 -51.947  1.00  0.00     0.002 A 
HETATM   15  C   UNL     1     -39.602  49.909 -53.064  1.00  0.00     0.000 A 
HETATM   16  C   UNL     1     -40.123  50.431 -54.248  1.00  0.00     0.002 A 
HETATM   17  C   UNL     1     -40.513  51.773 -54.313  1.00  0.00     0.031 A 
ENDBRANCH   9  12
BRANCH  10  18
HETATM   18  O   UNL     1     -40.087  54.698 -55.425  1.00  0.00    -0.345 OA
HETATM   19  H   UNL     1     -40.211  55.505 -55.957  1.00  0.00     0.219 HD
ENDBRANCH  10  18
ENDBRANCH   4   7
BRANCH   1  20
HETATM   20  C   UNL     1     -44.986  59.382 -53.472  1.00  0.00     0.174 C 
HETATM   21  S   UNL     1     -45.588  60.872 -52.972  1.00  0.00    -0.041 SA
BRANCH  20  22
HETATM   22  N   UNL     1     -45.377  58.961 -54.713  1.00  0.00    -0.333 N 
HETATM   23  H   UNL     1     -46.307  58.557 -54.706  1.00  0.00     0.168 HD
BRANCH  22  24
HETATM   24  C   UNL     1     -44.641  58.743 -55.898  1.00  0.00     0.034 A 
HETATM   25  C   UNL     1     -44.192  57.437 -56.133  1.00  0.00     0.036 A 
HETATM   26  C   UNL     1     -43.412  57.118 -57.260  1.00  0.00    -0.054 A 
HETATM   27  C   UNL     1     -43.053  58.141 -58.157  1.00  0.00    -0.056 A 
HETATM   28  C   UNL     1     -42.945  55.701 -57.452  1.00  0.00     0.049 C 
HETATM   29  C   UNL     1     -42.221  57.863 -59.380  1.00  0.00     0.049 C 
HETATM   30  C   UNL     1     -43.502  59.446 -57.916  1.00  0.00     0.009 A 
HETATM   31  C   UNL     1     -44.278  59.746 -56.791  1.00  0.00     0.030 A 
ENDBRANCH  22  24
ENDBRANCH  20  22
ENDBRANCH   1  20
TORSDOF 6
ENDMDL
MODEL 8
REMARK VINA RESULT:      -8.2      2.645      7.884
REMARK  6 active torsions:
REMARK  status: ('A' for Active; 'I' for Inactive)
REMARK    1  A    between atoms: C_6  and  N_7 
REMARK    2  A    between atoms: N_7  and  C_8 
REMARK    3  A    between atoms: C_8  and  N_9 
REMARK    4  A    between atoms: C_12  and  C_13 
REMARK    5  A    between atoms: N_15  and  C_16 
REMARK    6  A    between atoms: C_22  and  O_23 
ROOT
HETATM    1  N   UNL     1     -42.832  58.253 -54.894  1.00  0.00    -0.358 N 
HETATM    2  C   UNL     1     -41.652  58.514 -54.064  1.00  0.00     0.126 C 
HETATM    3  C   UNL     1     -42.049  58.818 -52.624  1.00  0.00     0.031 C 
HETATM    4  C   UNL     1     -42.890  57.691 -52.008  1.00  0.00     0.043 C 
HETATM    5  C   UNL     1     -44.069  57.338 -52.928  1.00  0.00     0.031 C 
HETATM    6  C   UNL     1     -43.671  57.156 -54.392  1.00  0.00     0.126 C 
ENDROOT
BRANCH   4   7
HETATM    7  C   UNL     1     -42.037  56.518 -51.598  1.00  0.00     0.063 C 
HETATM    8  N   UNL     1     -41.627  55.601 -52.479  1.00  0.00    -0.169 NA
HETATM    9  N   UNL     1     -40.921  54.691 -51.751  1.00  0.00    -0.211 N 
HETATM   10  C   UNL     1     -40.720  55.152 -50.448  1.00  0.00     0.165 C 
HETATM   11  C   UNL     1     -41.516  56.264 -50.311  1.00  0.00     0.087 C 
BRANCH   9  12
HETATM   12  C   UNL     1     -40.502  53.469 -52.351  1.00  0.00     0.061 A 
HETATM   13  C   UNL     1     -40.730  53.268 -53.721  1.00  0.00     0.031 A 
HETATM   14  C   UNL     1     -40.324  52.080 -54.336  1.00  0.00     0.002 A 
HETATM   15  C   UNL     1     -39.706  51.082 -53.588  1.00  0.00     0.000 A 
HETATM   16  C   UNL     1     -39.502  51.262 -52.220  1.00  0.00     0.002 A 
HETATM   17  C   UNL     1     -39.903  52.449 -51.599  1.00  0.00     0.031 A 
ENDBRANCH   9  12
BRANCH  10  18
HETATM   18  O   UNL     1     -39.885  54.622 -49.554  1.00  0.00    -0.345 OA
HETATM   19  H   UNL     1     -40.310  53.835 -49.166  1.00  0.00     0.219 HD
ENDBRANCH  10  18
ENDBRANCH   4   7
BRANCH   1  20
HETATM   20  C   UNL     1     -42.755  58.395 -56.275  1.00  0.00     0.174 C 
HETATM   21  S   UNL     1     -42.189  59.762 -57.076  1.00  0.00    -0.041 SA
BRANCH  20  22
HETATM   22  N   UNL     1     -43.098  57.333 -57.065  1.00  0.00    -0.333 N 
HETATM   23  H   UNL     1     -42.332  56.679 -57.183  1.00  0.00     0.168 HD
BRANCH  22  24
HETATM   24  C   UNL     1     -44.192  57.134 -57.936  1.00  0.00     0.034 A 
HETATM   25  C   UNL     1     -44.047  56.147 -58.919  1.00  0.00     0.036 A 
HETATM   26  C   UNL     1     -45.057  55.897 -59.867  1.00  0.00    -0.054 A 
HETATM   27  C   UNL     1     -46.229  56.675 -59.840  1.00  0.00    -0.056 A 
HETATM   28  C   UNL     1     -44.838  54.836 -60.910  1.00  0.00     0.049 C 
HETATM   29  C   UNL     1     -47.344  56.457 -60.826  1.00  0.00     0.049 C 
HETATM   30  C   UNL     1     -46.368  57.663 -58.856  1.00  0.00     0.009 A 
HETATM   31  C   UNL     1     -45.354  57.897 -57.921  1.00  0.00     0.030 A 
ENDBRANCH  22  24
ENDBRANCH  20  22
ENDBRANCH   1  20
TORSDOF 6
ENDMDL
MODEL 9
REMARK VINA RESULT:      -8.0     15.372     17.230
REMARK  6 active torsions:
REMARK  status: ('A' for Active; 'I' for Inactive)
REMARK    1  A    between atoms: C_6  and  N_7 
REMARK    2  A    between atoms: N_7  and  C_8 
REMARK    3  A    between atoms: C_8  and  N_9 
REMARK    4  A    between atoms: C_12  and  C_13 
REMARK    5  A    between atoms: N_15  and  C_16 
REMARK    6  A    between atoms: C_22  and  O_23 
ROOT
HETATM    1  N   UNL     1     -34.501  40.637 -54.898  1.00  0.00    -0.358 N 
HETATM    2  C   UNL     1     -35.305  39.572 -55.506  1.00  0.00     0.126 C 
HETATM    3  C   UNL     1     -36.795  39.843 -55.335  1.00  0.00     0.031 C 
HETATM    4  C   UNL     1     -37.203  41.206 -55.910  1.00  0.00     0.043 C 
HETATM    5  C   UNL     1     -36.292  42.314 -55.359  1.00  0.00     0.031 C 
HETATM    6  C   UNL     1     -34.803  41.974 -55.427  1.00  0.00     0.126 C 
ENDROOT
BRANCH   4   7
HETATM    7  C   UNL     1     -37.312  41.169 -57.413  1.00  0.00     0.063 C 
HETATM    8  N   UNL     1     -37.861  40.134 -58.055  1.00  0.00    -0.169 NA
HETATM    9  N   UNL     1     -37.754  40.435 -59.379  1.00  0.00    -0.211 N 
HETATM   10  C   UNL     1     -37.322  41.751 -59.553  1.00  0.00     0.165 C 
HETATM   11  C   UNL     1     -36.938  42.192 -58.310  1.00  0.00     0.087 C 
BRANCH   9  12
HETATM   12  C   UNL     1     -38.067  39.450 -60.361  1.00  0.00     0.061 A 
HETATM   13  C   UNL     1     -39.168  38.604 -60.152  1.00  0.00     0.031 A 
HETATM   14  C   UNL     1     -39.500  37.634 -61.101  1.00  0.00     0.002 A 
HETATM   15  C   UNL     1     -38.730  37.490 -62.252  1.00  0.00     0.000 A 
HETATM   16  C   UNL     1     -37.618  38.307 -62.453  1.00  0.00     0.002 A 
HETATM   17  C   UNL     1     -37.281  39.282 -61.509  1.00  0.00     0.031 A 
ENDBRANCH   9  12
BRANCH  10  18
HETATM   18  O   UNL     1     -37.332  42.430 -60.701  1.00  0.00    -0.345 OA
HETATM   19  H   UNL     1     -37.322  41.790 -61.437  1.00  0.00     0.219 HD
ENDBRANCH  10  18
ENDBRANCH   4   7
BRANCH   1  20
HETATM   20  C   UNL     1     -33.179  40.393 -54.545  1.00  0.00     0.174 C 
HETATM   21  S   UNL     1     -31.976  39.873 -55.601  1.00  0.00    -0.041 SA
BRANCH  20  22
HETATM   22  N   UNL     1     -32.783  40.648 -53.262  1.00  0.00    -0.333 N 
HETATM   23  H   UNL     1     -31.923  41.184 -53.224  1.00  0.00     0.168 HD
BRANCH  22  24
HETATM   24  C   UNL     1     -33.189  40.086 -52.032  1.00  0.00     0.034 A 
HETATM   25  C   UNL     1     -32.319  40.244 -50.945  1.00  0.00     0.036 A 
HETATM   26  C   UNL     1     -32.604  39.684 -49.685  1.00  0.00    -0.054 A 
HETATM   27  C   UNL     1     -33.778  38.928 -49.522  1.00  0.00    -0.056 A 
HETATM   28  C   UNL     1     -31.624  39.872 -48.560  1.00  0.00     0.049 C 
HETATM   29  C   UNL     1     -34.139  38.304 -48.201  1.00  0.00     0.049 C 
HETATM   30  C   UNL     1     -34.644  38.770 -50.612  1.00  0.00     0.009 A 
HETATM   31  C   UNL     1     -34.346  39.334 -51.858  1.00  0.00     0.030 A 
ENDBRANCH  22  24
ENDBRANCH  20  22
ENDBRANCH   1  20
TORSDOF 6
ENDMDL
MODEL 10
REMARK VINA RESULT:      -7.9      2.412      3.666
REMARK  6 active torsions:
REMARK  status: ('A' for Active; 'I' for Inactive)
REMARK    1  A    between atoms: C_6  and  N_7 
REMARK    2  A    between atoms: N_7  and  C_8 
REMARK    3  A    between atoms: C_8  and  N_9 
REMARK    4  A    between atoms: C_12  and  C_13 
REMARK    5  A    between atoms: N_15  and  C_16 
REMARK    6  A    between atoms: C_22  and  O_23 
ROOT
HETATM    1  N   UNL     1     -42.178  56.480 -55.632  1.00  0.00    -0.358 N 
HETATM    2  C   UNL     1     -42.478  57.851 -56.055  1.00  0.00     0.126 C 
HETATM    3  C   UNL     1     -42.200  58.041 -57.542  1.00  0.00     0.031 C 
HETATM    4  C   UNL     1     -42.977  57.039 -58.406  1.00  0.00     0.043 C 
HETATM    5  C   UNL     1     -42.752  55.606 -57.899  1.00  0.00     0.031 C 
HETATM    6  C   UNL     1     -42.916  55.458 -56.387  1.00  0.00     0.126 C 
ENDROOT
BRANCH   4   7
HETATM    7  C   UNL     1     -44.424  57.434 -58.556  1.00  0.00     0.063 C 
HETATM    8  N   UNL     1     -45.108  57.196 -59.679  1.00  0.00    -0.169 NA
HETATM    9  N   UNL     1     -46.348  57.714 -59.462  1.00  0.00    -0.211 N 
HETATM   10  C   UNL     1     -46.497  58.095 -58.127  1.00  0.00     0.165 C 
HETATM   11  C   UNL     1     -45.245  58.018 -57.568  1.00  0.00     0.087 C 
BRANCH   9  12
HETATM   12  C   UNL     1     -47.280  57.806 -60.536  1.00  0.00     0.061 A 
HETATM   13  C   UNL     1     -47.662  56.635 -61.211  1.00  0.00     0.031 A 
HETATM   14  C   UNL     1     -48.578  56.696 -62.264  1.00  0.00     0.002 A 
HETATM   15  C   UNL     1     -49.105  57.921 -62.661  1.00  0.00     0.000 A 
HETATM   16  C   UNL     1     -48.710  59.092 -62.015  1.00  0.00     0.002 A 
HETATM   17  C   UNL     1     -47.795  59.039 -60.959  1.00  0.00     0.031 A 
ENDBRANCH   9  12
BRANCH  10  18
HETATM   18  O   UNL     1     -47.645  58.421 -57.532  1.00  0.00    -0.345 OA
HETATM   19  H   UNL     1     -48.204  58.891 -58.179  1.00  0.00     0.219 HD
ENDBRANCH  10  18
ENDBRANCH   4   7
BRANCH   1  20
HETATM   20  C   UNL     1     -41.932  56.206 -54.292  1.00  0.00     0.174 C 
HETATM   21  S   UNL     1     -41.320  57.306 -53.176  1.00  0.00    -0.041 SA
BRANCH  20  22
HETATM   22  N   UNL     1     -42.263  54.973 -53.801  1.00  0.00    -0.333 N 
HETATM   23  H   UNL     1     -43.263  54.869 -53.666  1.00  0.00     0.168 HD
BRANCH  22  24
HETATM   24  C   UNL     1     -41.474  53.961 -53.212  1.00  0.00     0.034 A 
HETATM   25  C   UNL     1     -41.102  52.888 -54.033  1.00  0.00     0.036 A 
HETATM   26  C   UNL     1     -40.355  51.804 -53.536  1.00  0.00    -0.054 A 
HETATM   27  C   UNL     1     -39.994  51.787 -52.176  1.00  0.00    -0.056 A 
HETATM   28  C   UNL     1     -40.000  50.672 -54.460  1.00  0.00     0.049 C 
HETATM   29  C   UNL     1     -39.196  50.657 -51.585  1.00  0.00     0.049 C 
HETATM   30  C   UNL     1     -40.370  52.861 -51.358  1.00  0.00     0.009 A 
HETATM   31  C   UNL     1     -41.113  53.931 -51.869  1.00  0.00     0.030 A 
ENDBRANCH  22  24
ENDBRANCH  20  22
ENDBRANCH   1  20
TORSDOF 6
ENDMDL
