MODEL 1
REMARK VINA RESULT:      -8.0      0.000      0.000
REMARK  9 active torsions:
REMARK  status: ('A' for Active; 'I' for Inactive)
REMARK    1  A    between atoms: N_2  and  C_4 
REMARK    2  A    between atoms: C_4  and  C_5 
REMARK    3  A    between atoms: C_6  and  O_7 
REMARK    4  A    between atoms: O_7  and  C_8 
REMARK    5  A    between atoms: C_8  and  C_9 
REMARK       I    between atoms: C_9  and  N_10 
REMARK    6  A    between atoms: N_10  and  C_11 
REMARK    7  A    between atoms: C_11  and  C_12 
REMARK    8  A    between atoms: C_12  and  C_13 
REMARK    9  A    between atoms: C_27  and  C_28 
ROOT
HETATM    1  C   UNL     1     -42.693  56.281 -56.273  1.00  0.00     0.002 A 
HETATM    2  C   UNL     1     -42.375  57.518 -55.692  1.00  0.00     0.077 A 
HETATM    3  C   UNL     1     -41.581  57.550 -54.543  1.00  0.00     0.038 A 
HETATM    4  C   UNL     1     -41.088  56.364 -53.981  1.00  0.00     0.017 A 
HETATM    5  C   UNL     1     -41.376  55.120 -54.553  1.00  0.00     0.000 A 
HETATM    6  C   UNL     1     -42.187  55.099 -55.700  1.00  0.00     0.026 A 
ENDROOT
BRANCH   2   7
HETATM    7  O   UNL     1     -42.918  58.626 -56.296  1.00  0.00    -0.342 OA
BRANCH   7   8
HETATM    8  C   UNL     1     -42.091  59.794 -56.295  1.00  0.00     0.278 C 
BRANCH   8   9
HETATM    9  C   UNL     1     -42.782  61.021 -55.700  1.00  0.00     0.241 C 
HETATM   10  N   UNL     1     -42.538  61.250 -54.365  1.00  0.00    -0.359 N 
HETATM   11  H   UNL     1     -42.225  60.472 -53.801  1.00  0.00     0.162 HD
HETATM   12  O   UNL     1     -43.476  61.764 -56.390  1.00  0.00    -0.271 OA
BRANCH  10  13
HETATM   13  C   UNL     1     -43.156  62.370 -53.673  1.00  0.00     0.130 C 
BRANCH  13  14
HETATM   14  C   UNL     1     -43.183  62.181 -52.156  1.00  0.00     0.098 C 
BRANCH  14  15
HETATM   15  C   UNL     1     -43.102  60.742 -51.751  1.00  0.00     0.106 A 
HETATM   16  N   UNL     1     -44.020  59.799 -51.872  1.00  0.00    -0.233 NA
HETATM   17  C   UNL     1     -43.408  58.638 -51.446  1.00  0.00     0.087 A 
HETATM   18  C   UNL     1     -42.111  58.889 -51.014  1.00  0.00     0.062 A 
HETATM   19  C   UNL     1     -43.895  57.325 -51.408  1.00  0.00     0.057 A 
HETATM   20  N   UNL     1     -41.948  60.236 -51.197  1.00  0.00    -0.343 N 
HETATM   21  C   UNL     1     -41.251  57.899 -50.532  1.00  0.00     0.034 A 
HETATM   22  H   UNL     1     -41.107  60.761 -51.000  1.00  0.00     0.167 HD
HETATM   23  C   UNL     1     -41.753  56.594 -50.501  1.00  0.00     0.026 A 
HETATM   24  C   UNL     1     -43.050  56.316 -50.932  1.00  0.00     0.036 A 
HETATM   25 CL   UNL     1     -43.635  54.696 -50.886  1.00  0.00    -0.084 Cl
ENDBRANCH  14  15
ENDBRANCH  13  14
ENDBRANCH  10  13
ENDBRANCH   8   9
ENDBRANCH   7   8
ENDBRANCH   2   7
BRANCH   1  26
HETATM   26  C   UNL     1     -43.598  56.197 -57.473  1.00  0.00     0.275 C 
BRANCH  26  27
HETATM   27  N   UNL     1     -43.060  56.963 -58.662  1.00  0.00    -0.075 N 
HETATM   28  C   UNL     1     -44.081  57.860 -59.299  1.00  0.00     0.269 C 
HETATM   29  H   UNL     1     -42.318  57.567 -58.282  1.00  0.00     0.279 HD
HETATM   30  C   UNL     1     -42.412  56.054 -59.658  1.00  0.00     0.269 C 
ENDBRANCH  26  27
ENDBRANCH   1  26
BRANCH   5  31
HETATM   31  C   UNL     1     -40.905  53.838 -53.996  1.00  0.00     0.109 A 
HETATM   32  S   UNL     1     -40.488  53.667 -52.337  1.00  0.00    -0.068 SA
HETATM   33  C   UNL     1     -40.063  52.022 -52.599  1.00  0.00     0.035 A 
HETATM   34  C   UNL     1     -40.266  51.711 -53.943  1.00  0.00     0.075 A 
HETATM   35  C   UNL     1     -39.583  51.074 -51.681  1.00  0.00     0.021 A 
HETATM   36  N   UNL     1     -40.739  52.753 -54.727  1.00  0.00    -0.240 NA
HETATM   37  C   UNL     1     -39.982  50.404 -54.387  1.00  0.00     0.033 A 
HETATM   38  C   UNL     1     -39.504  49.451 -53.482  1.00  0.00     0.002 A 
HETATM   39  C   UNL     1     -39.306  49.784 -52.146  1.00  0.00     0.002 A 
ENDBRANCH   5  31
TORSDOF 9
ENDMDL
MODEL 2
REMARK VINA RESULT:      -8.0      1.790      2.213
REMARK  9 active torsions:
REMARK  status: ('A' for Active; 'I' for Inactive)
REMARK    1  A    between atoms: N_2  and  C_4 
REMARK    2  A    between atoms: C_4  and  C_5 
REMARK    3  A    between atoms: C_6  and  O_7 
REMARK    4  A    between atoms: O_7  and  C_8 
REMARK    5  A    between atoms: C_8  and  C_9 
REMARK       I    between atoms: C_9  and  N_10 
REMARK    6  A    between atoms: N_10  and  C_11 
REMARK    7  A    between atoms: C_11  and  C_12 
REMARK    8  A    between atoms: C_12  and  C_13 
REMARK    9  A    between atoms: C_27  and  C_28 
ROOT
HETATM    1  C   UNL     1     -43.207  56.211 -57.242  1.00  0.00     0.002 A 
HETATM    2  C   UNL     1     -43.844  57.272 -56.579  1.00  0.00     0.077 A 
HETATM    3  C   UNL     1     -43.806  57.327 -55.183  1.00  0.00     0.038 A 
HETATM    4  C   UNL     1     -43.128  56.347 -54.447  1.00  0.00     0.017 A 
HETATM    5  C   UNL     1     -42.469  55.290 -55.085  1.00  0.00     0.000 A 
HETATM    6  C   UNL     1     -42.524  55.237 -56.489  1.00  0.00     0.026 A 
ENDROOT
BRANCH   2   7
HETATM    7  O   UNL     1     -44.503  58.174 -57.379  1.00  0.00    -0.342 OA
BRANCH   7   8
HETATM    8  C   UNL     1     -45.741  58.667 -56.859  1.00  0.00     0.278 C 
BRANCH   8   9
HETATM    9  C   UNL     1     -45.703  60.157 -56.522  1.00  0.00     0.241 C 
HETATM   10  N   UNL     1     -45.827  60.467 -55.186  1.00  0.00    -0.359 N 
HETATM   11  H   UNL     1     -46.251  59.780 -54.579  1.00  0.00     0.162 HD
HETATM   12  O   UNL     1     -45.535  61.008 -57.392  1.00  0.00    -0.271 OA
BRANCH  10  13
HETATM   13  C   UNL     1     -45.832  61.850 -54.736  1.00  0.00     0.130 C 
BRANCH  13  14
HETATM   14  C   UNL     1     -44.434  62.359 -54.385  1.00  0.00     0.098 C 
BRANCH  14  15
HETATM   15  C   UNL     1     -43.617  61.342 -53.648  1.00  0.00     0.106 A 
HETATM   16  N   UNL     1     -43.901  60.721 -52.516  1.00  0.00    -0.233 NA
HETATM   17  C   UNL     1     -42.875  59.817 -52.330  1.00  0.00     0.087 A 
HETATM   18  C   UNL     1     -41.927  59.925 -53.341  1.00  0.00     0.062 A 
HETATM   19  C   UNL     1     -42.689  58.861 -51.322  1.00  0.00     0.057 A 
HETATM   20  N   UNL     1     -42.410  60.915 -54.153  1.00  0.00    -0.343 N 
HETATM   21  C   UNL     1     -40.780  59.131 -53.414  1.00  0.00     0.034 A 
HETATM   22  H   UNL     1     -41.976  61.245 -55.005  1.00  0.00     0.167 HD
HETATM   23  C   UNL     1     -40.610  58.182 -52.400  1.00  0.00     0.026 A 
HETATM   24  C   UNL     1     -41.548  58.053 -51.377  1.00  0.00     0.036 A 
HETATM   25 CL   UNL     1     -41.310  56.870 -50.147  1.00  0.00    -0.084 Cl
ENDBRANCH  14  15
ENDBRANCH  13  14
ENDBRANCH  10  13
ENDBRANCH   8   9
ENDBRANCH   7   8
ENDBRANCH   2   7
BRANCH   1  26
HETATM   26  C   UNL     1     -43.277  56.078 -58.740  1.00  0.00     0.275 C 
BRANCH  26  27
HETATM   27  N   UNL     1     -44.626  55.588 -59.217  1.00  0.00    -0.075 N 
HETATM   28  C   UNL     1     -44.619  54.145 -59.630  1.00  0.00     0.269 C 
HETATM   29  H   UNL     1     -45.249  55.670 -58.402  1.00  0.00     0.279 HD
HETATM   30  C   UNL     1     -45.190  56.474 -60.284  1.00  0.00     0.269 C 
ENDBRANCH  26  27
ENDBRANCH   1  26
BRANCH   5  31
HETATM   31  C   UNL     1     -41.756  54.218 -54.365  1.00  0.00     0.109 A 
HETATM   32  S   UNL     1     -41.236  54.409 -52.737  1.00  0.00    -0.068 SA
HETATM   33  C   UNL     1     -40.546  52.835 -52.759  1.00  0.00     0.035 A 
HETATM   34  C   UNL     1     -40.757  52.266 -54.014  1.00  0.00     0.075 A 
HETATM   35  C   UNL     1     -39.865  52.152 -51.738  1.00  0.00     0.021 A 
HETATM   36  N   UNL     1     -41.440  53.065 -54.920  1.00  0.00    -0.240 NA
HETATM   37  C   UNL     1     -40.272  50.966 -54.260  1.00  0.00     0.033 A 
HETATM   38  C   UNL     1     -39.593  50.276 -53.251  1.00  0.00     0.002 A 
HETATM   39  C   UNL     1     -39.392  50.864 -52.006  1.00  0.00     0.002 A 
ENDBRANCH   5  31
TORSDOF 9
ENDMDL
MODEL 3
REMARK VINA RESULT:      -8.0      1.555      2.168
REMARK  9 active torsions:
REMARK  status: ('A' for Active; 'I' for Inactive)
REMARK    1  A    between atoms: N_2  and  C_4 
REMARK    2  A    between atoms: C_4  and  C_5 
REMARK    3  A    between atoms: C_6  and  O_7 
REMARK    4  A    between atoms: O_7  and  C_8 
REMARK    5  A    between atoms: C_8  and  C_9 
REMARK       I    between atoms: C_9  and  N_10 
REMARK    6  A    between atoms: N_10  and  C_11 
REMARK    7  A    between atoms: C_11  and  C_12 
REMARK    8  A    between atoms: C_12  and  C_13 
REMARK    9  A    between atoms: C_27  and  C_28 
ROOT
HETATM    1  C   UNL     1     -42.270  56.498 -55.941  1.00  0.00     0.002 A 
HETATM    2  C   UNL     1     -41.895  57.661 -55.252  1.00  0.00     0.077 A 
HETATM    3  C   UNL     1     -41.118  57.550 -54.096  1.00  0.00     0.038 A 
HETATM    4  C   UNL     1     -40.698  56.296 -53.633  1.00  0.00     0.017 A 
HETATM    5  C   UNL     1     -41.043  55.123 -54.314  1.00  0.00     0.000 A 
HETATM    6  C   UNL     1     -41.836  55.245 -55.468  1.00  0.00     0.026 A 
ENDROOT
BRANCH   2   7
HETATM    7  O   UNL     1     -42.368  58.845 -55.764  1.00  0.00    -0.342 OA
BRANCH   7   8
HETATM    8  C   UNL     1     -42.099  60.008 -54.975  1.00  0.00     0.278 C 
BRANCH   8   9
HETATM    9  C   UNL     1     -43.338  60.555 -54.267  1.00  0.00     0.241 C 
HETATM   10  N   UNL     1     -44.294  59.620 -53.937  1.00  0.00    -0.359 N 
HETATM   11  H   UNL     1     -44.296  58.747 -54.444  1.00  0.00     0.162 HD
HETATM   12  O   UNL     1     -43.442  61.746 -53.983  1.00  0.00    -0.271 OA
BRANCH  10  13
HETATM   13  C   UNL     1     -45.531  60.016 -53.283  1.00  0.00     0.130 C 
BRANCH  13  14
HETATM   14  C   UNL     1     -45.561  59.634 -51.802  1.00  0.00     0.098 C 
BRANCH  14  15
HETATM   15  C   UNL     1     -44.598  58.537 -51.469  1.00  0.00     0.106 A 
HETATM   16  N   UNL     1     -43.313  58.630 -51.176  1.00  0.00    -0.233 NA
HETATM   17  C   UNL     1     -42.921  57.348 -50.850  1.00  0.00     0.087 A 
HETATM   18  C   UNL     1     -43.974  56.453 -50.994  1.00  0.00     0.062 A 
HETATM   19  C   UNL     1     -41.678  56.871 -50.410  1.00  0.00     0.057 A 
HETATM   20  N   UNL     1     -45.022  57.229 -51.409  1.00  0.00    -0.343 N 
HETATM   21  C   UNL     1     -43.870  55.086 -50.728  1.00  0.00     0.034 A 
HETATM   22  H   UNL     1     -45.961  56.902 -51.597  1.00  0.00     0.167 HD
HETATM   23  C   UNL     1     -42.623  54.626 -50.290  1.00  0.00     0.026 A 
HETATM   24  C   UNL     1     -41.551  55.505 -50.135  1.00  0.00     0.036 A 
HETATM   25 CL   UNL     1     -40.031  54.906 -49.589  1.00  0.00    -0.084 Cl
ENDBRANCH  14  15
ENDBRANCH  13  14
ENDBRANCH  10  13
ENDBRANCH   8   9
ENDBRANCH   7   8
ENDBRANCH   2   7
BRANCH   1  26
HETATM   26  C   UNL     1     -43.160  56.566 -57.154  1.00  0.00     0.275 C 
BRANCH  26  27
HETATM   27  N   UNL     1     -42.379  56.749 -58.437  1.00  0.00    -0.075 N 
HETATM   28  C   UNL     1     -42.381  58.165 -58.934  1.00  0.00     0.269 C 
HETATM   29  H   UNL     1     -41.407  56.509 -58.200  1.00  0.00     0.279 HD
HETATM   30  C   UNL     1     -42.819  55.783 -59.493  1.00  0.00     0.269 C 
ENDBRANCH  26  27
ENDBRANCH   1  26
BRANCH   5  31
HETATM   31  C   UNL     1     -40.650  53.774 -53.865  1.00  0.00     0.109 A 
HETATM   32  S   UNL     1     -40.512  52.456 -54.961  1.00  0.00    -0.068 SA
HETATM   33  C   UNL     1     -40.093  51.406 -53.667  1.00  0.00     0.035 A 
HETATM   34  C   UNL     1     -40.088  52.133 -52.477  1.00  0.00     0.075 A 
HETATM   35  C   UNL     1     -39.790  50.035 -53.701  1.00  0.00     0.021 A 
HETATM   36  N   UNL     1     -40.413  53.476 -52.603  1.00  0.00    -0.240 NA
HETATM   37  C   UNL     1     -39.768  51.468 -51.277  1.00  0.00     0.033 A 
HETATM   38  C   UNL     1     -39.464  50.104 -51.299  1.00  0.00     0.002 A 
HETATM   39  C   UNL     1     -39.476  49.397 -52.497  1.00  0.00     0.002 A 
ENDBRANCH   5  31
TORSDOF 9
ENDMDL
MODEL 4
REMARK VINA RESULT:      -7.9      2.160      5.992
REMARK  9 active torsions:
REMARK  status: ('A' for Active; 'I' for Inactive)
REMARK    1  A    between atoms: N_2  and  C_4 
REMARK    2  A    between atoms: C_4  and  C_5 
REMARK    3  A    between atoms: C_6  and  O_7 
REMARK    4  A    between atoms: O_7  and  C_8 
REMARK    5  A    between atoms: C_8  and  C_9 
REMARK       I    between atoms: C_9  and  N_10 
REMARK    6  A    between atoms: N_10  and  C_11 
REMARK    7  A    between atoms: C_11  and  C_12 
REMARK    8  A    between atoms: C_12  and  C_13 
REMARK    9  A    between atoms: C_27  and  C_28 
ROOT
HETATM    1  C   UNL     1     -41.279  57.878 -53.791  1.00  0.00     0.002 A 
HETATM    2  C   UNL     1     -42.022  58.067 -54.967  1.00  0.00     0.077 A 
HETATM    3  C   UNL     1     -42.384  56.956 -55.733  1.00  0.00     0.038 A 
HETATM    4  C   UNL     1     -42.029  55.662 -55.330  1.00  0.00     0.017 A 
HETATM    5  C   UNL     1     -41.305  55.446 -54.152  1.00  0.00     0.000 A 
HETATM    6  C   UNL     1     -40.935  56.571 -53.396  1.00  0.00     0.026 A 
ENDROOT
BRANCH   2   7
HETATM    7  O   UNL     1     -42.308  59.370 -55.296  1.00  0.00    -0.342 OA
BRANCH   7   8
HETATM    8  C   UNL     1     -43.464  59.557 -56.118  1.00  0.00     0.278 C 
BRANCH   8   9
HETATM    9  C   UNL     1     -43.225  60.518 -57.283  1.00  0.00     0.241 C 
HETATM   10  N   UNL     1     -42.221  60.157 -58.154  1.00  0.00    -0.359 N 
HETATM   11  H   UNL     1     -41.515  59.516 -57.822  1.00  0.00     0.162 HD
HETATM   12  O   UNL     1     -43.917  61.521 -57.440  1.00  0.00    -0.271 OA
BRANCH  10  13
HETATM   13  C   UNL     1     -41.877  60.999 -59.288  1.00  0.00     0.130 C 
BRANCH  13  14
HETATM   14  C   UNL     1     -41.988  60.261 -60.623  1.00  0.00     0.098 C 
BRANCH  14  15
HETATM   15  C   UNL     1     -42.695  58.947 -60.499  1.00  0.00     0.106 A 
HETATM   16  N   UNL     1     -42.194  57.771 -60.159  1.00  0.00    -0.233 NA
HETATM   17  C   UNL     1     -43.277  56.920 -60.095  1.00  0.00     0.087 A 
HETATM   18  C   UNL     1     -44.449  57.577 -60.447  1.00  0.00     0.062 A 
HETATM   19  C   UNL     1     -43.338  55.567 -59.731  1.00  0.00     0.057 A 
HETATM   20  N   UNL     1     -44.050  58.857 -60.721  1.00  0.00    -0.343 N 
HETATM   21  C   UNL     1     -45.704  56.964 -60.467  1.00  0.00     0.034 A 
HETATM   22  H   UNL     1     -44.656  59.619 -60.996  1.00  0.00     0.167 HD
HETATM   23  C   UNL     1     -45.748  55.614 -60.101  1.00  0.00     0.026 A 
HETATM   24  C   UNL     1     -44.585  54.933 -59.740  1.00  0.00     0.036 A 
HETATM   25 CL   UNL     1     -44.676  53.273 -59.290  1.00  0.00    -0.084 Cl
ENDBRANCH  14  15
ENDBRANCH  13  14
ENDBRANCH  10  13
ENDBRANCH   8   9
ENDBRANCH   7   8
ENDBRANCH   2   7
BRANCH   1  26
HETATM   26  C   UNL     1     -40.813  59.050 -52.969  1.00  0.00     0.275 C 
BRANCH  26  27
HETATM   27  N   UNL     1     -41.828  59.469 -51.928  1.00  0.00    -0.075 N 
HETATM   28  C   UNL     1     -42.538  60.745 -52.276  1.00  0.00     0.269 C 
HETATM   29  H   UNL     1     -42.533  58.720 -51.918  1.00  0.00     0.279 HD
HETATM   30  C   UNL     1     -41.227  59.517 -50.559  1.00  0.00     0.269 C 
ENDBRANCH  26  27
ENDBRANCH   1  26
BRANCH   5  31
HETATM   31  C   UNL     1     -40.884  54.111 -53.687  1.00  0.00     0.109 A 
HETATM   32  S   UNL     1     -40.486  53.806 -52.042  1.00  0.00    -0.068 SA
HETATM   33  C   UNL     1     -40.118  52.170 -52.420  1.00  0.00     0.035 A 
HETATM   34  C   UNL     1     -40.322  51.964 -53.784  1.00  0.00     0.075 A 
HETATM   35  C   UNL     1     -39.678  51.142 -51.571  1.00  0.00     0.021 A 
HETATM   36  N   UNL     1     -40.751  53.077 -54.494  1.00  0.00    -0.240 NA
HETATM   37  C   UNL     1     -40.081  50.683 -54.320  1.00  0.00     0.033 A 
HETATM   38  C   UNL     1     -39.644  49.651 -53.484  1.00  0.00     0.002 A 
HETATM   39  C   UNL     1     -39.445  49.880 -52.127  1.00  0.00     0.002 A 
ENDBRANCH   5  31
TORSDOF 9
ENDMDL
MODEL 5
REMARK VINA RESULT:      -7.7      2.535      5.744
REMARK  9 active torsions:
REMARK  status: ('A' for Active; 'I' for Inactive)
REMARK    1  A    between atoms: N_2  and  C_4 
REMARK    2  A    between atoms: C_4  and  C_5 
REMARK    3  A    between atoms: C_6  and  O_7 
REMARK    4  A    between atoms: O_7  and  C_8 
REMARK    5  A    between atoms: C_8  and  C_9 
REMARK       I    between atoms: C_9  and  N_10 
REMARK    6  A    between atoms: N_10  and  C_11 
REMARK    7  A    between atoms: C_11  and  C_12 
REMARK    8  A    between atoms: C_12  and  C_13 
REMARK    9  A    between atoms: C_27  and  C_28 
ROOT
HETATM    1  C   UNL     1     -44.226  58.343 -52.423  1.00  0.00     0.002 A 
HETATM    2  C   UNL     1     -44.840  58.593 -53.660  1.00  0.00     0.077 A 
HETATM    3  C   UNL     1     -44.623  57.710 -54.722  1.00  0.00     0.038 A 
HETATM    4  C   UNL     1     -43.817  56.577 -54.557  1.00  0.00     0.017 A 
HETATM    5  C   UNL     1     -43.209  56.296 -53.327  1.00  0.00     0.000 A 
HETATM    6  C   UNL     1     -43.423  57.196 -52.270  1.00  0.00     0.026 A 
ENDROOT
BRANCH   2   7
HETATM    7  O   UNL     1     -45.595  59.737 -53.738  1.00  0.00    -0.342 OA
BRANCH   7   8
HETATM    8  C   UNL     1     -45.560  60.413 -54.999  1.00  0.00     0.278 C 
BRANCH   8   9
HETATM    9  C   UNL     1     -44.214  61.075 -55.291  1.00  0.00     0.241 C 
HETATM   10  N   UNL     1     -43.779  60.987 -56.595  1.00  0.00    -0.359 N 
HETATM   11  H   UNL     1     -44.164  60.253 -57.173  1.00  0.00     0.162 HD
HETATM   12  O   UNL     1     -43.591  61.674 -54.418  1.00  0.00    -0.271 OA
BRANCH  10  13
HETATM   13  C   UNL     1     -42.502  61.554 -56.997  1.00  0.00     0.130 C 
BRANCH  13  14
HETATM   14  C   UNL     1     -41.547  60.505 -57.567  1.00  0.00     0.098 C 
BRANCH  14  15
HETATM   15  C   UNL     1     -42.264  59.317 -58.130  1.00  0.00     0.106 A 
HETATM   16  N   UNL     1     -42.974  59.233 -59.242  1.00  0.00    -0.233 NA
HETATM   17  C   UNL     1     -43.326  57.903 -59.349  1.00  0.00     0.087 A 
HETATM   18  C   UNL     1     -42.863  57.176 -58.259  1.00  0.00     0.062 A 
HETATM   19  C   UNL     1     -44.036  57.238 -60.358  1.00  0.00     0.057 A 
HETATM   20  N   UNL     1     -42.211  58.100 -57.488  1.00  0.00    -0.343 N 
HETATM   21  C   UNL     1     -43.068  55.803 -58.101  1.00  0.00     0.034 A 
HETATM   22  H   UNL     1     -41.733  57.911 -56.617  1.00  0.00     0.167 HD
HETATM   23  C   UNL     1     -43.778  55.155 -59.118  1.00  0.00     0.026 A 
HETATM   24  C   UNL     1     -44.251  55.862 -60.223  1.00  0.00     0.036 A 
HETATM   25 CL   UNL     1     -45.116  55.032 -61.459  1.00  0.00    -0.084 Cl
ENDBRANCH  14  15
ENDBRANCH  13  14
ENDBRANCH  10  13
ENDBRANCH   8   9
ENDBRANCH   7   8
ENDBRANCH   2   7
BRANCH   1  26
HETATM   26  C   UNL     1     -44.380  59.301 -51.272  1.00  0.00     0.275 C 
BRANCH  26  27
HETATM   27  N   UNL     1     -43.700  60.628 -51.526  1.00  0.00    -0.075 N 
HETATM   28  C   UNL     1     -42.272  60.658 -51.067  1.00  0.00     0.269 C 
HETATM   29  H   UNL     1     -43.695  60.740 -52.549  1.00  0.00     0.279 HD
HETATM   30  C   UNL     1     -44.492  61.770 -50.970  1.00  0.00     0.269 C 
ENDBRANCH  26  27
ENDBRANCH   1  26
BRANCH   5  31
HETATM   31  C   UNL     1     -42.333  55.131 -53.098  1.00  0.00     0.109 A 
HETATM   32  S   UNL     1     -41.563  54.858 -51.585  1.00  0.00    -0.068 SA
HETATM   33  C   UNL     1     -40.805  53.447 -52.210  1.00  0.00     0.035 A 
HETATM   34  C   UNL     1     -41.191  53.278 -53.540  1.00  0.00     0.075 A 
HETATM   35  C   UNL     1     -39.932  52.553 -51.570  1.00  0.00     0.021 A 
HETATM   36  N   UNL     1     -42.054  54.245 -54.034  1.00  0.00    -0.240 NA
HETATM   37  C   UNL     1     -40.687  52.175 -54.257  1.00  0.00     0.033 A 
HETATM   38  C   UNL     1     -39.816  51.277 -53.630  1.00  0.00     0.002 A 
HETATM   39  C   UNL     1     -39.444  51.467 -52.303  1.00  0.00     0.002 A 
ENDBRANCH   5  31
TORSDOF 9
ENDMDL
MODEL 6
REMARK VINA RESULT:      -7.6      2.351      5.874
REMARK  9 active torsions:
REMARK  status: ('A' for Active; 'I' for Inactive)
REMARK    1  A    between atoms: N_2  and  C_4 
REMARK    2  A    between atoms: C_4  and  C_5 
REMARK    3  A    between atoms: C_6  and  O_7 
REMARK    4  A    between atoms: O_7  and  C_8 
REMARK    5  A    between atoms: C_8  and  C_9 
REMARK       I    between atoms: C_9  and  N_10 
REMARK    6  A    between atoms: N_10  and  C_11 
REMARK    7  A    between atoms: C_11  and  C_12 
REMARK    8  A    between atoms: C_12  and  C_13 
REMARK    9  A    between atoms: C_27  and  C_28 
ROOT
HETATM    1  C   UNL     1     -41.968  57.641 -52.367  1.00  0.00     0.002 A 
HETATM    2  C   UNL     1     -42.062  58.216 -53.644  1.00  0.00     0.077 A 
HETATM    3  C   UNL     1     -41.727  57.453 -54.765  1.00  0.00     0.038 A 
HETATM    4  C   UNL     1     -41.316  56.120 -54.626  1.00  0.00     0.017 A 
HETATM    5  C   UNL     1     -41.232  55.518 -53.365  1.00  0.00     0.000 A 
HETATM    6  C   UNL     1     -41.559  56.299 -52.244  1.00  0.00     0.026 A 
ENDROOT
BRANCH   2   7
HETATM    7  O   UNL     1     -42.453  59.533 -53.684  1.00  0.00    -0.342 OA
BRANCH   7   8
HETATM    8  C   UNL     1     -43.657  59.795 -54.410  1.00  0.00     0.278 C 
BRANCH   8   9
HETATM    9  C   UNL     1     -43.435  60.650 -55.658  1.00  0.00     0.241 C 
HETATM   10  N   UNL     1     -42.140  60.693 -56.124  1.00  0.00    -0.359 N 
HETATM   11  H   UNL     1     -41.397  60.465 -55.479  1.00  0.00     0.162 HD
HETATM   12  O   UNL     1     -44.366  61.222 -56.218  1.00  0.00    -0.271 OA
BRANCH  10  13
HETATM   13  C   UNL     1     -41.791  61.491 -57.289  1.00  0.00     0.130 C 
BRANCH  13  14
HETATM   14  C   UNL     1     -41.246  60.644 -58.440  1.00  0.00     0.098 C 
BRANCH  14  15
HETATM   15  C   UNL     1     -42.156  59.512 -58.805  1.00  0.00     0.106 A 
HETATM   16  N   UNL     1     -43.428  59.560 -59.164  1.00  0.00    -0.233 NA
HETATM   17  C   UNL     1     -43.762  58.262 -59.490  1.00  0.00     0.087 A 
HETATM   18  C   UNL     1     -42.690  57.403 -59.279  1.00  0.00     0.062 A 
HETATM   19  C   UNL     1     -44.965  57.739 -59.984  1.00  0.00     0.057 A 
HETATM   20  N   UNL     1     -41.689  58.218 -58.823  1.00  0.00    -0.343 N 
HETATM   21  C   UNL     1     -42.738  56.029 -59.529  1.00  0.00     0.034 A 
HETATM   22  H   UNL     1     -40.751  57.924 -58.583  1.00  0.00     0.167 HD
HETATM   23  C   UNL     1     -43.946  55.524 -60.022  1.00  0.00     0.026 A 
HETATM   24  C   UNL     1     -45.036  56.366 -60.245  1.00  0.00     0.036 A 
HETATM   25 CL   UNL     1     -46.506  55.712 -60.858  1.00  0.00    -0.084 Cl
ENDBRANCH  14  15
ENDBRANCH  13  14
ENDBRANCH  10  13
ENDBRANCH   8   9
ENDBRANCH   7   8
ENDBRANCH   2   7
BRANCH   1  26
HETATM   26  C   UNL     1     -42.258  58.446 -51.129  1.00  0.00     0.275 C 
BRANCH  26  27
HETATM   27  N   UNL     1     -41.439  59.716 -51.057  1.00  0.00    -0.075 N 
HETATM   28  C   UNL     1     -40.105  59.522 -50.399  1.00  0.00     0.269 C 
HETATM   29  H   UNL     1     -41.262  59.981 -52.035  1.00  0.00     0.279 HD
HETATM   30  C   UNL     1     -42.212  60.838 -50.437  1.00  0.00     0.269 C 
ENDBRANCH  26  27
ENDBRANCH   1  26
BRANCH   5  31
HETATM   31  C   UNL     1     -40.787  54.128 -53.153  1.00  0.00     0.109 A 
HETATM   32  S   UNL     1     -40.561  53.037 -54.463  1.00  0.00    -0.068 SA
HETATM   33  C   UNL     1     -40.124  51.788 -53.366  1.00  0.00     0.035 A 
HETATM   34  C   UNL     1     -40.182  52.288 -52.065  1.00  0.00     0.075 A 
HETATM   35  C   UNL     1     -39.756  50.460 -53.636  1.00  0.00     0.021 A 
HETATM   36  N   UNL     1     -40.567  53.617 -51.958  1.00  0.00    -0.240 NA
HETATM   37  C   UNL     1     -39.859  51.431 -50.994  1.00  0.00     0.033 A 
HETATM   38  C   UNL     1     -39.491  50.107 -51.251  1.00  0.00     0.002 A 
HETATM   39  C   UNL     1     -39.442  49.629 -52.556  1.00  0.00     0.002 A 
ENDBRANCH   5  31
TORSDOF 9
ENDMDL
MODEL 7
REMARK VINA RESULT:      -7.0      3.272      8.252
REMARK  9 active torsions:
REMARK  status: ('A' for Active; 'I' for Inactive)
REMARK    1  A    between atoms: N_2  and  C_4 
REMARK    2  A    between atoms: C_4  and  C_5 
REMARK    3  A    between atoms: C_6  and  O_7 
REMARK    4  A    between atoms: O_7  and  C_8 
REMARK    5  A    between atoms: C_8  and  C_9 
REMARK       I    between atoms: C_9  and  N_10 
REMARK    6  A    between atoms: N_10  and  C_11 
REMARK    7  A    between atoms: C_11  and  C_12 
REMARK    8  A    between atoms: C_12  and  C_13 
REMARK    9  A    between atoms: C_27  and  C_28 
ROOT
HETATM    1  C   UNL     1     -43.441  60.271 -53.280  1.00  0.00     0.002 A 
HETATM    2  C   UNL     1     -44.553  59.423 -53.157  1.00  0.00     0.077 A 
HETATM    3  C   UNL     1     -45.167  58.930 -54.310  1.00  0.00     0.038 A 
HETATM    4  C   UNL     1     -44.675  59.258 -55.580  1.00  0.00     0.017 A 
HETATM    5  C   UNL     1     -43.557  60.087 -55.729  1.00  0.00     0.000 A 
HETATM    6  C   UNL     1     -42.954  60.588 -54.563  1.00  0.00     0.026 A 
ENDROOT
BRANCH   2   7
HETATM    7  O   UNL     1     -44.980  59.171 -51.875  1.00  0.00    -0.342 OA
BRANCH   7   8
HETATM    8  C   UNL     1     -44.907  57.804 -51.460  1.00  0.00     0.278 C 
BRANCH   8   9
HETATM    9  C   UNL     1     -43.502  57.213 -51.577  1.00  0.00     0.241 C 
HETATM   10  N   UNL     1     -42.635  57.537 -50.556  1.00  0.00    -0.359 N 
HETATM   11  H   UNL     1     -42.838  58.360 -50.008  1.00  0.00     0.162 HD
HETATM   12  O   UNL     1     -43.193  56.470 -52.505  1.00  0.00    -0.271 OA
BRANCH  10  13
HETATM   13  C   UNL     1     -41.262  57.059 -50.562  1.00  0.00     0.130 C 
BRANCH  13  14
HETATM   14  C   UNL     1     -41.108  55.705 -49.870  1.00  0.00     0.098 C 
BRANCH  14  15
HETATM   15  C   UNL     1     -40.720  54.613 -50.819  1.00  0.00     0.106 A 
HETATM   16  N   UNL     1     -40.150  53.451 -50.549  1.00  0.00    -0.233 NA
HETATM   17  C   UNL     1     -40.106  52.780 -51.753  1.00  0.00     0.087 A 
HETATM   18  C   UNL     1     -40.615  53.565 -52.781  1.00  0.00     0.062 A 
HETATM   19  C   UNL     1     -39.653  51.486 -52.047  1.00  0.00     0.057 A 
HETATM   20  N   UNL     1     -40.977  54.733 -52.165  1.00  0.00    -0.343 N 
HETATM   21  C   UNL     1     -40.700  53.142 -54.110  1.00  0.00     0.034 A 
HETATM   22  H   UNL     1     -41.404  55.531 -52.617  1.00  0.00     0.167 HD
HETATM   23  C   UNL     1     -40.243  51.849 -54.385  1.00  0.00     0.026 A 
HETATM   24  C   UNL     1     -39.731  51.040 -53.371  1.00  0.00     0.036 A 
HETATM   25 CL   UNL     1     -39.183  49.450 -53.745  1.00  0.00    -0.084 Cl
ENDBRANCH  14  15
ENDBRANCH  13  14
ENDBRANCH  10  13
ENDBRANCH   8   9
ENDBRANCH   7   8
ENDBRANCH   2   7
BRANCH   1  26
HETATM   26  C   UNL     1     -42.788  60.877 -52.066  1.00  0.00     0.275 C 
BRANCH  26  27
HETATM   27  N   UNL     1     -43.672  61.893 -51.377  1.00  0.00    -0.075 N 
HETATM   28  C   UNL     1     -43.372  63.307 -51.779  1.00  0.00     0.269 C 
HETATM   29  H   UNL     1     -44.628  61.681 -51.694  1.00  0.00     0.279 HD
HETATM   30  C   UNL     1     -43.660  61.717 -49.890  1.00  0.00     0.269 C 
ENDBRANCH  26  27
ENDBRANCH   1  26
BRANCH   5  31
HETATM   31  C   UNL     1     -43.005  60.485 -57.038  1.00  0.00     0.109 A 
HETATM   32  S   UNL     1     -43.526  59.753 -58.504  1.00  0.00    -0.068 SA
HETATM   33  C   UNL     1     -42.423  60.724 -59.396  1.00  0.00     0.035 A 
HETATM   34  C   UNL     1     -41.725  61.545 -58.511  1.00  0.00     0.075 A 
HETATM   35  C   UNL     1     -42.191  60.756 -60.781  1.00  0.00     0.021 A 
HETATM   36  N   UNL     1     -42.060  61.395 -57.173  1.00  0.00    -0.240 NA
HETATM   37  C   UNL     1     -40.761  62.434 -59.028  1.00  0.00     0.033 A 
HETATM   38  C   UNL     1     -40.522  62.475 -60.405  1.00  0.00     0.002 A 
HETATM   39  C   UNL     1     -41.229  61.645 -61.269  1.00  0.00     0.002 A 
ENDBRANCH   5  31
TORSDOF 9
ENDMDL
MODEL 8
REMARK VINA RESULT:      -7.0      3.924      9.049
REMARK  9 active torsions:
REMARK  status: ('A' for Active; 'I' for Inactive)
REMARK    1  A    between atoms: N_2  and  C_4 
REMARK    2  A    between atoms: C_4  and  C_5 
REMARK    3  A    between atoms: C_6  and  O_7 
REMARK    4  A    between atoms: O_7  and  C_8 
REMARK    5  A    between atoms: C_8  and  C_9 
REMARK       I    between atoms: C_9  and  N_10 
REMARK    6  A    between atoms: N_10  and  C_11 
REMARK    7  A    between atoms: C_11  and  C_12 
REMARK    8  A    between atoms: C_12  and  C_13 
REMARK    9  A    between atoms: C_27  and  C_28 
ROOT
HETATM    1  C   UNL     1     -43.779  59.353 -52.139  1.00  0.00     0.002 A 
HETATM    2  C   UNL     1     -44.646  59.428 -53.240  1.00  0.00     0.077 A 
HETATM    3  C   UNL     1     -45.818  60.181 -53.137  1.00  0.00     0.038 A 
HETATM    4  C   UNL     1     -46.123  60.872 -51.957  1.00  0.00     0.017 A 
HETATM    5  C   UNL     1     -45.266  60.829 -50.852  1.00  0.00     0.000 A 
HETATM    6  C   UNL     1     -44.096  60.057 -50.961  1.00  0.00     0.026 A 
ENDROOT
BRANCH   2   7
HETATM    7  O   UNL     1     -44.279  58.702 -54.347  1.00  0.00    -0.342 OA
BRANCH   7   8
HETATM    8  C   UNL     1     -45.003  57.486 -54.553  1.00  0.00     0.278 C 
BRANCH   8   9
HETATM    9  C   UNL     1     -44.098  56.261 -54.689  1.00  0.00     0.241 C 
HETATM   10  N   UNL     1     -43.440  56.141 -55.893  1.00  0.00    -0.359 N 
HETATM   11  H   UNL     1     -43.819  56.631 -56.690  1.00  0.00     0.162 HD
HETATM   12  O   UNL     1     -43.950  55.467 -53.764  1.00  0.00    -0.271 OA
BRANCH  10  13
HETATM   13  C   UNL     1     -42.569  55.007 -56.158  1.00  0.00     0.130 C 
BRANCH  13  14
HETATM   14  C   UNL     1     -41.183  55.171 -55.535  1.00  0.00     0.098 C 
BRANCH  14  15
HETATM   15  C   UNL     1     -40.909  54.162 -54.463  1.00  0.00     0.106 A 
HETATM   16  N   UNL     1     -40.376  52.958 -54.582  1.00  0.00    -0.233 NA
HETATM   17  C   UNL     1     -40.249  52.488 -53.291  1.00  0.00     0.087 A 
HETATM   18  C   UNL     1     -40.758  53.401 -52.376  1.00  0.00     0.062 A 
HETATM   19  C   UNL     1     -39.697  51.288 -52.820  1.00  0.00     0.057 A 
HETATM   20  N   UNL     1     -41.192  54.446 -53.146  1.00  0.00    -0.343 N 
HETATM   21  C   UNL     1     -40.759  53.193 -50.994  1.00  0.00     0.034 A 
HETATM   22  H   UNL     1     -41.608  55.301 -52.802  1.00  0.00     0.167 HD
HETATM   23  C   UNL     1     -40.204  51.992 -50.541  1.00  0.00     0.026 A 
HETATM   24  C   UNL     1     -39.684  51.060 -51.440  1.00  0.00     0.036 A 
HETATM   25 CL   UNL     1     -39.004  49.593 -50.847  1.00  0.00    -0.084 Cl
ENDBRANCH  14  15
ENDBRANCH  13  14
ENDBRANCH  10  13
ENDBRANCH   8   9
ENDBRANCH   7   8
ENDBRANCH   2   7
BRANCH   1  26
HETATM   26  C   UNL     1     -42.538  58.501 -52.183  1.00  0.00     0.275 C 
BRANCH  26  27
HETATM   27  N   UNL     1     -41.962  58.241 -50.809  1.00  0.00    -0.075 N 
HETATM   28  C   UNL     1     -40.618  58.875 -50.602  1.00  0.00     0.269 C 
HETATM   29  H   UNL     1     -42.616  58.688 -50.151  1.00  0.00     0.279 HD
HETATM   30  C   UNL     1     -41.950  56.781 -50.481  1.00  0.00     0.269 C 
ENDBRANCH  26  27
ENDBRANCH   1  26
BRANCH   5  31
HETATM   31  C   UNL     1     -45.542  61.517 -49.577  1.00  0.00     0.109 A 
HETATM   32  S   UNL     1     -46.512  62.935 -49.502  1.00  0.00    -0.068 SA
HETATM   33  C   UNL     1     -46.267  63.029 -47.803  1.00  0.00     0.035 A 
HETATM   34  C   UNL     1     -45.455  61.968 -47.404  1.00  0.00     0.075 A 
HETATM   35  C   UNL     1     -46.757  63.975 -46.889  1.00  0.00     0.021 A 
HETATM   36  N   UNL     1     -45.044  61.120 -48.422  1.00  0.00    -0.240 NA
HETATM   37  C   UNL     1     -45.121  61.846 -46.040  1.00  0.00     0.033 A 
HETATM   38  C   UNL     1     -45.604  62.781 -45.120  1.00  0.00     0.002 A 
HETATM   39  C   UNL     1     -46.411  63.833 -45.541  1.00  0.00     0.002 A 
ENDBRANCH   5  31
TORSDOF 9
ENDMDL
MODEL 9
REMARK VINA RESULT:      -7.0     16.674     19.442
REMARK  9 active torsions:
REMARK  status: ('A' for Active; 'I' for Inactive)
REMARK    1  A    between atoms: N_2  and  C_4 
REMARK    2  A    between atoms: C_4  and  C_5 
REMARK    3  A    between atoms: C_6  and  O_7 
REMARK    4  A    between atoms: O_7  and  C_8 
REMARK    5  A    between atoms: C_8  and  C_9 
REMARK       I    between atoms: C_9  and  N_10 
REMARK    6  A    between atoms: N_10  and  C_11 
REMARK    7  A    between atoms: C_11  and  C_12 
REMARK    8  A    between atoms: C_12  and  C_13 
REMARK    9  A    between atoms: C_27  and  C_28 
ROOT
HETATM    1  C   UNL     1     -34.260  37.559 -55.264  1.00  0.00     0.002 A 
HETATM    2  C   UNL     1     -33.180  38.420 -55.511  1.00  0.00     0.077 A 
HETATM    3  C   UNL     1     -33.165  39.180 -56.683  1.00  0.00     0.038 A 
HETATM    4  C   UNL     1     -34.222  39.103 -57.600  1.00  0.00     0.017 A 
HETATM    5  C   UNL     1     -35.319  38.266 -57.367  1.00  0.00     0.000 A 
HETATM    6  C   UNL     1     -35.318  37.496 -56.192  1.00  0.00     0.026 A 
ENDROOT
BRANCH   2   7
HETATM    7  O   UNL     1     -32.179  38.417 -54.570  1.00  0.00    -0.342 OA
BRANCH   7   8
HETATM    8  C   UNL     1     -31.716  39.706 -54.159  1.00  0.00     0.278 C 
BRANCH   8   9
HETATM    9  C   UNL     1     -32.276  40.145 -52.807  1.00  0.00     0.241 C 
HETATM   10  N   UNL     1     -33.482  40.810 -52.851  1.00  0.00    -0.359 N 
HETATM   11  H   UNL     1     -33.748  41.249 -53.721  1.00  0.00     0.162 HD
HETATM   12  O   UNL     1     -31.697  39.882 -51.756  1.00  0.00    -0.271 OA
BRANCH  10  13
HETATM   13  C   UNL     1     -34.109  41.303 -51.636  1.00  0.00     0.130 C 
BRANCH  13  14
HETATM   14  C   UNL     1     -35.197  42.340 -51.914  1.00  0.00     0.098 C 
BRANCH  14  15
HETATM   15  C   UNL     1     -35.770  42.220 -53.293  1.00  0.00     0.106 A 
HETATM   16  N   UNL     1     -35.228  42.577 -54.444  1.00  0.00    -0.233 NA
HETATM   17  C   UNL     1     -36.118  42.157 -55.411  1.00  0.00     0.087 A 
HETATM   18  C   UNL     1     -37.242  41.578 -54.835  1.00  0.00     0.062 A 
HETATM   19  C   UNL     1     -36.030  42.228 -56.808  1.00  0.00     0.057 A 
HETATM   20  N   UNL     1     -37.007  41.649 -53.488  1.00  0.00    -0.343 N 
HETATM   21  C   UNL     1     -38.309  41.057 -55.572  1.00  0.00     0.034 A 
HETATM   22  H   UNL     1     -37.619  41.301 -52.762  1.00  0.00     0.167 HD
HETATM   23  C   UNL     1     -38.204  41.135 -56.965  1.00  0.00     0.026 A 
HETATM   24  C   UNL     1     -37.085  41.710 -57.567  1.00  0.00     0.036 A 
HETATM   25 CL   UNL     1     -36.987  41.785 -59.285  1.00  0.00    -0.084 Cl
ENDBRANCH  14  15
ENDBRANCH  13  14
ENDBRANCH  10  13
ENDBRANCH   8   9
ENDBRANCH   7   8
ENDBRANCH   2   7
BRANCH   1  26
HETATM   26  C   UNL     1     -34.286  36.675 -54.046  1.00  0.00     0.275 C 
BRANCH  26  27
HETATM   27  N   UNL     1     -34.364  37.464 -52.757  1.00  0.00    -0.075 N 
HETATM   28  C   UNL     1     -33.708  36.770 -51.599  1.00  0.00     0.269 C 
HETATM   29  H   UNL     1     -33.834  38.328 -52.936  1.00  0.00     0.279 HD
HETATM   30  C   UNL     1     -35.768  37.873 -52.444  1.00  0.00     0.269 C 
ENDBRANCH  26  27
ENDBRANCH   1  26
BRANCH   5  31
HETATM   31  C   UNL     1     -36.451  38.125 -58.303  1.00  0.00     0.109 A 
HETATM   32  S   UNL     1     -37.941  37.413 -57.826  1.00  0.00    -0.068 SA
HETATM   33  C   UNL     1     -38.566  37.624 -59.413  1.00  0.00     0.035 A 
HETATM   34  C   UNL     1     -37.590  38.226 -60.207  1.00  0.00     0.075 A 
HETATM   35  C   UNL     1     -39.830  37.282 -59.921  1.00  0.00     0.021 A 
HETATM   36  N   UNL     1     -36.390  38.499 -59.566  1.00  0.00    -0.240 NA
HETATM   37  C   UNL     1     -37.887  38.498 -61.558  1.00  0.00     0.033 A 
HETATM   38  C   UNL     1     -39.142  38.162 -62.074  1.00  0.00     0.002 A 
HETATM   39  C   UNL     1     -40.100  37.561 -61.264  1.00  0.00     0.002 A 
ENDBRANCH   5  31
TORSDOF 9
ENDMDL
MODEL 10
REMARK VINA RESULT:      -6.9      3.242      8.361
REMARK  9 active torsions:
REMARK  status: ('A' for Active; 'I' for Inactive)
REMARK    1  A    between atoms: N_2  and  C_4 
REMARK    2  A    between atoms: C_4  and  C_5 
REMARK    3  A    between atoms: C_6  and  O_7 
REMARK    4  A    between atoms: O_7  and  C_8 
REMARK    5  A    between atoms: C_8  and  C_9 
REMARK       I    between atoms: C_9  and  N_10 
REMARK    6  A    between atoms: N_10  and  C_11 
REMARK    7  A    between atoms: C_11  and  C_12 
REMARK    8  A    between atoms: C_12  and  C_13 
REMARK    9  A    between atoms: C_27  and  C_28 
ROOT
HETATM    1  C   UNL     1     -43.422  59.077 -52.154  1.00  0.00     0.002 A 
HETATM    2  C   UNL     1     -42.381  58.173 -51.892  1.00  0.00     0.077 A 
HETATM    3  C   UNL     1     -41.340  58.042 -52.814  1.00  0.00     0.038 A 
HETATM    4  C   UNL     1     -41.318  58.814 -53.983  1.00  0.00     0.017 A 
HETATM    5  C   UNL     1     -42.335  59.736 -54.259  1.00  0.00     0.000 A 
HETATM    6  C   UNL     1     -43.384  59.850 -53.331  1.00  0.00     0.026 A 
ENDROOT
BRANCH   2   7
HETATM    7  O   UNL     1     -42.494  57.443 -50.733  1.00  0.00    -0.342 OA
BRANCH   7   8
HETATM    8  C   UNL     1     -41.279  56.861 -50.252  1.00  0.00     0.278 C 
BRANCH   8   9
HETATM    9  C   UNL     1     -41.312  55.332 -50.229  1.00  0.00     0.241 C 
HETATM   10  N   UNL     1     -40.647  54.709 -51.261  1.00  0.00    -0.359 N 
HETATM   11  H   UNL     1     -40.480  55.239 -52.105  1.00  0.00     0.162 HD
HETATM   12  O   UNL     1     -41.866  54.716 -49.323  1.00  0.00    -0.271 OA
BRANCH  10  13
HETATM   13  C   UNL     1     -40.624  53.259 -51.368  1.00  0.00     0.130 C 
BRANCH  13  14
HETATM   14  C   UNL     1     -40.973  52.768 -52.773  1.00  0.00     0.098 C 
BRANCH  14  15
HETATM   15  C   UNL     1     -41.779  53.763 -53.549  1.00  0.00     0.106 A 
HETATM   16  N   UNL     1     -42.919  54.343 -53.213  1.00  0.00    -0.233 NA
HETATM   17  C   UNL     1     -43.180  55.245 -54.222  1.00  0.00     0.087 A 
HETATM   18  C   UNL     1     -42.208  55.180 -55.213  1.00  0.00     0.062 A 
HETATM   19  C   UNL     1     -44.228  56.166 -54.358  1.00  0.00     0.057 A 
HETATM   20  N   UNL     1     -41.341  54.216 -54.773  1.00  0.00    -0.343 N 
HETATM   21  C   UNL     1     -42.212  55.983 -56.356  1.00  0.00     0.034 A 
HETATM   22  H   UNL     1     -40.498  53.919 -55.246  1.00  0.00     0.167 HD
HETATM   23  C   UNL     1     -43.264  56.897 -56.475  1.00  0.00     0.026 A 
HETATM   24  C   UNL     1     -44.251  56.984 -55.493  1.00  0.00     0.036 A 
HETATM   25 CL   UNL     1     -45.530  58.124 -55.670  1.00  0.00    -0.084 Cl
ENDBRANCH  14  15
ENDBRANCH  13  14
ENDBRANCH  10  13
ENDBRANCH   8   9
ENDBRANCH   7   8
ENDBRANCH   2   7
BRANCH   1  26
HETATM   26  C   UNL     1     -44.596  59.203 -51.220  1.00  0.00     0.275 C 
BRANCH  26  27
HETATM   27  N   UNL     1     -44.255  59.970 -49.961  1.00  0.00    -0.075 N 
HETATM   28  C   UNL     1     -45.465  60.484 -49.237  1.00  0.00     0.269 C 
HETATM   29  H   UNL     1     -43.796  59.288 -49.343  1.00  0.00     0.279 HD
HETATM   30  C   UNL     1     -43.258  61.054 -50.227  1.00  0.00     0.269 C 
ENDBRANCH  26  27
ENDBRANCH   1  26
BRANCH   5  31
HETATM   31  C   UNL     1     -42.379  60.560 -55.481  1.00  0.00     0.109 A 
HETATM   32  S   UNL     1     -43.481  61.869 -55.655  1.00  0.00    -0.068 SA
HETATM   33  C   UNL     1     -42.890  62.174 -57.239  1.00  0.00     0.035 A 
HETATM   34  C   UNL     1     -41.887  61.251 -57.534  1.00  0.00     0.075 A 
HETATM   35  C   UNL     1     -43.286  63.160 -58.158  1.00  0.00     0.021 A 
HETATM   36  N   UNL     1     -41.611  60.335 -56.529  1.00  0.00    -0.240 NA
HETATM   37  C   UNL     1     -41.254  61.315 -58.791  1.00  0.00     0.033 A 
HETATM   38  C   UNL     1     -41.640  62.293 -59.714  1.00  0.00     0.002 A 
HETATM   39  C   UNL     1     -42.644  63.203 -59.400  1.00  0.00     0.002 A 
ENDBRANCH   5  31
TORSDOF 9
ENDMDL
