MODEL 1
REMARK VINA RESULT:      -7.5      0.000      0.000
REMARK  4 active torsions:
REMARK  status: ('A' for Active; 'I' for Inactive)
REMARK    1  A    between atoms: O_2  and  C_3 
REMARK    2  A    between atoms: C_5  and  O_6 
REMARK    3  A    between atoms: C_8  and  N_9 
REMARK    4  A    between atoms: N_9  and  C_10 
ROOT
HETATM    1  C   UNL     1     -42.986  55.159 -55.302  1.00  0.00     0.153 A 
HETATM    2  S   UNL     1     -43.561  55.970 -53.920  1.00  0.00    -0.011 SA
HETATM    3  C   UNL     1     -42.726  55.165 -52.626  1.00  0.00     0.228 A 
HETATM    4  O   UNL     1     -42.945  55.490 -51.467  1.00  0.00    -0.279 OA
HETATM    5  C   UNL     1     -41.751  54.103 -52.919  1.00  0.00     0.048 A 
HETATM    6  C   UNL     1     -41.480  53.697 -54.226  1.00  0.00     0.048 A 
HETATM    7  C   UNL     1     -41.081  53.501 -51.837  1.00  0.00     0.018 A 
HETATM    8  C   UNL     1     -40.142  52.495 -52.055  1.00  0.00     0.001 A 
HETATM    9  C   UNL     1     -39.865  52.084 -53.353  1.00  0.00     0.002 A 
HETATM   10  C   UNL     1     -40.529  52.682 -54.428  1.00  0.00     0.030 A 
HETATM   11  N   UNL     1     -42.076  54.215 -55.328  1.00  0.00    -0.336 N 
HETATM   12  H   UNL     1     -41.793  53.911 -56.250  1.00  0.00     0.168 HD
ENDROOT
BRANCH   1  13
HETATM   13  N   UNL     1     -43.512  55.610 -56.531  1.00  0.00    -0.334 N 
HETATM   14  H   UNL     1     -44.494  55.365 -56.659  1.00  0.00     0.168 HD
BRANCH  13  15
HETATM   15  C   UNL     1     -43.014  56.360 -57.613  1.00  0.00     0.068 A 
HETATM   16  C   UNL     1     -43.255  55.895 -58.926  1.00  0.00     0.097 A 
HETATM   17  C   UNL     1     -42.842  56.648 -60.033  1.00  0.00     0.075 A 
HETATM   18  C   UNL     1     -42.184  57.864 -59.844  1.00  0.00     0.070 A 
HETATM   19  C   UNL     1     -41.931  58.315 -58.548  1.00  0.00     0.039 A 
HETATM   20  C   UNL     1     -42.343  57.572 -57.439  1.00  0.00     0.035 A 
BRANCH  16  21
HETATM   21  O   UNL     1     -43.910  54.686 -58.993  1.00  0.00    -0.354 OA
HETATM   22  C   UNL     1     -44.857  54.514 -60.042  1.00  0.00     0.210 C 
ENDBRANCH  16  21
BRANCH  18  23
HETATM   23  O   UNL     1     -41.734  58.699 -60.829  1.00  0.00    -0.356 OA
HETATM   24  C   UNL     1     -41.952  60.094 -60.653  1.00  0.00     0.210 C 
ENDBRANCH  18  23
ENDBRANCH  13  15
ENDBRANCH   1  13
TORSDOF 4
ENDMDL
MODEL 2
REMARK VINA RESULT:      -7.4      1.920      2.899
REMARK  4 active torsions:
REMARK  status: ('A' for Active; 'I' for Inactive)
REMARK    1  A    between atoms: O_2  and  C_3 
REMARK    2  A    between atoms: C_5  and  O_6 
REMARK    3  A    between atoms: C_8  and  N_9 
REMARK    4  A    between atoms: N_9  and  C_10 
ROOT
HETATM    1  C   UNL     1     -42.317  55.792 -55.977  1.00  0.00     0.153 A 
HETATM    2  S   UNL     1     -43.061  56.640 -54.702  1.00  0.00    -0.011 SA
HETATM    3  C   UNL     1     -42.576  55.733 -53.302  1.00  0.00     0.228 A 
HETATM    4  O   UNL     1     -42.979  56.065 -52.194  1.00  0.00    -0.279 OA
HETATM    5  C   UNL     1     -41.677  54.577 -53.440  1.00  0.00     0.048 A 
HETATM    6  C   UNL     1     -41.203  54.162 -54.685  1.00  0.00     0.048 A 
HETATM    7  C   UNL     1     -41.292  53.893 -52.272  1.00  0.00     0.018 A 
HETATM    8  C   UNL     1     -40.437  52.795 -52.342  1.00  0.00     0.001 A 
HETATM    9  C   UNL     1     -39.960  52.375 -53.577  1.00  0.00     0.002 A 
HETATM   10  C   UNL     1     -40.340  53.054 -54.737  1.00  0.00     0.030 A 
HETATM   11  N   UNL     1     -41.520  54.756 -55.862  1.00  0.00    -0.336 N 
HETATM   12  H   UNL     1     -41.099  54.436 -56.723  1.00  0.00     0.168 HD
ENDROOT
BRANCH   1  13
HETATM   13  N   UNL     1     -42.549  56.313 -57.268  1.00  0.00    -0.334 N 
HETATM   14  H   UNL     1     -41.810  56.940 -57.584  1.00  0.00     0.168 HD
BRANCH  13  15
HETATM   15  C   UNL     1     -43.544  56.140 -58.247  1.00  0.00     0.068 A 
HETATM   16  C   UNL     1     -44.427  57.212 -58.511  1.00  0.00     0.097 A 
HETATM   17  C   UNL     1     -45.384  57.110 -59.529  1.00  0.00     0.075 A 
HETATM   18  C   UNL     1     -45.475  55.943 -60.288  1.00  0.00     0.070 A 
HETATM   19  C   UNL     1     -44.615  54.878 -60.016  1.00  0.00     0.039 A 
HETATM   20  C   UNL     1     -43.656  54.973 -59.006  1.00  0.00     0.035 A 
BRANCH  16  21
HETATM   21  O   UNL     1     -44.248  58.312 -57.703  1.00  0.00    -0.354 OA
HETATM   22  C   UNL     1     -45.360  58.739 -56.924  1.00  0.00     0.210 C 
ENDBRANCH  16  21
BRANCH  18  23
HETATM   23  O   UNL     1     -46.354  55.711 -61.310  1.00  0.00    -0.356 OA
HETATM   24  C   UNL     1     -47.541  56.494 -61.339  1.00  0.00     0.210 C 
ENDBRANCH  18  23
ENDBRANCH  13  15
ENDBRANCH   1  13
TORSDOF 4
ENDMDL
MODEL 3
REMARK VINA RESULT:      -7.3      1.800      7.529
REMARK  4 active torsions:
REMARK  status: ('A' for Active; 'I' for Inactive)
REMARK    1  A    between atoms: O_2  and  C_3 
REMARK    2  A    between atoms: C_5  and  O_6 
REMARK    3  A    between atoms: C_8  and  N_9 
REMARK    4  A    between atoms: N_9  and  C_10 
ROOT
HETATM    1  C   UNL     1     -42.863  55.363 -55.712  1.00  0.00     0.153 A 
HETATM    2  S   UNL     1     -42.361  56.924 -55.251  1.00  0.00    -0.011 SA
HETATM    3  C   UNL     1     -42.461  57.815 -56.740  1.00  0.00     0.228 A 
HETATM    4  O   UNL     1     -42.127  58.992 -56.765  1.00  0.00    -0.279 OA
HETATM    5  C   UNL     1     -42.954  57.164 -57.963  1.00  0.00     0.048 A 
HETATM    6  C   UNL     1     -43.336  55.822 -57.977  1.00  0.00     0.048 A 
HETATM    7  C   UNL     1     -43.042  57.937 -59.136  1.00  0.00     0.018 A 
HETATM    8  C   UNL     1     -43.508  57.375 -60.322  1.00  0.00     0.001 A 
HETATM    9  C   UNL     1     -43.891  56.040 -60.346  1.00  0.00     0.002 A 
HETATM   10  C   UNL     1     -43.805  55.272 -59.182  1.00  0.00     0.030 A 
HETATM   11  N   UNL     1     -43.284  55.000 -56.899  1.00  0.00    -0.336 N 
HETATM   12  H   UNL     1     -43.626  54.051 -56.967  1.00  0.00     0.168 HD
ENDROOT
BRANCH   1  13
HETATM   13  N   UNL     1     -42.874  54.402 -54.679  1.00  0.00    -0.334 N 
HETATM   14  H   UNL     1     -43.814  54.091 -54.433  1.00  0.00     0.168 HD
BRANCH  13  15
HETATM   15  C   UNL     1     -41.888  53.732 -53.930  1.00  0.00     0.068 A 
HETATM   16  C   UNL     1     -41.848  53.934 -52.532  1.00  0.00     0.097 A 
HETATM   17  C   UNL     1     -40.932  53.230 -51.739  1.00  0.00     0.075 A 
HETATM   18  C   UNL     1     -40.047  52.327 -52.329  1.00  0.00     0.070 A 
HETATM   19  C   UNL     1     -40.074  52.142 -53.712  1.00  0.00     0.039 A 
HETATM   20  C   UNL     1     -40.988  52.835 -54.508  1.00  0.00     0.035 A 
BRANCH  16  21
HETATM   21  O   UNL     1     -42.765  54.846 -52.059  1.00  0.00    -0.354 OA
HETATM   22  C   UNL     1     -43.511  54.483 -50.902  1.00  0.00     0.210 C 
ENDBRANCH  16  21
BRANCH  18  23
HETATM   23  O   UNL     1     -39.109  51.574 -51.677  1.00  0.00    -0.356 OA
HETATM   24  C   UNL     1     -39.474  50.248 -51.315  1.00  0.00     0.210 C 
ENDBRANCH  18  23
ENDBRANCH  13  15
ENDBRANCH   1  13
TORSDOF 4
ENDMDL
MODEL 4
REMARK VINA RESULT:      -7.2      1.516      2.291
REMARK  4 active torsions:
REMARK  status: ('A' for Active; 'I' for Inactive)
REMARK    1  A    between atoms: O_2  and  C_3 
REMARK    2  A    between atoms: C_5  and  O_6 
REMARK    3  A    between atoms: C_8  and  N_9 
REMARK    4  A    between atoms: N_9  and  C_10 
ROOT
HETATM    1  C   UNL     1     -42.599  55.033 -54.479  1.00  0.00     0.153 A 
HETATM    2  S   UNL     1     -42.574  55.829 -52.974  1.00  0.00    -0.011 SA
HETATM    3  C   UNL     1     -41.569  54.793 -52.007  1.00  0.00     0.228 A 
HETATM    4  O   UNL     1     -41.370  55.066 -50.830  1.00  0.00    -0.279 OA
HETATM    5  C   UNL     1     -40.950  53.596 -52.597  1.00  0.00     0.048 A 
HETATM    6  C   UNL     1     -41.159  53.246 -53.932  1.00  0.00     0.048 A 
HETATM    7  C   UNL     1     -40.122  52.805 -51.779  1.00  0.00     0.018 A 
HETATM    8  C   UNL     1     -39.504  51.665 -52.287  1.00  0.00     0.001 A 
HETATM    9  C   UNL     1     -39.706  51.307 -53.615  1.00  0.00     0.002 A 
HETATM   10  C   UNL     1     -40.527  52.093 -54.429  1.00  0.00     0.030 A 
HETATM   11  N   UNL     1     -41.940  53.944 -54.794  1.00  0.00    -0.336 N 
HETATM   12  H   UNL     1     -42.005  53.663 -55.763  1.00  0.00     0.168 HD
ENDROOT
BRANCH   1  13
HETATM   13  N   UNL     1     -43.365  55.661 -55.483  1.00  0.00    -0.334 N 
HETATM   14  H   UNL     1     -44.341  55.793 -55.218  1.00  0.00     0.168 HD
BRANCH  13  15
HETATM   15  C   UNL     1     -43.092  56.192 -56.758  1.00  0.00     0.068 A 
HETATM   16  C   UNL     1     -42.626  57.524 -56.849  1.00  0.00     0.097 A 
HETATM   17  C   UNL     1     -42.270  58.068 -58.091  1.00  0.00     0.075 A 
HETATM   18  C   UNL     1     -42.380  57.296 -59.249  1.00  0.00     0.070 A 
HETATM   19  C   UNL     1     -42.858  55.988 -59.160  1.00  0.00     0.039 A 
HETATM   20  C   UNL     1     -43.210  55.437 -57.926  1.00  0.00     0.035 A 
BRANCH  16  21
HETATM   21  O   UNL     1     -42.558  58.190 -55.647  1.00  0.00    -0.354 OA
HETATM   22  C   UNL     1     -43.304  59.395 -55.524  1.00  0.00     0.210 C 
ENDBRANCH  16  21
BRANCH  18  23
HETATM   23  O   UNL     1     -42.065  57.697 -60.518  1.00  0.00    -0.356 OA
HETATM   24  C   UNL     1     -41.954  59.096 -60.751  1.00  0.00     0.210 C 
ENDBRANCH  18  23
ENDBRANCH  13  15
ENDBRANCH   1  13
TORSDOF 4
ENDMDL
MODEL 5
REMARK VINA RESULT:      -7.2     14.900     16.688
REMARK  4 active torsions:
REMARK  status: ('A' for Active; 'I' for Inactive)
REMARK    1  A    between atoms: O_2  and  C_3 
REMARK    2  A    between atoms: C_5  and  O_6 
REMARK    3  A    between atoms: C_8  and  N_9 
REMARK    4  A    between atoms: N_9  and  C_10 
ROOT
HETATM    1  C   UNL     1     -35.188  41.533 -52.785  1.00  0.00     0.153 A 
HETATM    2  S   UNL     1     -36.595  41.005 -51.985  1.00  0.00    -0.011 SA
HETATM    3  C   UNL     1     -35.959  40.053 -50.677  1.00  0.00     0.228 A 
HETATM    4  O   UNL     1     -36.727  39.485 -49.911  1.00  0.00    -0.279 OA
HETATM    5  C   UNL     1     -34.506  39.935 -50.482  1.00  0.00     0.048 A 
HETATM    6  C   UNL     1     -33.599  40.560 -51.339  1.00  0.00     0.048 A 
HETATM    7  C   UNL     1     -34.043  39.175 -49.392  1.00  0.00     0.018 A 
HETATM    8  C   UNL     1     -32.677  39.035 -49.155  1.00  0.00     0.001 A 
HETATM    9  C   UNL     1     -31.766  39.653 -50.002  1.00  0.00     0.002 A 
HETATM   10  C   UNL     1     -32.225  40.409 -51.084  1.00  0.00     0.030 A 
HETATM   11  N   UNL     1     -33.950  41.308 -52.414  1.00  0.00    -0.336 N 
HETATM   12  H   UNL     1     -33.242  41.776 -52.962  1.00  0.00     0.168 HD
ENDROOT
BRANCH   1  13
HETATM   13  N   UNL     1     -35.405  42.342 -53.921  1.00  0.00    -0.334 N 
HETATM   14  H   UNL     1     -35.287  43.337 -53.731  1.00  0.00     0.168 HD
BRANCH  13  15
HETATM   15  C   UNL     1     -35.707  42.099 -55.273  1.00  0.00     0.068 A 
HETATM   16  C   UNL     1     -34.716  41.512 -56.092  1.00  0.00     0.097 A 
HETATM   17  C   UNL     1     -34.999  41.183 -57.425  1.00  0.00     0.075 A 
HETATM   18  C   UNL     1     -36.264  41.439 -57.954  1.00  0.00     0.070 A 
HETATM   19  C   UNL     1     -37.237  42.036 -57.151  1.00  0.00     0.039 A 
HETATM   20  C   UNL     1     -36.965  42.362 -55.821  1.00  0.00     0.035 A 
BRANCH  16  21
HETATM   21  O   UNL     1     -33.507  41.304 -55.467  1.00  0.00    -0.354 OA
HETATM   22  C   UNL     1     -32.668  40.281 -55.991  1.00  0.00     0.210 C 
ENDBRANCH  16  21
BRANCH  18  23
HETATM   23  O   UNL     1     -36.675  41.167 -59.230  1.00  0.00    -0.356 OA
HETATM   24  C   UNL     1     -37.376  42.193 -59.922  1.00  0.00     0.210 C 
ENDBRANCH  18  23
ENDBRANCH  13  15
ENDBRANCH   1  13
TORSDOF 4
ENDMDL
MODEL 6
REMARK VINA RESULT:      -7.1      5.386      6.820
REMARK  4 active torsions:
REMARK  status: ('A' for Active; 'I' for Inactive)
REMARK    1  A    between atoms: O_2  and  C_3 
REMARK    2  A    between atoms: C_5  and  O_6 
REMARK    3  A    between atoms: C_8  and  N_9 
REMARK    4  A    between atoms: N_9  and  C_10 
ROOT
HETATM    1  C   UNL     1     -41.695  55.869 -52.135  1.00  0.00     0.153 A 
HETATM    2  S   UNL     1     -41.255  55.692 -50.500  1.00  0.00    -0.011 SA
HETATM    3  C   UNL     1     -40.522  54.117 -50.467  1.00  0.00     0.228 A 
HETATM    4  O   UNL     1     -40.119  53.658 -49.406  1.00  0.00    -0.279 OA
HETATM    5  C   UNL     1     -40.377  53.339 -51.707  1.00  0.00     0.048 A 
HETATM    6  C   UNL     1     -40.832  53.824 -52.934  1.00  0.00     0.048 A 
HETATM    7  C   UNL     1     -39.751  52.081 -51.631  1.00  0.00     0.018 A 
HETATM    8  C   UNL     1     -39.580  51.304 -52.774  1.00  0.00     0.001 A 
HETATM    9  C   UNL     1     -40.029  51.778 -54.000  1.00  0.00     0.002 A 
HETATM   10  C   UNL     1     -40.649  53.028 -54.077  1.00  0.00     0.030 A 
HETATM   11  N   UNL     1     -41.447  55.021 -53.104  1.00  0.00    -0.336 N 
HETATM   12  H   UNL     1     -41.704  55.333 -54.030  1.00  0.00     0.168 HD
ENDROOT
BRANCH   1  13
HETATM   13  N   UNL     1     -42.334  57.084 -52.462  1.00  0.00    -0.334 N 
HETATM   14  H   UNL     1     -42.191  57.362 -53.433  1.00  0.00     0.168 HD
BRANCH  13  15
HETATM   15  C   UNL     1     -43.163  57.990 -51.774  1.00  0.00     0.068 A 
HETATM   16  C   UNL     1     -42.626  59.240 -51.390  1.00  0.00     0.097 A 
HETATM   17  C   UNL     1     -43.437  60.201 -50.770  1.00  0.00     0.075 A 
HETATM   18  C   UNL     1     -44.783  59.925 -50.523  1.00  0.00     0.070 A 
HETATM   19  C   UNL     1     -45.308  58.684 -50.886  1.00  0.00     0.039 A 
HETATM   20  C   UNL     1     -44.508  57.723 -51.509  1.00  0.00     0.035 A 
BRANCH  16  21
HETATM   21  O   UNL     1     -41.291  59.403 -51.682  1.00  0.00    -0.354 OA
HETATM   22  C   UNL     1     -40.398  59.566 -50.586  1.00  0.00     0.210 C 
ENDBRANCH  16  21
BRANCH  18  23
HETATM   23  O   UNL     1     -45.684  60.768 -49.934  1.00  0.00    -0.356 OA
HETATM   24  C   UNL     1     -45.571  60.964 -48.530  1.00  0.00     0.210 C 
ENDBRANCH  18  23
ENDBRANCH  13  15
ENDBRANCH   1  13
TORSDOF 4
ENDMDL
MODEL 7
REMARK VINA RESULT:      -7.1      5.198      6.724
REMARK  4 active torsions:
REMARK  status: ('A' for Active; 'I' for Inactive)
REMARK    1  A    between atoms: O_2  and  C_3 
REMARK    2  A    between atoms: C_5  and  O_6 
REMARK    3  A    between atoms: C_8  and  N_9 
REMARK    4  A    between atoms: N_9  and  C_10 
ROOT
HETATM    1  C   UNL     1     -40.948  54.454 -51.711  1.00  0.00     0.153 A 
HETATM    2  S   UNL     1     -40.958  54.803 -53.378  1.00  0.00    -0.011 SA
HETATM    3  C   UNL     1     -40.400  53.318 -54.086  1.00  0.00     0.228 A 
HETATM    4  O   UNL     1     -40.256  53.240 -55.299  1.00  0.00    -0.279 OA
HETATM    5  C   UNL     1     -40.112  52.152 -53.236  1.00  0.00     0.048 A 
HETATM    6  C   UNL     1     -40.257  52.203 -51.849  1.00  0.00     0.048 A 
HETATM    7  C   UNL     1     -39.690  50.964 -53.861  1.00  0.00     0.018 A 
HETATM    8  C   UNL     1     -39.410  49.827 -53.106  1.00  0.00     0.001 A 
HETATM    9  C   UNL     1     -39.551  49.867 -51.725  1.00  0.00     0.002 A 
HETATM   10  C   UNL     1     -39.971  51.046 -51.103  1.00  0.00     0.030 A 
HETATM   11  N   UNL     1     -40.654  53.302 -51.160  1.00  0.00    -0.336 N 
HETATM   12  H   UNL     1     -40.789  53.253 -50.159  1.00  0.00     0.168 HD
ENDROOT
BRANCH   1  13
HETATM   13  N   UNL     1     -41.359  55.510 -50.870  1.00  0.00    -0.334 N 
HETATM   14  H   UNL     1     -40.844  55.543 -49.990  1.00  0.00     0.168 HD
BRANCH  13  15
HETATM   15  C   UNL     1     -42.288  56.562 -50.973  1.00  0.00     0.068 A 
HETATM   16  C   UNL     1     -41.801  57.884 -51.089  1.00  0.00     0.097 A 
HETATM   17  C   UNL     1     -42.688  58.954 -51.270  1.00  0.00     0.075 A 
HETATM   18  C   UNL     1     -44.063  58.719 -51.331  1.00  0.00     0.070 A 
HETATM   19  C   UNL     1     -44.544  57.416 -51.198  1.00  0.00     0.039 A 
HETATM   20  C   UNL     1     -43.666  56.343 -51.022  1.00  0.00     0.035 A 
BRANCH  16  21
HETATM   21  O   UNL     1     -40.432  57.998 -51.016  1.00  0.00    -0.354 OA
HETATM   22  C   UNL     1     -39.893  59.302 -50.830  1.00  0.00     0.210 C 
ENDBRANCH  16  21
BRANCH  18  23
HETATM   23  O   UNL     1     -45.035  59.664 -51.508  1.00  0.00    -0.356 OA
HETATM   24  C   UNL     1     -45.650  60.193 -50.339  1.00  0.00     0.210 C 
ENDBRANCH  18  23
ENDBRANCH  13  15
ENDBRANCH   1  13
TORSDOF 4
ENDMDL
MODEL 8
REMARK VINA RESULT:      -7.0      2.272      3.769
REMARK  4 active torsions:
REMARK  status: ('A' for Active; 'I' for Inactive)
REMARK    1  A    between atoms: O_2  and  C_3 
REMARK    2  A    between atoms: C_5  and  O_6 
REMARK    3  A    between atoms: C_8  and  N_9 
REMARK    4  A    between atoms: N_9  and  C_10 
ROOT
HETATM    1  C   UNL     1     -41.140  54.423 -53.040  1.00  0.00     0.153 A 
HETATM    2  S   UNL     1     -40.972  54.498 -51.347  1.00  0.00    -0.011 SA
HETATM    3  C   UNL     1     -40.410  52.903 -50.946  1.00  0.00     0.228 A 
HETATM    4  O   UNL     1     -40.218  52.605 -49.774  1.00  0.00    -0.279 OA
HETATM    5  C   UNL     1     -40.155  51.917 -52.006  1.00  0.00     0.048 A 
HETATM    6  C   UNL     1     -40.370  52.216 -53.353  1.00  0.00     0.048 A 
HETATM    7  C   UNL     1     -39.674  50.649 -51.631  1.00  0.00     0.018 A 
HETATM    8  C   UNL     1     -39.408  49.677 -52.593  1.00  0.00     0.001 A 
HETATM    9  C   UNL     1     -39.619  49.965 -53.936  1.00  0.00     0.002 A 
HETATM   10  C   UNL     1     -40.095  51.224 -54.310  1.00  0.00     0.030 A 
HETATM   11  N   UNL     1     -40.833  53.406 -53.809  1.00  0.00    -0.336 N 
HETATM   12  H   UNL     1     -40.915  53.573 -54.802  1.00  0.00     0.168 HD
ENDROOT
BRANCH   1  13
HETATM   13  N   UNL     1     -41.601  55.607 -53.655  1.00  0.00    -0.334 N 
HETATM   14  H   UNL     1     -41.534  56.424 -53.050  1.00  0.00     0.168 HD
BRANCH  13  15
HETATM   15  C   UNL     1     -42.095  55.939 -54.931  1.00  0.00     0.068 A 
HETATM   16  C   UNL     1     -42.102  57.298 -55.320  1.00  0.00     0.097 A 
HETATM   17  C   UNL     1     -42.515  57.666 -56.608  1.00  0.00     0.075 A 
HETATM   18  C   UNL     1     -42.927  56.688 -57.514  1.00  0.00     0.070 A 
HETATM   19  C   UNL     1     -42.938  55.349 -57.124  1.00  0.00     0.039 A 
HETATM   20  C   UNL     1     -42.523  54.973 -55.844  1.00  0.00     0.035 A 
BRANCH  16  21
HETATM   21  O   UNL     1     -41.675  58.173 -54.347  1.00  0.00    -0.354 OA
HETATM   22  C   UNL     1     -41.833  59.564 -54.605  1.00  0.00     0.210 C 
ENDBRANCH  16  21
BRANCH  18  23
HETATM   23  O   UNL     1     -43.348  56.905 -58.797  1.00  0.00    -0.356 OA
HETATM   24  C   UNL     1     -43.524  55.763 -59.627  1.00  0.00     0.210 C 
ENDBRANCH  18  23
ENDBRANCH  13  15
ENDBRANCH   1  13
TORSDOF 4
ENDMDL
MODEL 9
REMARK VINA RESULT:      -6.9      2.325      3.712
REMARK  4 active torsions:
REMARK  status: ('A' for Active; 'I' for Inactive)
REMARK    1  A    between atoms: O_2  and  C_3 
REMARK    2  A    between atoms: C_5  and  O_6 
REMARK    3  A    between atoms: C_8  and  N_9 
REMARK    4  A    between atoms: N_9  and  C_10 
ROOT
HETATM    1  C   UNL     1     -42.351  54.552 -53.598  1.00  0.00     0.153 A 
HETATM    2  S   UNL     1     -41.390  53.232 -54.080  1.00  0.00    -0.011 SA
HETATM    3  C   UNL     1     -40.486  52.869 -52.642  1.00  0.00     0.228 A 
HETATM    4  O   UNL     1     -39.655  51.971 -52.658  1.00  0.00    -0.279 OA
HETATM    5  C   UNL     1     -40.720  53.630 -51.405  1.00  0.00     0.048 A 
HETATM    6  C   UNL     1     -41.653  54.667 -51.348  1.00  0.00     0.048 A 
HETATM    7  C   UNL     1     -39.981  53.278 -50.260  1.00  0.00     0.018 A 
HETATM    8  C   UNL     1     -40.168  53.959 -49.059  1.00  0.00     0.001 A 
HETATM    9  C   UNL     1     -41.093  54.994 -48.992  1.00  0.00     0.002 A 
HETATM   10  C   UNL     1     -41.829  55.342 -50.128  1.00  0.00     0.030 A 
HETATM   11  N   UNL     1     -42.407  55.077 -52.398  1.00  0.00    -0.336 N 
HETATM   12  H   UNL     1     -43.102  55.800 -52.273  1.00  0.00     0.168 HD
ENDROOT
BRANCH   1  13
HETATM   13  N   UNL     1     -43.206  55.074 -54.593  1.00  0.00    -0.334 N 
HETATM   14  H   UNL     1     -44.184  54.826 -54.449  1.00  0.00     0.168 HD
BRANCH  13  15
HETATM   15  C   UNL     1     -43.034  55.897 -55.721  1.00  0.00     0.068 A 
HETATM   16  C   UNL     1     -42.749  57.268 -55.521  1.00  0.00     0.097 A 
HETATM   17  C   UNL     1     -42.496  58.107 -56.615  1.00  0.00     0.075 A 
HETATM   18  C   UNL     1     -42.530  57.594 -57.912  1.00  0.00     0.070 A 
HETATM   19  C   UNL     1     -42.829  56.246 -58.110  1.00  0.00     0.039 A 
HETATM   20  C   UNL     1     -43.077  55.401 -57.026  1.00  0.00     0.035 A 
BRANCH  16  21
HETATM   21  O   UNL     1     -42.742  57.664 -54.203  1.00  0.00    -0.354 OA
HETATM   22  C   UNL     1     -41.602  58.381 -53.743  1.00  0.00     0.210 C 
ENDBRANCH  16  21
BRANCH  18  23
HETATM   23  O   UNL     1     -42.299  58.296 -59.063  1.00  0.00    -0.356 OA
HETATM   24  C   UNL     1     -41.946  57.550 -60.222  1.00  0.00     0.210 C 
ENDBRANCH  18  23
ENDBRANCH  13  15
ENDBRANCH   1  13
TORSDOF 4
ENDMDL
MODEL 10
REMARK VINA RESULT:      -6.8      3.442      4.973
REMARK  4 active torsions:
REMARK  status: ('A' for Active; 'I' for Inactive)
REMARK    1  A    between atoms: O_2  and  C_3 
REMARK    2  A    between atoms: C_5  and  O_6 
REMARK    3  A    between atoms: C_8  and  N_9 
REMARK    4  A    between atoms: N_9  and  C_10 
ROOT
HETATM    1  C   UNL     1     -43.046  54.956 -51.894  1.00  0.00     0.153 A 
HETATM    2  S   UNL     1     -42.267  54.944 -50.379  1.00  0.00    -0.011 SA
HETATM    3  C   UNL     1     -40.996  53.783 -50.610  1.00  0.00     0.228 A 
HETATM    4  O   UNL     1     -40.252  53.504 -49.678  1.00  0.00    -0.279 OA
HETATM    5  C   UNL     1     -40.804  53.142 -51.920  1.00  0.00     0.048 A 
HETATM    6  C   UNL     1     -41.635  53.426 -53.004  1.00  0.00     0.048 A 
HETATM    7  C   UNL     1     -39.742  52.229 -52.062  1.00  0.00     0.018 A 
HETATM    8  C   UNL     1     -39.508  51.597 -53.281  1.00  0.00     0.001 A 
HETATM    9  C   UNL     1     -40.331  51.874 -54.367  1.00  0.00     0.002 A 
HETATM   10  C   UNL     1     -41.384  52.781 -54.227  1.00  0.00     0.030 A 
HETATM   11  N   UNL     1     -42.682  54.287 -52.961  1.00  0.00    -0.336 N 
HETATM   12  H   UNL     1     -43.211  54.486 -53.799  1.00  0.00     0.168 HD
ENDROOT
BRANCH   1  13
HETATM   13  N   UNL     1     -44.151  55.828 -51.999  1.00  0.00    -0.334 N 
HETATM   14  H   UNL     1     -45.035  55.383 -51.754  1.00  0.00     0.168 HD
BRANCH  13  15
HETATM   15  C   UNL     1     -44.320  57.187 -52.323  1.00  0.00     0.068 A 
HETATM   16  C   UNL     1     -44.347  57.558 -53.687  1.00  0.00     0.097 A 
HETATM   17  C   UNL     1     -44.588  58.889 -54.056  1.00  0.00     0.075 A 
HETATM   18  C   UNL     1     -44.798  59.858 -53.075  1.00  0.00     0.070 A 
HETATM   19  C   UNL     1     -44.754  59.495 -51.728  1.00  0.00     0.039 A 
HETATM   20  C   UNL     1     -44.519  58.170 -51.352  1.00  0.00     0.035 A 
BRANCH  16  21
HETATM   21  O   UNL     1     -44.127  56.522 -54.566  1.00  0.00    -0.354 OA
HETATM   22  C   UNL     1     -43.364  56.807 -55.734  1.00  0.00     0.210 C 
ENDBRANCH  16  21
BRANCH  18  23
HETATM   23  O   UNL     1     -45.048  61.185 -53.293  1.00  0.00    -0.356 OA
HETATM   24  C   UNL     1     -44.109  62.119 -52.774  1.00  0.00     0.210 C 
ENDBRANCH  18  23
ENDBRANCH  13  15
ENDBRANCH   1  13
TORSDOF 4
ENDMDL
