MODEL 1
REMARK VINA RESULT:      -8.3      0.000      0.000
REMARK  10 active torsions:
REMARK  status: ('A' for Active; 'I' for Inactive)
REMARK    1  A    between atoms: C_4  and  C_5 
REMARK    2  A    between atoms: C_5  and  C_6 
REMARK    3  A    between atoms: C_6  and  N_7 
REMARK    4  A    between atoms: C_6  and  C_15 
REMARK       I    between atoms: N_7  and  C_8 
REMARK    5  A    between atoms: C_8  and  C_9 
REMARK       I    between atoms: C_15  and  N_16 
REMARK    6  A    between atoms: N_16  and  C_17 
REMARK    7  A    between atoms: C_17  and  C_18 
REMARK    8  A    between atoms: C_18  and  C_19 
REMARK    9  A    between atoms: C_21  and  O_22 
REMARK   10  A    between atoms: C_23  and  O_24 
ROOT
HETATM    1  C   UNL     1     -42.004  53.987 -53.383  1.00  0.00     0.181 C 
ENDROOT
BRANCH   1   2
HETATM    2  C   UNL     1     -40.514  53.688 -53.142  1.00  0.00     0.073 C 
BRANCH   2   3
HETATM    3  C   UNL     1     -40.194  52.211 -53.071  1.00  0.00    -0.056 A 
HETATM    4  C   UNL     1     -40.286  51.406 -54.215  1.00  0.00     0.007 A 
HETATM    5  C   UNL     1     -39.983  50.044 -54.148  1.00  0.00     0.001 A 
HETATM    6  C   UNL     1     -39.585  49.474 -52.940  1.00  0.00     0.000 A 
HETATM    7  C   UNL     1     -39.486  50.266 -51.799  1.00  0.00     0.001 A 
HETATM    8  C   UNL     1     -39.785  51.629 -51.863  1.00  0.00     0.007 A 
ENDBRANCH   2   3
ENDBRANCH   1   2
BRANCH   1   9
HETATM    9  N   UNL     1     -42.190  54.957 -54.467  1.00  0.00    -0.342 N 
HETATM   10  C   UNL     1     -42.834  54.663 -55.645  1.00  0.00     0.276 C 
HETATM   11  O   UNL     1     -43.401  53.586 -55.818  1.00  0.00    -0.265 OA
HETATM   12  H   UNL     1     -41.770  55.877 -54.388  1.00  0.00     0.163 HD
BRANCH  10  13
HETATM   13  C   UNL     1     -42.817  55.732 -56.620  1.00  0.00     0.142 A 
HETATM   14  O   UNL     1     -42.402  56.983 -56.243  1.00  0.00    -0.317 OA
HETATM   15  C   UNL     1     -42.490  57.780 -57.340  1.00  0.00     0.143 A 
HETATM   16  C   UNL     1     -42.957  57.068 -58.419  1.00  0.00     0.027 A 
HETATM   17  C   UNL     1     -43.170  55.747 -57.956  1.00  0.00     0.045 A 
ENDBRANCH  10  13
ENDBRANCH   1   9
BRANCH   1  18
HETATM   18  C   UNL     1     -42.658  54.503 -52.078  1.00  0.00     0.240 C 
HETATM   19  N   UNL     1     -43.546  55.543 -52.271  1.00  0.00    -0.359 N 
HETATM   20  H   UNL     1     -43.692  55.871 -53.227  1.00  0.00     0.162 HD
HETATM   21  O   UNL     1     -42.456  53.998 -50.976  1.00  0.00    -0.271 OA
BRANCH  19  22
HETATM   22  C   UNL     1     -44.322  56.137 -51.203  1.00  0.00     0.127 C 
BRANCH  22  23
HETATM   23  C   UNL     1     -44.026  57.631 -51.025  1.00  0.00     0.058 C 
BRANCH  23  24
HETATM   24  C   UNL     1     -42.639  58.080 -51.432  1.00  0.00    -0.054 A 
HETATM   25  C   UNL     1     -42.415  58.771 -52.635  1.00  0.00     0.046 A 
HETATM   26  C   UNL     1     -41.131  59.201 -52.955  1.00  0.00     0.099 A 
HETATM   27  C   UNL     1     -40.070  58.965 -52.087  1.00  0.00     0.098 A 
HETATM   28  C   UNL     1     -40.269  58.292 -50.893  1.00  0.00     0.040 A 
HETATM   29  C   UNL     1     -41.553  57.853 -50.564  1.00  0.00     0.010 A 
BRANCH  26  30
HETATM   30  O   UNL     1     -40.864  59.865 -54.120  1.00  0.00    -0.358 OA
HETATM   31  H   UNL     1     -39.918  60.096 -54.118  1.00  0.00     0.218 HD
ENDBRANCH  26  30
BRANCH  27  32
HETATM   32  O   UNL     1     -38.816  59.401 -52.408  1.00  0.00    -0.358 OA
HETATM   33  H   UNL     1     -38.571  59.994 -51.671  1.00  0.00     0.218 HD
ENDBRANCH  27  32
ENDBRANCH  23  24
ENDBRANCH  22  23
ENDBRANCH  19  22
ENDBRANCH   1  18
TORSDOF 10
ENDMDL
MODEL 2
REMARK VINA RESULT:      -8.0      1.127      1.861
REMARK  10 active torsions:
REMARK  status: ('A' for Active; 'I' for Inactive)
REMARK    1  A    between atoms: C_4  and  C_5 
REMARK    2  A    between atoms: C_5  and  C_6 
REMARK    3  A    between atoms: C_6  and  N_7 
REMARK    4  A    between atoms: C_6  and  C_15 
REMARK       I    between atoms: N_7  and  C_8 
REMARK    5  A    between atoms: C_8  and  C_9 
REMARK       I    between atoms: C_15  and  N_16 
REMARK    6  A    between atoms: N_16  and  C_17 
REMARK    7  A    between atoms: C_17  and  C_18 
REMARK    8  A    between atoms: C_18  and  C_19 
REMARK    9  A    between atoms: C_21  and  O_22 
REMARK   10  A    between atoms: C_23  and  O_24 
ROOT
HETATM    1  C   UNL     1     -41.696  53.910 -53.796  1.00  0.00     0.181 C 
ENDROOT
BRANCH   1   2
HETATM    2  C   UNL     1     -40.212  53.511 -53.700  1.00  0.00     0.073 C 
BRANCH   2   3
HETATM    3  C   UNL     1     -39.996  52.067 -53.303  1.00  0.00    -0.056 A 
HETATM    4  C   UNL     1     -40.061  51.047 -54.263  1.00  0.00     0.007 A 
HETATM    5  C   UNL     1     -39.854  49.715 -53.895  1.00  0.00     0.001 A 
HETATM    6  C   UNL     1     -39.579  49.391 -52.569  1.00  0.00     0.000 A 
HETATM    7  C   UNL     1     -39.506  50.397 -51.609  1.00  0.00     0.001 A 
HETATM    8  C   UNL     1     -39.710  51.729 -51.973  1.00  0.00     0.007 A 
ENDBRANCH   2   3
ENDBRANCH   1   2
BRANCH   1   9
HETATM    9  N   UNL     1     -41.918  54.902 -54.852  1.00  0.00    -0.342 N 
HETATM   10  C   UNL     1     -42.830  54.738 -55.868  1.00  0.00     0.276 C 
HETATM   11  O   UNL     1     -43.606  53.784 -55.888  1.00  0.00    -0.265 OA
HETATM   12  H   UNL     1     -41.330  55.729 -54.890  1.00  0.00     0.163 HD
BRANCH  10  13
HETATM   13  C   UNL     1     -42.818  55.789 -56.861  1.00  0.00     0.142 A 
HETATM   14  O   UNL     1     -42.371  57.039 -56.516  1.00  0.00    -0.317 OA
HETATM   15  C   UNL     1     -42.471  57.819 -57.624  1.00  0.00     0.143 A 
HETATM   16  C   UNL     1     -42.977  57.097 -58.679  1.00  0.00     0.027 A 
HETATM   17  C   UNL     1     -43.202  55.789 -58.188  1.00  0.00     0.045 A 
ENDBRANCH  10  13
ENDBRANCH   1   9
BRANCH   1  18
HETATM   18  C   UNL     1     -42.187  54.454 -52.432  1.00  0.00     0.240 C 
HETATM   19  N   UNL     1     -41.199  55.062 -51.684  1.00  0.00    -0.359 N 
HETATM   20  H   UNL     1     -40.259  55.101 -52.081  1.00  0.00     0.162 HD
HETATM   21  O   UNL     1     -43.361  54.406 -52.070  1.00  0.00    -0.271 OA
BRANCH  19  22
HETATM   22  C   UNL     1     -41.444  55.700 -50.408  1.00  0.00     0.127 C 
BRANCH  22  23
HETATM   23  C   UNL     1     -41.256  57.221 -50.469  1.00  0.00     0.058 C 
BRANCH  23  24
HETATM   24  C   UNL     1     -41.978  57.929 -51.595  1.00  0.00    -0.054 A 
HETATM   25  C   UNL     1     -41.283  58.439 -52.704  1.00  0.00     0.046 A 
HETATM   26  C   UNL     1     -41.986  59.050 -53.738  1.00  0.00     0.099 A 
HETATM   27  C   UNL     1     -43.374  59.145 -53.689  1.00  0.00     0.098 A 
HETATM   28  C   UNL     1     -44.079  58.643 -52.608  1.00  0.00     0.040 A 
HETATM   29  C   UNL     1     -43.382  58.032 -51.564  1.00  0.00     0.010 A 
BRANCH  26  30
HETATM   30  O   UNL     1     -41.351  59.572 -54.831  1.00  0.00    -0.358 OA
HETATM   31  H   UNL     1     -40.522  59.980 -54.523  1.00  0.00     0.218 HD
ENDBRANCH  26  30
BRANCH  27  32
HETATM   32  O   UNL     1     -44.053  59.738 -54.715  1.00  0.00    -0.358 OA
HETATM   33  H   UNL     1     -43.753  59.259 -55.511  1.00  0.00     0.218 HD
ENDBRANCH  27  32
ENDBRANCH  23  24
ENDBRANCH  22  23
ENDBRANCH  19  22
ENDBRANCH   1  18
TORSDOF 10
ENDMDL
MODEL 3
REMARK VINA RESULT:      -8.0      2.411      7.346
REMARK  10 active torsions:
REMARK  status: ('A' for Active; 'I' for Inactive)
REMARK    1  A    between atoms: C_4  and  C_5 
REMARK    2  A    between atoms: C_5  and  C_6 
REMARK    3  A    between atoms: C_6  and  N_7 
REMARK    4  A    between atoms: C_6  and  C_15 
REMARK       I    between atoms: N_7  and  C_8 
REMARK    5  A    between atoms: C_8  and  C_9 
REMARK       I    between atoms: C_15  and  N_16 
REMARK    6  A    between atoms: N_16  and  C_17 
REMARK    7  A    between atoms: C_17  and  C_18 
REMARK    8  A    between atoms: C_18  and  C_19 
REMARK    9  A    between atoms: C_21  and  O_22 
REMARK   10  A    between atoms: C_23  and  O_24 
ROOT
HETATM    1  C   UNL     1     -43.426  56.584 -56.159  1.00  0.00     0.181 C 
ENDROOT
BRANCH   1   2
HETATM    2  C   UNL     1     -43.094  57.082 -57.577  1.00  0.00     0.073 C 
BRANCH   2   3
HETATM    3  C   UNL     1     -44.040  56.565 -58.639  1.00  0.00    -0.056 A 
HETATM    4  C   UNL     1     -45.250  57.222 -58.897  1.00  0.00     0.007 A 
HETATM    5  C   UNL     1     -46.118  56.748 -59.883  1.00  0.00     0.001 A 
HETATM    6  C   UNL     1     -45.784  55.614 -60.621  1.00  0.00     0.000 A 
HETATM    7  C   UNL     1     -44.581  54.956 -60.377  1.00  0.00     0.001 A 
HETATM    8  C   UNL     1     -43.710  55.430 -59.393  1.00  0.00     0.007 A 
ENDBRANCH   2   3
ENDBRANCH   1   2
BRANCH   1   9
HETATM    9  N   UNL     1     -43.173  57.620 -55.152  1.00  0.00    -0.342 N 
HETATM   10  C   UNL     1     -43.764  57.632 -53.911  1.00  0.00     0.276 C 
HETATM   11  O   UNL     1     -44.466  56.701 -53.523  1.00  0.00    -0.265 OA
HETATM   12  H   UNL     1     -42.585  58.411 -55.391  1.00  0.00     0.163 HD
BRANCH  10  13
HETATM   13  C   UNL     1     -43.454  58.797 -53.111  1.00  0.00     0.142 A 
HETATM   14  O   UNL     1     -42.145  59.103 -52.842  1.00  0.00    -0.317 OA
HETATM   15  C   UNL     1     -42.146  60.228 -52.081  1.00  0.00     0.143 A 
HETATM   16  C   UNL     1     -43.432  60.654 -51.848  1.00  0.00     0.027 A 
HETATM   17  C   UNL     1     -44.277  59.731 -52.512  1.00  0.00     0.045 A 
ENDBRANCH  10  13
ENDBRANCH   1   9
BRANCH   1  18
HETATM   18  C   UNL     1     -42.608  55.309 -55.840  1.00  0.00     0.240 C 
HETATM   19  N   UNL     1     -41.296  55.559 -55.493  1.00  0.00    -0.359 N 
HETATM   20  H   UNL     1     -40.987  56.532 -55.475  1.00  0.00     0.162 HD
HETATM   21  O   UNL     1     -43.093  54.179 -55.835  1.00  0.00    -0.271 OA
BRANCH  19  22
HETATM   22  C   UNL     1     -40.366  54.525 -55.091  1.00  0.00     0.127 C 
BRANCH  22  23
HETATM   23  C   UNL     1     -40.559  54.102 -53.629  1.00  0.00     0.058 C 
BRANCH  23  24
HETATM   24  C   UNL     1     -40.257  52.651 -53.318  1.00  0.00    -0.054 A 
HETATM   25  C   UNL     1     -40.295  51.664 -54.317  1.00  0.00     0.046 A 
HETATM   26  C   UNL     1     -39.974  50.348 -54.000  1.00  0.00     0.099 A 
HETATM   27  C   UNL     1     -39.602  50.004 -52.704  1.00  0.00     0.098 A 
HETATM   28  C   UNL     1     -39.551  50.963 -51.705  1.00  0.00     0.040 A 
HETATM   29  C   UNL     1     -39.876  52.285 -52.013  1.00  0.00     0.010 A 
BRANCH  26  30
HETATM   30  O   UNL     1     -40.009  49.352 -54.937  1.00  0.00    -0.358 OA
HETATM   31  H   UNL     1     -39.851  48.509 -54.476  1.00  0.00     0.218 HD
ENDBRANCH  26  30
BRANCH  27  32
HETATM   32  O   UNL     1     -39.280  48.711 -52.407  1.00  0.00    -0.358 OA
HETATM   33  H   UNL     1     -38.639  48.457 -53.100  1.00  0.00     0.218 HD
ENDBRANCH  27  32
ENDBRANCH  23  24
ENDBRANCH  22  23
ENDBRANCH  19  22
ENDBRANCH   1  18
TORSDOF 10
ENDMDL
MODEL 4
REMARK VINA RESULT:      -7.9      1.866      2.724
REMARK  10 active torsions:
REMARK  status: ('A' for Active; 'I' for Inactive)
REMARK    1  A    between atoms: C_4  and  C_5 
REMARK    2  A    between atoms: C_5  and  C_6 
REMARK    3  A    between atoms: C_6  and  N_7 
REMARK    4  A    between atoms: C_6  and  C_15 
REMARK       I    between atoms: N_7  and  C_8 
REMARK    5  A    between atoms: C_8  and  C_9 
REMARK       I    between atoms: C_15  and  N_16 
REMARK    6  A    between atoms: N_16  and  C_17 
REMARK    7  A    between atoms: C_17  and  C_18 
REMARK    8  A    between atoms: C_18  and  C_19 
REMARK    9  A    between atoms: C_21  and  O_22 
REMARK   10  A    between atoms: C_23  and  O_24 
ROOT
HETATM    1  C   UNL     1     -41.971  54.009 -53.648  1.00  0.00     0.181 C 
ENDROOT
BRANCH   1   2
HETATM    2  C   UNL     1     -40.486  53.720 -53.363  1.00  0.00     0.073 C 
BRANCH   2   3
HETATM    3  C   UNL     1     -40.172  52.248 -53.213  1.00  0.00    -0.056 A 
HETATM    4  C   UNL     1     -39.720  51.737 -51.988  1.00  0.00     0.007 A 
HETATM    5  C   UNL     1     -39.438  50.376 -51.850  1.00  0.00     0.001 A 
HETATM    6  C   UNL     1     -39.605  49.514 -52.931  1.00  0.00     0.000 A 
HETATM    7  C   UNL     1     -40.059  50.010 -54.151  1.00  0.00     0.001 A 
HETATM    8  C   UNL     1     -40.344  51.370 -54.292  1.00  0.00     0.007 A 
ENDBRANCH   2   3
ENDBRANCH   1   2
BRANCH   1   9
HETATM    9  N   UNL     1     -42.132  54.955 -54.757  1.00  0.00    -0.342 N 
HETATM   10  C   UNL     1     -42.876  54.686 -55.882  1.00  0.00     0.276 C 
HETATM   11  O   UNL     1     -43.553  53.664 -55.977  1.00  0.00    -0.265 OA
HETATM   12  H   UNL     1     -41.621  55.831 -54.741  1.00  0.00     0.163 HD
BRANCH  10  13
HETATM   13  C   UNL     1     -42.819  55.713 -56.898  1.00  0.00     0.142 A 
HETATM   14  O   UNL     1     -42.331  56.955 -56.577  1.00  0.00    -0.317 OA
HETATM   15  C   UNL     1     -42.395  57.712 -57.703  1.00  0.00     0.143 A 
HETATM   16  C   UNL     1     -42.919  56.986 -58.746  1.00  0.00     0.027 A 
HETATM   17  C   UNL     1     -43.193  55.697 -58.228  1.00  0.00     0.045 A 
ENDBRANCH  10  13
ENDBRANCH   1   9
BRANCH   1  18
HETATM   18  C   UNL     1     -42.660  54.551 -52.372  1.00  0.00     0.240 C 
HETATM   19  N   UNL     1     -42.410  55.886 -52.126  1.00  0.00    -0.359 N 
HETATM   20  H   UNL     1     -41.813  56.387 -52.786  1.00  0.00     0.162 HD
HETATM   21  O   UNL     1     -43.411  53.875 -51.671  1.00  0.00    -0.271 OA
BRANCH  19  22
HETATM   22  C   UNL     1     -43.003  56.619 -51.027  1.00  0.00     0.127 C 
BRANCH  22  23
HETATM   23  C   UNL     1     -44.374  57.206 -51.388  1.00  0.00     0.058 C 
BRANCH  23  24
HETATM   24  C   UNL     1     -44.439  57.975 -52.690  1.00  0.00    -0.054 A 
HETATM   25  C   UNL     1     -44.959  57.396 -53.859  1.00  0.00     0.046 A 
HETATM   26  C   UNL     1     -45.038  58.149 -55.027  1.00  0.00     0.099 A 
HETATM   27  C   UNL     1     -44.619  59.476 -55.041  1.00  0.00     0.098 A 
HETATM   28  C   UNL     1     -44.110  60.069 -53.898  1.00  0.00     0.040 A 
HETATM   29  C   UNL     1     -44.023  59.320 -52.723  1.00  0.00     0.010 A 
BRANCH  26  30
HETATM   30  O   UNL     1     -45.525  57.622 -56.191  1.00  0.00    -0.358 OA
HETATM   31  H   UNL     1     -45.385  56.660 -56.160  1.00  0.00     0.218 HD
ENDBRANCH  26  30
BRANCH  27  32
HETATM   32  O   UNL     1     -44.710  60.207 -56.191  1.00  0.00    -0.358 OA
HETATM   33  H   UNL     1     -43.816  60.581 -56.309  1.00  0.00     0.218 HD
ENDBRANCH  27  32
ENDBRANCH  23  24
ENDBRANCH  22  23
ENDBRANCH  19  22
ENDBRANCH   1  18
TORSDOF 10
ENDMDL
MODEL 5
REMARK VINA RESULT:      -7.8      2.625      6.652
REMARK  10 active torsions:
REMARK  status: ('A' for Active; 'I' for Inactive)
REMARK    1  A    between atoms: C_4  and  C_5 
REMARK    2  A    between atoms: C_5  and  C_6 
REMARK    3  A    between atoms: C_6  and  N_7 
REMARK    4  A    between atoms: C_6  and  C_15 
REMARK       I    between atoms: N_7  and  C_8 
REMARK    5  A    between atoms: C_8  and  C_9 
REMARK       I    between atoms: C_15  and  N_16 
REMARK    6  A    between atoms: N_16  and  C_17 
REMARK    7  A    between atoms: C_17  and  C_18 
REMARK    8  A    between atoms: C_18  and  C_19 
REMARK    9  A    between atoms: C_21  and  O_22 
REMARK   10  A    between atoms: C_23  and  O_24 
ROOT
HETATM    1  C   UNL     1     -41.803  55.579 -53.217  1.00  0.00     0.181 C 
ENDROOT
BRANCH   1   2
HETATM    2  C   UNL     1     -41.828  54.424 -52.200  1.00  0.00     0.073 C 
BRANCH   2   3
HETATM    3  C   UNL     1     -40.955  53.252 -52.590  1.00  0.00    -0.056 A 
HETATM    4  C   UNL     1     -40.144  52.619 -51.638  1.00  0.00     0.007 A 
HETATM    5  C   UNL     1     -39.345  51.532 -52.000  1.00  0.00     0.001 A 
HETATM    6  C   UNL     1     -39.349  51.066 -53.313  1.00  0.00     0.000 A 
HETATM    7  C   UNL     1     -40.156  51.685 -54.266  1.00  0.00     0.001 A 
HETATM    8  C   UNL     1     -40.958  52.770 -53.907  1.00  0.00     0.007 A 
ENDBRANCH   2   3
ENDBRANCH   1   2
BRANCH   1   9
HETATM    9  N   UNL     1     -42.134  56.860 -52.585  1.00  0.00    -0.342 N 
HETATM   10  C   UNL     1     -41.348  57.983 -52.690  1.00  0.00     0.276 C 
HETATM   11  O   UNL     1     -40.363  58.014 -53.426  1.00  0.00    -0.265 OA
HETATM   12  H   UNL     1     -42.946  56.920 -51.979  1.00  0.00     0.163 HD
BRANCH  10  13
HETATM   13  C   UNL     1     -41.805  59.110 -51.906  1.00  0.00     0.142 A 
HETATM   14  O   UNL     1     -42.973  59.742 -52.249  1.00  0.00    -0.317 OA
HETATM   15  C   UNL     1     -43.156  60.752 -51.357  1.00  0.00     0.143 A 
HETATM   16  C   UNL     1     -42.127  60.786 -50.447  1.00  0.00     0.027 A 
HETATM   17  C   UNL     1     -41.255  59.728 -50.800  1.00  0.00     0.045 A 
ENDBRANCH  10  13
ENDBRANCH   1   9
BRANCH   1  18
HETATM   18  C   UNL     1     -42.781  55.282 -54.380  1.00  0.00     0.240 C 
HETATM   19  N   UNL     1     -42.232  55.463 -55.633  1.00  0.00    -0.359 N 
HETATM   20  H   UNL     1     -41.258  55.766 -55.685  1.00  0.00     0.162 HD
HETATM   21  O   UNL     1     -43.925  54.864 -54.210  1.00  0.00    -0.271 OA
BRANCH  19  22
HETATM   22  C   UNL     1     -42.941  55.180 -56.863  1.00  0.00     0.127 C 
BRANCH  22  23
HETATM   23  C   UNL     1     -42.998  56.394 -57.798  1.00  0.00     0.058 C 
BRANCH  23  24
HETATM   24  C   UNL     1     -44.039  56.333 -58.895  1.00  0.00    -0.054 A 
HETATM   25  C   UNL     1     -43.941  55.410 -59.949  1.00  0.00     0.046 A 
HETATM   26  C   UNL     1     -44.939  55.358 -60.917  1.00  0.00     0.099 A 
HETATM   27  C   UNL     1     -46.041  56.203 -60.841  1.00  0.00     0.098 A 
HETATM   28  C   UNL     1     -46.162  57.116 -59.806  1.00  0.00     0.040 A 
HETATM   29  C   UNL     1     -45.163  57.179 -58.833  1.00  0.00     0.010 A 
BRANCH  26  30
HETATM   30  O   UNL     1     -44.878  54.484 -61.968  1.00  0.00    -0.358 OA
HETATM   31  H   UNL     1     -44.920  55.007 -62.788  1.00  0.00     0.218 HD
ENDBRANCH  26  30
BRANCH  27  32
HETATM   32  O   UNL     1     -47.019  56.136 -61.792  1.00  0.00    -0.358 OA
HETATM   33  H   UNL     1     -47.686  55.533 -61.409  1.00  0.00     0.218 HD
ENDBRANCH  27  32
ENDBRANCH  23  24
ENDBRANCH  22  23
ENDBRANCH  19  22
ENDBRANCH   1  18
TORSDOF 10
ENDMDL
MODEL 6
REMARK VINA RESULT:      -7.8      2.992      7.281
REMARK  10 active torsions:
REMARK  status: ('A' for Active; 'I' for Inactive)
REMARK    1  A    between atoms: C_4  and  C_5 
REMARK    2  A    between atoms: C_5  and  C_6 
REMARK    3  A    between atoms: C_6  and  N_7 
REMARK    4  A    between atoms: C_6  and  C_15 
REMARK       I    between atoms: N_7  and  C_8 
REMARK    5  A    between atoms: C_8  and  C_9 
REMARK       I    between atoms: C_15  and  N_16 
REMARK    6  A    between atoms: N_16  and  C_17 
REMARK    7  A    between atoms: C_17  and  C_18 
REMARK    8  A    between atoms: C_18  and  C_19 
REMARK    9  A    between atoms: C_21  and  O_22 
REMARK   10  A    between atoms: C_23  and  O_24 
ROOT
HETATM    1  C   UNL     1     -43.139  56.940 -56.929  1.00  0.00     0.181 C 
ENDROOT
BRANCH   1   2
HETATM    2  C   UNL     1     -43.073  55.731 -57.878  1.00  0.00     0.073 C 
BRANCH   2   3
HETATM    3  C   UNL     1     -44.118  55.759 -58.972  1.00  0.00    -0.056 A 
HETATM    4  C   UNL     1     -44.107  54.799 -59.993  1.00  0.00     0.007 A 
HETATM    5  C   UNL     1     -45.077  54.822 -60.997  1.00  0.00     0.001 A 
HETATM    6  C   UNL     1     -46.067  55.802 -60.990  1.00  0.00     0.000 A 
HETATM    7  C   UNL     1     -46.090  56.758 -59.977  1.00  0.00     0.001 A 
HETATM    8  C   UNL     1     -45.123  56.735 -58.970  1.00  0.00     0.007 A 
ENDBRANCH   2   3
ENDBRANCH   1   2
BRANCH   1   9
HETATM    9  N   UNL     1     -42.413  58.092 -57.473  1.00  0.00    -0.342 N 
HETATM   10  C   UNL     1     -42.981  59.331 -57.652  1.00  0.00     0.276 C 
HETATM   11  O   UNL     1     -44.117  59.583 -57.255  1.00  0.00    -0.265 OA
HETATM   12  H   UNL     1     -41.462  57.969 -57.803  1.00  0.00     0.163 HD
BRANCH  10  13
HETATM   13  C   UNL     1     -42.119  60.298 -58.297  1.00  0.00     0.142 A 
HETATM   14  O   UNL     1     -41.134  60.916 -57.570  1.00  0.00    -0.317 OA
HETATM   15  C   UNL     1     -40.488  61.764 -58.413  1.00  0.00     0.143 A 
HETATM   16  C   UNL     1     -41.040  61.709 -59.671  1.00  0.00     0.027 A 
HETATM   17  C   UNL     1     -42.092  60.764 -59.597  1.00  0.00     0.045 A 
ENDBRANCH  10  13
ENDBRANCH   1   9
BRANCH   1  18
HETATM   18  C   UNL     1     -42.576  56.555 -55.539  1.00  0.00     0.240 C 
HETATM   19  N   UNL     1     -42.701  55.214 -55.238  1.00  0.00    -0.359 N 
HETATM   20  H   UNL     1     -43.138  54.609 -55.936  1.00  0.00     0.162 HD
HETATM   21  O   UNL     1     -42.014  57.354 -54.793  1.00  0.00    -0.271 OA
BRANCH  19  22
HETATM   22  C   UNL     1     -42.185  54.617 -54.024  1.00  0.00     0.127 C 
BRANCH  22  23
HETATM   23  C   UNL     1     -40.713  54.206 -54.154  1.00  0.00     0.058 C 
BRANCH  23  24
HETATM   24  C   UNL     1     -40.381  52.798 -53.709  1.00  0.00    -0.054 A 
HETATM   25  C   UNL     1     -40.416  51.718 -54.607  1.00  0.00     0.046 A 
HETATM   26  C   UNL     1     -40.067  50.444 -54.169  1.00  0.00     0.099 A 
HETATM   27  C   UNL     1     -39.669  50.234 -52.852  1.00  0.00     0.098 A 
HETATM   28  C   UNL     1     -39.620  51.286 -51.952  1.00  0.00     0.040 A 
HETATM   29  C   UNL     1     -39.973  52.567 -52.381  1.00  0.00     0.010 A 
BRANCH  26  30
HETATM   30  O   UNL     1     -40.099  49.361 -55.004  1.00  0.00    -0.358 OA
HETATM   31  H   UNL     1     -39.795  49.656 -55.881  1.00  0.00     0.218 HD
ENDBRANCH  26  30
BRANCH  27  32
HETATM   32  O   UNL     1     -39.319  48.981 -52.437  1.00  0.00    -0.358 OA
HETATM   33  H   UNL     1     -39.550  48.970 -51.487  1.00  0.00     0.218 HD
ENDBRANCH  27  32
ENDBRANCH  23  24
ENDBRANCH  22  23
ENDBRANCH  19  22
ENDBRANCH   1  18
TORSDOF 10
ENDMDL
MODEL 7
REMARK VINA RESULT:      -7.7      2.172      3.537
REMARK  10 active torsions:
REMARK  status: ('A' for Active; 'I' for Inactive)
REMARK    1  A    between atoms: C_4  and  C_5 
REMARK    2  A    between atoms: C_5  and  C_6 
REMARK    3  A    between atoms: C_6  and  N_7 
REMARK    4  A    between atoms: C_6  and  C_15 
REMARK       I    between atoms: N_7  and  C_8 
REMARK    5  A    between atoms: C_8  and  C_9 
REMARK       I    between atoms: C_15  and  N_16 
REMARK    6  A    between atoms: N_16  and  C_17 
REMARK    7  A    between atoms: C_17  and  C_18 
REMARK    8  A    between atoms: C_18  and  C_19 
REMARK    9  A    between atoms: C_21  and  O_22 
REMARK   10  A    between atoms: C_23  and  O_24 
ROOT
HETATM    1  C   UNL     1     -42.894  55.080 -55.267  1.00  0.00     0.181 C 
ENDROOT
BRANCH   1   2
HETATM    2  C   UNL     1     -41.358  55.060 -55.169  1.00  0.00     0.073 C 
BRANCH   2   3
HETATM    3  C   UNL     1     -40.819  53.944 -54.303  1.00  0.00    -0.056 A 
HETATM    4  C   UNL     1     -40.375  52.746 -54.879  1.00  0.00     0.007 A 
HETATM    5  C   UNL     1     -39.871  51.719 -54.077  1.00  0.00     0.001 A 
HETATM    6  C   UNL     1     -39.804  51.880 -52.695  1.00  0.00     0.000 A 
HETATM    7  C   UNL     1     -40.238  53.069 -52.113  1.00  0.00     0.001 A 
HETATM    8  C   UNL     1     -40.740  54.098 -52.912  1.00  0.00     0.007 A 
ENDBRANCH   2   3
ENDBRANCH   1   2
BRANCH   1   9
HETATM    9  N   UNL     1     -43.346  54.951 -56.656  1.00  0.00    -0.342 N 
HETATM   10  C   UNL     1     -43.134  55.913 -57.615  1.00  0.00     0.276 C 
HETATM   11  O   UNL     1     -42.444  56.905 -57.391  1.00  0.00    -0.265 OA
HETATM   12  H   UNL     1     -43.904  54.147 -56.925  1.00  0.00     0.163 HD
BRANCH  10  13
HETATM   13  C   UNL     1     -43.750  55.631 -58.893  1.00  0.00     0.142 A 
HETATM   14  O   UNL     1     -44.357  54.418 -59.098  1.00  0.00    -0.317 OA
HETATM   15  C   UNL     1     -44.841  54.423 -60.368  1.00  0.00     0.143 A 
HETATM   16  C   UNL     1     -44.556  55.615 -60.989  1.00  0.00     0.027 A 
HETATM   17  C   UNL     1     -43.852  56.395 -60.040  1.00  0.00     0.045 A 
ENDBRANCH  10  13
ENDBRANCH   1   9
BRANCH   1  18
HETATM   18  C   UNL     1     -43.448  56.382 -54.638  1.00  0.00     0.240 C 
HETATM   19  N   UNL     1     -42.472  57.290 -54.282  1.00  0.00    -0.359 N 
HETATM   20  H   UNL     1     -41.499  57.035 -54.459  1.00  0.00     0.162 HD
HETATM   21  O   UNL     1     -44.649  56.617 -54.520  1.00  0.00    -0.271 OA
BRANCH  19  22
HETATM   22  C   UNL     1     -42.762  58.600 -53.739  1.00  0.00     0.127 C 
BRANCH  22  23
HETATM   23  C   UNL     1     -42.167  58.798 -52.338  1.00  0.00     0.058 C 
BRANCH  23  24
HETATM   24  C   UNL     1     -42.159  57.575 -51.448  1.00  0.00    -0.054 A 
HETATM   25  C   UNL     1     -43.289  56.749 -51.325  1.00  0.00     0.046 A 
HETATM   26  C   UNL     1     -43.231  55.611 -50.526  1.00  0.00     0.099 A 
HETATM   27  C   UNL     1     -42.056  55.277 -49.860  1.00  0.00     0.098 A 
HETATM   28  C   UNL     1     -40.928  56.072 -49.971  1.00  0.00     0.040 A 
HETATM   29  C   UNL     1     -40.979  57.219 -50.767  1.00  0.00     0.010 A 
BRANCH  26  30
HETATM   30  O   UNL     1     -44.310  54.786 -50.368  1.00  0.00    -0.358 OA
HETATM   31  H   UNL     1     -45.044  55.159 -50.887  1.00  0.00     0.218 HD
ENDBRANCH  26  30
BRANCH  27  32
HETATM   32  O   UNL     1     -42.008  54.152 -49.086  1.00  0.00    -0.358 OA
HETATM   33  H   UNL     1     -41.996  54.492 -48.169  1.00  0.00     0.218 HD
ENDBRANCH  27  32
ENDBRANCH  23  24
ENDBRANCH  22  23
ENDBRANCH  19  22
ENDBRANCH   1  18
TORSDOF 10
ENDMDL
MODEL 8
REMARK VINA RESULT:      -7.7      2.829      6.928
REMARK  10 active torsions:
REMARK  status: ('A' for Active; 'I' for Inactive)
REMARK    1  A    between atoms: C_4  and  C_5 
REMARK    2  A    between atoms: C_5  and  C_6 
REMARK    3  A    between atoms: C_6  and  N_7 
REMARK    4  A    between atoms: C_6  and  C_15 
REMARK       I    between atoms: N_7  and  C_8 
REMARK    5  A    between atoms: C_8  and  C_9 
REMARK       I    between atoms: C_15  and  N_16 
REMARK    6  A    between atoms: N_16  and  C_17 
REMARK    7  A    between atoms: C_17  and  C_18 
REMARK    8  A    between atoms: C_18  and  C_19 
REMARK    9  A    between atoms: C_21  and  O_22 
REMARK   10  A    between atoms: C_23  and  O_24 
ROOT
HETATM    1  C   UNL     1     -43.275  57.103 -54.698  1.00  0.00     0.181 C 
ENDROOT
BRANCH   1   2
HETATM    2  C   UNL     1     -43.587  55.605 -54.529  1.00  0.00     0.073 C 
BRANCH   2   3
HETATM    3  C   UNL     1     -42.356  54.745 -54.348  1.00  0.00    -0.056 A 
HETATM    4  C   UNL     1     -42.163  54.016 -53.167  1.00  0.00     0.007 A 
HETATM    5  C   UNL     1     -41.029  53.216 -53.005  1.00  0.00     0.001 A 
HETATM    6  C   UNL     1     -40.079  53.137 -54.021  1.00  0.00     0.000 A 
HETATM    7  C   UNL     1     -40.263  53.854 -55.201  1.00  0.00     0.001 A 
HETATM    8  C   UNL     1     -41.397  54.651 -55.367  1.00  0.00     0.007 A 
ENDBRANCH   2   3
ENDBRANCH   1   2
BRANCH   1   9
HETATM    9  N   UNL     1     -42.573  57.640 -53.528  1.00  0.00    -0.342 N 
HETATM   10  C   UNL     1     -41.615  58.624 -53.605  1.00  0.00     0.276 C 
HETATM   11  O   UNL     1     -41.367  59.201 -54.662  1.00  0.00    -0.265 OA
HETATM   12  H   UNL     1     -42.741  57.231 -52.616  1.00  0.00     0.163 HD
BRANCH  10  13
HETATM   13  C   UNL     1     -40.975  58.937 -52.346  1.00  0.00     0.142 A 
HETATM   14  O   UNL     1     -39.621  59.155 -52.312  1.00  0.00    -0.317 OA
HETATM   15  C   UNL     1     -39.292  59.421 -51.021  1.00  0.00     0.143 A 
HETATM   16  C   UNL     1     -40.407  59.376 -50.218  1.00  0.00     0.027 A 
HETATM   17  C   UNL     1     -41.492  59.063 -51.071  1.00  0.00     0.045 A 
ENDBRANCH  10  13
ENDBRANCH   1   9
BRANCH   1  18
HETATM   18  C   UNL     1     -44.584  57.891 -54.951  1.00  0.00     0.240 C 
HETATM   19  N   UNL     1     -45.124  57.688 -56.205  1.00  0.00    -0.359 N 
HETATM   20  H   UNL     1     -44.632  57.056 -56.838  1.00  0.00     0.162 HD
HETATM   21  O   UNL     1     -45.129  58.587 -54.097  1.00  0.00    -0.271 OA
BRANCH  19  22
HETATM   22  C   UNL     1     -46.378  58.270 -56.637  1.00  0.00     0.127 C 
BRANCH  22  23
HETATM   23  C   UNL     1     -46.345  58.706 -58.107  1.00  0.00     0.058 C 
BRANCH  23  24
HETATM   24  C   UNL     1     -45.915  57.647 -59.099  1.00  0.00    -0.054 A 
HETATM   25  C   UNL     1     -44.559  57.412 -59.378  1.00  0.00     0.046 A 
HETATM   26  C   UNL     1     -44.201  56.402 -60.267  1.00  0.00     0.099 A 
HETATM   27  C   UNL     1     -45.177  55.614 -60.870  1.00  0.00     0.098 A 
HETATM   28  C   UNL     1     -46.520  55.824 -60.604  1.00  0.00     0.040 A 
HETATM   29  C   UNL     1     -46.888  56.838 -59.716  1.00  0.00     0.010 A 
BRANCH  26  30
HETATM   30  O   UNL     1     -42.895  56.146 -60.579  1.00  0.00    -0.358 OA
HETATM   31  H   UNL     1     -42.392  56.969 -60.440  1.00  0.00     0.218 HD
ENDBRANCH  26  30
BRANCH  27  32
HETATM   32  O   UNL     1     -44.814  54.621 -61.734  1.00  0.00    -0.358 OA
HETATM   33  H   UNL     1     -45.651  54.355 -62.161  1.00  0.00     0.218 HD
ENDBRANCH  27  32
ENDBRANCH  23  24
ENDBRANCH  22  23
ENDBRANCH  19  22
ENDBRANCH   1  18
TORSDOF 10
ENDMDL
MODEL 9
REMARK VINA RESULT:      -7.6      2.626      6.938
REMARK  10 active torsions:
REMARK  status: ('A' for Active; 'I' for Inactive)
REMARK    1  A    between atoms: C_4  and  C_5 
REMARK    2  A    between atoms: C_5  and  C_6 
REMARK    3  A    between atoms: C_6  and  N_7 
REMARK    4  A    between atoms: C_6  and  C_15 
REMARK       I    between atoms: N_7  and  C_8 
REMARK    5  A    between atoms: C_8  and  C_9 
REMARK       I    between atoms: C_15  and  N_16 
REMARK    6  A    between atoms: N_16  and  C_17 
REMARK    7  A    between atoms: C_17  and  C_18 
REMARK    8  A    between atoms: C_18  and  C_19 
REMARK    9  A    between atoms: C_21  and  O_22 
REMARK   10  A    between atoms: C_23  and  O_24 
ROOT
HETATM    1  C   UNL     1     -43.415  57.160 -55.647  1.00  0.00     0.181 C 
ENDROOT
BRANCH   1   2
HETATM    2  C   UNL     1     -44.467  57.965 -54.864  1.00  0.00     0.073 C 
BRANCH   2   3
HETATM    3  C   UNL     1     -43.872  58.922 -53.854  1.00  0.00    -0.056 A 
HETATM    4  C   UNL     1     -43.353  60.158 -54.263  1.00  0.00     0.007 A 
HETATM    5  C   UNL     1     -42.811  61.042 -53.327  1.00  0.00     0.001 A 
HETATM    6  C   UNL     1     -42.784  60.701 -51.976  1.00  0.00     0.000 A 
HETATM    7  C   UNL     1     -43.302  59.477 -51.559  1.00  0.00     0.001 A 
HETATM    8  C   UNL     1     -43.847  58.593 -52.491  1.00  0.00     0.007 A 
ENDBRANCH   2   3
ENDBRANCH   1   2
BRANCH   1   9
HETATM    9  N   UNL     1     -43.987  56.563 -56.858  1.00  0.00    -0.342 N 
HETATM   10  C   UNL     1     -43.520  56.824 -58.125  1.00  0.00     0.276 C 
HETATM   11  O   UNL     1     -42.508  57.496 -58.313  1.00  0.00    -0.265 OA
HETATM   12  H   UNL     1     -44.812  55.978 -56.782  1.00  0.00     0.163 HD
BRANCH  10  13
HETATM   13  C   UNL     1     -44.291  56.212 -59.185  1.00  0.00     0.142 A 
HETATM   14  O   UNL     1     -45.497  56.756 -59.544  1.00  0.00    -0.317 OA
HETATM   15  C   UNL     1     -45.999  55.990 -60.548  1.00  0.00     0.143 A 
HETATM   16  C   UNL     1     -45.140  54.957 -60.843  1.00  0.00     0.027 A 
HETATM   17  C   UNL     1     -44.039  55.099 -59.964  1.00  0.00     0.045 A 
ENDBRANCH  10  13
ENDBRANCH   1   9
BRANCH   1  18
HETATM   18  C   UNL     1     -42.805  56.063 -54.740  1.00  0.00     0.240 C 
HETATM   19  N   UNL     1     -41.432  55.965 -54.828  1.00  0.00    -0.359 N 
HETATM   20  H   UNL     1     -40.949  56.604 -55.461  1.00  0.00     0.162 HD
HETATM   21  O   UNL     1     -43.472  55.380 -53.965  1.00  0.00    -0.271 OA
BRANCH  19  22
HETATM   22  C   UNL     1     -40.644  55.056 -54.022  1.00  0.00     0.127 C 
BRANCH  22  23
HETATM   23  C   UNL     1     -40.648  53.626 -54.579  1.00  0.00     0.058 C 
BRANCH  23  24
HETATM   24  C   UNL     1     -40.275  52.536 -53.597  1.00  0.00    -0.054 A 
HETATM   25  C   UNL     1     -39.969  51.235 -54.028  1.00  0.00     0.046 A 
HETATM   26  C   UNL     1     -39.593  50.270 -53.099  1.00  0.00     0.099 A 
HETATM   27  C   UNL     1     -39.504  50.588 -51.747  1.00  0.00     0.098 A 
HETATM   28  C   UNL     1     -39.794  51.867 -51.301  1.00  0.00     0.040 A 
HETATM   29  C   UNL     1     -40.177  52.841 -52.226  1.00  0.00     0.010 A 
BRANCH  26  30
HETATM   30  O   UNL     1     -39.299  48.987 -53.471  1.00  0.00    -0.358 OA
HETATM   31  H   UNL     1     -38.412  48.993 -53.874  1.00  0.00     0.218 HD
ENDBRANCH  26  30
BRANCH  27  32
HETATM   32  O   UNL     1     -39.125  49.635 -50.846  1.00  0.00    -0.358 OA
HETATM   33  H   UNL     1     -38.281  49.291 -51.200  1.00  0.00     0.218 HD
ENDBRANCH  27  32
ENDBRANCH  23  24
ENDBRANCH  22  23
ENDBRANCH  19  22
ENDBRANCH   1  18
TORSDOF 10
ENDMDL
MODEL 10
REMARK VINA RESULT:      -7.6      3.265      7.102
REMARK  10 active torsions:
REMARK  status: ('A' for Active; 'I' for Inactive)
REMARK    1  A    between atoms: C_4  and  C_5 
REMARK    2  A    between atoms: C_5  and  C_6 
REMARK    3  A    between atoms: C_6  and  N_7 
REMARK    4  A    between atoms: C_6  and  C_15 
REMARK       I    between atoms: N_7  and  C_8 
REMARK    5  A    between atoms: C_8  and  C_9 
REMARK       I    between atoms: C_15  and  N_16 
REMARK    6  A    between atoms: N_16  and  C_17 
REMARK    7  A    between atoms: C_17  and  C_18 
REMARK    8  A    between atoms: C_18  and  C_19 
REMARK    9  A    between atoms: C_21  and  O_22 
REMARK   10  A    between atoms: C_23  and  O_24 
ROOT
HETATM    1  C   UNL     1     -43.241  57.535 -51.625  1.00  0.00     0.181 C 
ENDROOT
BRANCH   1   2
HETATM    2  C   UNL     1     -43.169  57.765 -53.145  1.00  0.00     0.073 C 
BRANCH   2   3
HETATM    3  C   UNL     1     -42.807  56.523 -53.930  1.00  0.00    -0.056 A 
HETATM    4  C   UNL     1     -43.718  55.464 -54.048  1.00  0.00     0.007 A 
HETATM    5  C   UNL     1     -43.385  54.322 -54.780  1.00  0.00     0.001 A 
HETATM    6  C   UNL     1     -42.141  54.228 -55.402  1.00  0.00     0.000 A 
HETATM    7  C   UNL     1     -41.232  55.277 -55.296  1.00  0.00     0.001 A 
HETATM    8  C   UNL     1     -41.563  56.421 -54.568  1.00  0.00     0.007 A 
ENDBRANCH   2   3
ENDBRANCH   1   2
BRANCH   1   9
HETATM    9  N   UNL     1     -43.673  58.745 -50.919  1.00  0.00    -0.342 N 
HETATM   10  C   UNL     1     -44.988  59.023 -50.626  1.00  0.00     0.276 C 
HETATM   11  O   UNL     1     -45.882  58.208 -50.843  1.00  0.00    -0.265 OA
HETATM   12  H   UNL     1     -42.989  59.456 -50.685  1.00  0.00     0.163 HD
BRANCH  10  13
HETATM   13  C   UNL     1     -45.205  60.316 -50.016  1.00  0.00     0.142 A 
HETATM   14  O   UNL     1     -45.993  60.412 -48.897  1.00  0.00    -0.317 OA
HETATM   15  C   UNL     1     -46.027  61.723 -48.542  1.00  0.00     0.143 A 
HETATM   16  C   UNL     1     -45.279  62.479 -49.414  1.00  0.00     0.027 A 
HETATM   17  C   UNL     1     -44.749  61.573 -50.365  1.00  0.00     0.045 A 
ENDBRANCH  10  13
ENDBRANCH   1   9
BRANCH   1  18
HETATM   18  C   UNL     1     -41.865  57.063 -51.095  1.00  0.00     0.240 C 
HETATM   19  N   UNL     1     -41.764  55.695 -50.941  1.00  0.00    -0.359 N 
HETATM   20  H   UNL     1     -42.579  55.129 -51.183  1.00  0.00     0.162 HD
HETATM   21  O   UNL     1     -40.923  57.826 -50.887  1.00  0.00    -0.271 OA
BRANCH  19  22
HETATM   22  C   UNL     1     -40.550  55.027 -50.523  1.00  0.00     0.127 C 
BRANCH  22  23
HETATM   23  C   UNL     1     -40.794  53.567 -50.121  1.00  0.00     0.058 C 
BRANCH  23  24
HETATM   24  C   UNL     1     -40.359  52.525 -51.129  1.00  0.00    -0.054 A 
HETATM   25  C   UNL     1     -40.009  51.223 -50.733  1.00  0.00     0.046 A 
HETATM   26  C   UNL     1     -39.652  50.282 -51.694  1.00  0.00     0.099 A 
HETATM   27  C   UNL     1     -39.653  50.617 -53.045  1.00  0.00     0.098 A 
HETATM   28  C   UNL     1     -40.001  51.892 -53.458  1.00  0.00     0.040 A 
HETATM   29  C   UNL     1     -40.357  52.844 -52.500  1.00  0.00     0.010 A 
BRANCH  26  30
HETATM   30  O   UNL     1     -39.292  49.007 -51.355  1.00  0.00    -0.358 OA
HETATM   31  H   UNL     1     -40.085  48.558 -51.014  1.00  0.00     0.218 HD
ENDBRANCH  26  30
BRANCH  27  32
HETATM   32  O   UNL     1     -39.309  49.681 -53.979  1.00  0.00    -0.358 OA
HETATM   33  H   UNL     1     -38.467  50.011 -54.351  1.00  0.00     0.218 HD
ENDBRANCH  27  32
ENDBRANCH  23  24
ENDBRANCH  22  23
ENDBRANCH  19  22
ENDBRANCH   1  18
TORSDOF 10
ENDMDL
