MODEL 1
REMARK VINA RESULT:     -10.0      0.000      0.000
REMARK  4 active torsions:
REMARK  status: ('A' for Active; 'I' for Inactive)
REMARK    1  A    between atoms: C_5  and  N_6 
REMARK       I    between atoms: N_6  and  C_7 
REMARK    2  A    between atoms: C_7  and  C_8 
REMARK    3  A    between atoms: C_12  and  C_13 
REMARK    4  A    between atoms: N_24  and  C_25 
ROOT
HETATM    1  N   UNL     1     -42.223  56.888 -54.873  1.00  0.00    -0.348 N 
HETATM    2  C   UNL     1     -42.433  57.988 -55.661  1.00  0.00     0.257 C 
HETATM    3  O   UNL     1     -41.745  59.002 -55.587  1.00  0.00    -0.267 OA
HETATM    4  H   UNL     1     -42.851  56.090 -54.972  1.00  0.00     0.163 HD
ENDROOT
BRANCH   1   5
HETATM    5  C   UNL     1     -41.060  56.746 -54.023  1.00  0.00     0.122 C 
HETATM    6  C   UNL     1     -41.342  57.137 -52.556  1.00  0.00     0.039 C 
HETATM    7  C   UNL     1     -41.988  56.022 -51.672  1.00  0.00    -0.040 C 
HETATM    8  C   UNL     1     -43.445  55.751 -52.094  1.00  0.00     0.015 C 
HETATM    9  C   UNL     1     -42.014  56.523 -50.211  1.00  0.00     0.015 C 
HETATM   10  C   UNL     1     -41.164  54.695 -51.724  1.00  0.00     0.069 C 
HETATM   11  C   UNL     1     -40.664  54.402 -53.099  1.00  0.00     0.047 A 
HETATM   12  C   UNL     1     -40.618  55.330 -54.125  1.00  0.00     0.008 A 
HETATM   13  N   UNL     1     -40.186  53.203 -53.619  1.00  0.00    -0.238 N 
HETATM   14  C   UNL     1     -40.128  54.625 -55.227  1.00  0.00     0.150 A 
HETATM   15  N   UNL     1     -39.897  53.347 -54.947  1.00  0.00    -0.179 NA
BRANCH  13  16
HETATM   16  C   UNL     1     -39.969  51.927 -53.008  1.00  0.00     0.058 A 
HETATM   17  C   UNL     1     -39.916  50.788 -53.834  1.00  0.00     0.031 A 
HETATM   18  C   UNL     1     -39.717  49.516 -53.292  1.00  0.00     0.002 A 
HETATM   19  C   UNL     1     -39.558  49.364 -51.919  1.00  0.00     0.000 A 
HETATM   20  C   UNL     1     -39.589  50.485 -51.092  1.00  0.00     0.002 A 
HETATM   21  C   UNL     1     -39.790  51.762 -51.632  1.00  0.00     0.031 A 
ENDBRANCH  13  16
ENDBRANCH   1   5
BRANCH   2  22
HETATM   22  C   UNL     1     -43.516  57.846 -56.680  1.00  0.00     0.100 A 
HETATM   23  C   UNL     1     -43.655  56.673 -57.594  1.00  0.00     0.261 A 
HETATM   24  O   UNL     1     -42.915  55.694 -57.519  1.00  0.00    -0.267 OA
HETATM   25  N   UNL     1     -44.646  56.744 -58.543  1.00  0.00    -0.322 N 
HETATM   26  C   UNL     1     -45.502  57.810 -58.697  1.00  0.00     0.045 A 
HETATM   27  H   UNL     1     -44.733  55.942 -59.155  1.00  0.00     0.169 HD
HETATM   28  C   UNL     1     -45.398  58.856 -57.860  1.00  0.00     0.031 A 
HETATM   29  C   UNL     1     -44.384  58.865 -56.829  1.00  0.00     0.025 A 
BRANCH  26  30
HETATM   30  C   UNL     1     -46.472  57.782 -59.806  1.00  0.00    -0.009 A 
HETATM   31  C   UNL     1     -46.824  56.562 -60.405  1.00  0.00     0.013 A 
HETATM   32  C   UNL     1     -47.737  56.522 -61.462  1.00  0.00     0.001 A 
HETATM   33  C   UNL     1     -48.309  57.702 -61.932  1.00  0.00     0.000 A 
HETATM   34  C   UNL     1     -47.972  58.920 -61.346  1.00  0.00     0.001 A 
HETATM   35  C   UNL     1     -47.061  58.960 -60.287  1.00  0.00     0.013 A 
ENDBRANCH  26  30
ENDBRANCH   2  22
TORSDOF 4
ENDMDL
MODEL 2
REMARK VINA RESULT:      -9.7      1.810      9.690
REMARK  4 active torsions:
REMARK  status: ('A' for Active; 'I' for Inactive)
REMARK    1  A    between atoms: C_5  and  N_6 
REMARK       I    between atoms: N_6  and  C_7 
REMARK    2  A    between atoms: C_7  and  C_8 
REMARK    3  A    between atoms: C_12  and  C_13 
REMARK    4  A    between atoms: N_24  and  C_25 
ROOT
HETATM    1  N   UNL     1     -42.420  58.223 -56.818  1.00  0.00    -0.348 N 
HETATM    2  C   UNL     1     -42.414  57.940 -55.478  1.00  0.00     0.257 C 
HETATM    3  O   UNL     1     -42.878  58.701 -54.635  1.00  0.00    -0.267 OA
HETATM    4  H   UNL     1     -41.993  57.554 -57.459  1.00  0.00     0.163 HD
ENDROOT
BRANCH   1   5
HETATM    5  C   UNL     1     -43.143  59.345 -57.377  1.00  0.00     0.122 C 
HETATM    6  C   UNL     1     -42.367  60.050 -58.510  1.00  0.00     0.039 C 
HETATM    7  C   UNL     1     -42.499  59.402 -59.925  1.00  0.00    -0.040 C 
HETATM    8  C   UNL     1     -41.766  58.048 -59.988  1.00  0.00     0.015 C 
HETATM    9  C   UNL     1     -41.825  60.342 -60.948  1.00  0.00     0.015 C 
HETATM   10  C   UNL     1     -43.995  59.216 -60.336  1.00  0.00     0.069 C 
HETATM   11  C   UNL     1     -44.836  58.759 -59.191  1.00  0.00     0.047 A 
HETATM   12  C   UNL     1     -44.447  58.823 -57.865  1.00  0.00     0.008 A 
HETATM   13  N   UNL     1     -46.104  58.185 -59.212  1.00  0.00    -0.238 N 
HETATM   14  C   UNL     1     -45.506  58.259 -57.150  1.00  0.00     0.150 A 
HETATM   15  N   UNL     1     -46.487  57.845 -57.945  1.00  0.00    -0.179 NA
BRANCH  13  16
HETATM   16  C   UNL     1     -47.004  57.917 -60.292  1.00  0.00     0.058 A 
HETATM   17  C   UNL     1     -47.732  58.990 -60.840  1.00  0.00     0.031 A 
HETATM   18  C   UNL     1     -48.633  58.786 -61.888  1.00  0.00     0.002 A 
HETATM   19  C   UNL     1     -48.812  57.509 -62.410  1.00  0.00     0.000 A 
HETATM   20  C   UNL     1     -48.083  56.442 -61.889  1.00  0.00     0.002 A 
HETATM   21  C   UNL     1     -47.181  56.643 -60.838  1.00  0.00     0.031 A 
ENDBRANCH  13  16
ENDBRANCH   1   5
BRANCH   2  22
HETATM   22  C   UNL     1     -41.867  56.599 -55.111  1.00  0.00     0.100 A 
HETATM   23  C   UNL     1     -42.164  55.342 -55.860  1.00  0.00     0.261 A 
HETATM   24  O   UNL     1     -42.834  55.338 -56.892  1.00  0.00    -0.267 OA
HETATM   25  N   UNL     1     -41.665  54.176 -55.332  1.00  0.00    -0.322 N 
HETATM   26  C   UNL     1     -40.922  54.099 -54.177  1.00  0.00     0.045 A 
HETATM   27  H   UNL     1     -41.871  53.330 -55.850  1.00  0.00     0.169 HD
HETATM   28  C   UNL     1     -40.629  55.230 -53.514  1.00  0.00     0.031 A 
HETATM   29  C   UNL     1     -41.112  56.505 -54.000  1.00  0.00     0.025 A 
BRANCH  26  30
HETATM   30  C   UNL     1     -40.512  52.771 -53.688  1.00  0.00    -0.009 A 
HETATM   31  C   UNL     1     -40.117  52.602 -52.351  1.00  0.00     0.013 A 
HETATM   32  C   UNL     1     -39.719  51.350 -51.876  1.00  0.00     0.001 A 
HETATM   33  C   UNL     1     -39.713  50.251 -52.732  1.00  0.00     0.000 A 
HETATM   34  C   UNL     1     -40.106  50.402 -54.060  1.00  0.00     0.001 A 
HETATM   35  C   UNL     1     -40.506  51.654 -54.536  1.00  0.00     0.013 A 
ENDBRANCH  26  30
ENDBRANCH   2  22
TORSDOF 4
ENDMDL
MODEL 3
REMARK VINA RESULT:      -9.1      3.995      9.408
REMARK  4 active torsions:
REMARK  status: ('A' for Active; 'I' for Inactive)
REMARK    1  A    between atoms: C_5  and  N_6 
REMARK       I    between atoms: N_6  and  C_7 
REMARK    2  A    between atoms: C_7  and  C_8 
REMARK    3  A    between atoms: C_12  and  C_13 
REMARK    4  A    between atoms: N_24  and  C_25 
ROOT
HETATM    1  N   UNL     1     -42.015  58.274 -53.388  1.00  0.00    -0.348 N 
HETATM    2  C   UNL     1     -41.853  57.475 -54.489  1.00  0.00     0.257 C 
HETATM    3  O   UNL     1     -41.888  57.909 -55.637  1.00  0.00    -0.267 OA
HETATM    4  H   UNL     1     -41.999  57.840 -52.465  1.00  0.00     0.163 HD
ENDROOT
BRANCH   1   5
HETATM    5  C   UNL     1     -42.047  59.718 -53.468  1.00  0.00     0.122 C 
HETATM    6  C   UNL     1     -43.106  60.238 -54.464  1.00  0.00     0.039 C 
HETATM    7  C   UNL     1     -44.562  60.346 -53.907  1.00  0.00    -0.040 C 
HETATM    8  C   UNL     1     -45.172  58.951 -53.669  1.00  0.00     0.015 C 
HETATM    9  C   UNL     1     -45.430  61.058 -54.968  1.00  0.00     0.015 C 
HETATM   10  C   UNL     1     -44.613  61.180 -52.587  1.00  0.00     0.069 C 
HETATM   11  C   UNL     1     -43.459  60.878 -51.690  1.00  0.00     0.047 A 
HETATM   12  C   UNL     1     -42.310  60.224 -52.094  1.00  0.00     0.008 A 
HETATM   13  N   UNL     1     -43.311  61.153 -50.333  1.00  0.00    -0.238 N 
HETATM   14  C   UNL     1     -41.528  60.119 -50.941  1.00  0.00     0.150 A 
HETATM   15  N   UNL     1     -42.128  60.641 -49.876  1.00  0.00    -0.179 NA
BRANCH  13  16
HETATM   16  C   UNL     1     -44.157  61.844 -49.410  1.00  0.00     0.058 A 
HETATM   17  C   UNL     1     -45.081  61.096 -48.656  1.00  0.00     0.031 A 
HETATM   18  C   UNL     1     -45.940  61.720 -47.747  1.00  0.00     0.002 A 
HETATM   19  C   UNL     1     -45.880  63.098 -47.571  1.00  0.00     0.000 A 
HETATM   20  C   UNL     1     -44.957  63.848 -48.297  1.00  0.00     0.002 A 
HETATM   21  C   UNL     1     -44.096  63.227 -49.210  1.00  0.00     0.031 A 
ENDBRANCH  13  16
ENDBRANCH   1   5
BRANCH   2  22
HETATM   22  C   UNL     1     -41.554  56.041 -54.200  1.00  0.00     0.100 A 
HETATM   23  C   UNL     1     -42.103  55.293 -53.030  1.00  0.00     0.261 A 
HETATM   24  O   UNL     1     -42.911  55.796 -52.252  1.00  0.00    -0.267 OA
HETATM   25  N   UNL     1     -41.648  54.008 -52.850  1.00  0.00    -0.322 N 
HETATM   26  C   UNL     1     -40.737  53.383 -53.668  1.00  0.00     0.045 A 
HETATM   27  H   UNL     1     -42.030  53.509 -52.056  1.00  0.00     0.169 HD
HETATM   28  C   UNL     1     -40.259  54.043 -54.737  1.00  0.00     0.031 A 
HETATM   29  C   UNL     1     -40.685  55.399 -55.005  1.00  0.00     0.025 A 
BRANCH  26  30
HETATM   30  C   UNL     1     -40.283  52.027 -53.314  1.00  0.00    -0.009 A 
HETATM   31  C   UNL     1     -40.241  51.019 -54.290  1.00  0.00     0.013 A 
HETATM   32  C   UNL     1     -39.820  49.727 -53.966  1.00  0.00     0.001 A 
HETATM   33  C   UNL     1     -39.437  49.427 -52.661  1.00  0.00     0.000 A 
HETATM   34  C   UNL     1     -39.471  50.417 -51.681  1.00  0.00     0.001 A 
HETATM   35  C   UNL     1     -39.889  51.710 -52.006  1.00  0.00     0.013 A 
ENDBRANCH  26  30
ENDBRANCH   2  22
TORSDOF 4
ENDMDL
MODEL 4
REMARK VINA RESULT:      -8.6      1.684      2.253
REMARK  4 active torsions:
REMARK  status: ('A' for Active; 'I' for Inactive)
REMARK    1  A    between atoms: C_5  and  N_6 
REMARK       I    between atoms: N_6  and  C_7 
REMARK    2  A    between atoms: C_7  and  C_8 
REMARK    3  A    between atoms: C_12  and  C_13 
REMARK    4  A    between atoms: N_24  and  C_25 
ROOT
HETATM    1  N   UNL     1     -42.306  57.416 -53.795  1.00  0.00    -0.348 N 
HETATM    2  C   UNL     1     -42.736  58.714 -53.878  1.00  0.00     0.257 C 
HETATM    3  O   UNL     1     -42.202  59.632 -53.263  1.00  0.00    -0.267 OA
HETATM    4  H   UNL     1     -42.815  56.700 -54.315  1.00  0.00     0.163 HD
ENDROOT
BRANCH   1   5
HETATM    5  C   UNL     1     -41.076  57.040 -53.134  1.00  0.00     0.122 C 
HETATM    6  C   UNL     1     -41.199  57.048 -51.595  1.00  0.00     0.039 C 
HETATM    7  C   UNL     1     -41.805  55.756 -50.959  1.00  0.00    -0.040 C 
HETATM    8  C   UNL     1     -43.307  55.627 -51.283  1.00  0.00     0.015 C 
HETATM    9  C   UNL     1     -41.670  55.867 -49.425  1.00  0.00     0.015 C 
HETATM   10  C   UNL     1     -41.049  54.472 -51.430  1.00  0.00     0.069 C 
HETATM   11  C   UNL     1     -40.695  54.532 -52.878  1.00  0.00     0.047 A 
HETATM   12  C   UNL     1     -40.706  55.690 -53.635  1.00  0.00     0.008 A 
HETATM   13  N   UNL     1     -40.321  53.497 -53.730  1.00  0.00    -0.238 N 
HETATM   14  C   UNL     1     -40.355  55.283 -54.924  1.00  0.00     0.150 A 
HETATM   15  N   UNL     1     -40.154  53.971 -55.002  1.00  0.00    -0.179 NA
BRANCH  13  16
HETATM   16  C   UNL     1     -40.102  52.104 -53.488  1.00  0.00     0.058 A 
HETATM   17  C   UNL     1     -39.682  51.704 -52.206  1.00  0.00     0.031 A 
HETATM   18  C   UNL     1     -39.442  50.358 -51.915  1.00  0.00     0.002 A 
HETATM   19  C   UNL     1     -39.628  49.393 -52.899  1.00  0.00     0.000 A 
HETATM   20  C   UNL     1     -40.063  49.773 -54.167  1.00  0.00     0.002 A 
HETATM   21  C   UNL     1     -40.303  51.121 -54.462  1.00  0.00     0.031 A 
ENDBRANCH  13  16
ENDBRANCH   1   5
BRANCH   2  22
HETATM   22  C   UNL     1     -43.859  58.955 -54.833  1.00  0.00     0.100 A 
HETATM   23  C   UNL     1     -44.964  57.983 -55.086  1.00  0.00     0.261 A 
HETATM   24  O   UNL     1     -45.065  56.929 -54.460  1.00  0.00    -0.267 OA
HETATM   25  N   UNL     1     -45.864  58.313 -56.071  1.00  0.00    -0.322 N 
HETATM   26  C   UNL     1     -45.809  59.464 -56.821  1.00  0.00     0.045 A 
HETATM   27  H   UNL     1     -46.611  57.648 -56.231  1.00  0.00     0.169 HD
HETATM   28  C   UNL     1     -44.832  60.354 -56.580  1.00  0.00     0.031 A 
HETATM   29  C   UNL     1     -43.842  60.089 -55.559  1.00  0.00     0.025 A 
BRANCH  26  30
HETATM   30  C   UNL     1     -46.800  59.655 -57.895  1.00  0.00    -0.009 A 
HETATM   31  C   UNL     1     -47.929  60.461 -57.678  1.00  0.00     0.013 A 
HETATM   32  C   UNL     1     -48.880  60.645 -58.685  1.00  0.00     0.001 A 
HETATM   33  C   UNL     1     -48.714  60.024 -59.921  1.00  0.00     0.000 A 
HETATM   34  C   UNL     1     -47.597  59.223 -60.152  1.00  0.00     0.001 A 
HETATM   35  C   UNL     1     -46.644  59.041 -59.147  1.00  0.00     0.013 A 
ENDBRANCH  26  30
ENDBRANCH   2  22
TORSDOF 4
ENDMDL
MODEL 5
REMARK VINA RESULT:      -8.1     15.985     19.269
REMARK  4 active torsions:
REMARK  status: ('A' for Active; 'I' for Inactive)
REMARK    1  A    between atoms: C_5  and  N_6 
REMARK       I    between atoms: N_6  and  C_7 
REMARK    2  A    between atoms: C_7  and  C_8 
REMARK    3  A    between atoms: C_12  and  C_13 
REMARK    4  A    between atoms: N_24  and  C_25 
ROOT
HETATM    1  N   UNL     1     -34.959  40.747 -53.801  1.00  0.00    -0.348 N 
HETATM    2  C   UNL     1     -35.581  41.443 -52.798  1.00  0.00     0.257 C 
HETATM    3  O   UNL     1     -35.732  42.660 -52.827  1.00  0.00    -0.267 OA
HETATM    4  H   UNL     1     -34.847  39.738 -53.697  1.00  0.00     0.163 HD
ENDROOT
BRANCH   1   5
HETATM    5  C   UNL     1     -34.598  41.352 -55.065  1.00  0.00     0.122 C 
HETATM    6  C   UNL     1     -33.282  40.787 -55.642  1.00  0.00     0.039 C 
HETATM    7  C   UNL     1     -33.413  39.453 -56.444  1.00  0.00    -0.040 C 
HETATM    8  C   UNL     1     -33.750  38.273 -55.511  1.00  0.00     0.015 C 
HETATM    9  C   UNL     1     -32.049  39.151 -57.101  1.00  0.00     0.015 C 
HETATM   10  C   UNL     1     -34.490  39.562 -57.572  1.00  0.00     0.069 C 
HETATM   11  C   UNL     1     -35.695  40.319 -57.122  1.00  0.00     0.047 A 
HETATM   12  C   UNL     1     -35.734  41.123 -55.997  1.00  0.00     0.008 A 
HETATM   13  N   UNL     1     -36.964  40.360 -57.691  1.00  0.00    -0.238 N 
HETATM   14  C   UNL     1     -37.047  41.595 -55.935  1.00  0.00     0.150 A 
HETATM   15  N   UNL     1     -37.800  41.121 -56.922  1.00  0.00    -0.179 NA
BRANCH  13  16
HETATM   16  C   UNL     1     -37.488  39.762 -58.881  1.00  0.00     0.058 A 
HETATM   17  C   UNL     1     -38.410  38.706 -58.751  1.00  0.00     0.031 A 
HETATM   18  C   UNL     1     -38.945  38.077 -59.878  1.00  0.00     0.002 A 
HETATM   19  C   UNL     1     -38.576  38.502 -61.150  1.00  0.00     0.000 A 
HETATM   20  C   UNL     1     -37.680  39.559 -61.292  1.00  0.00     0.002 A 
HETATM   21  C   UNL     1     -37.140  40.190 -60.165  1.00  0.00     0.031 A 
ENDBRANCH  13  16
ENDBRANCH   1   5
BRANCH   2  22
HETATM   22  C   UNL     1     -36.137  40.608 -51.692  1.00  0.00     0.100 A 
HETATM   23  C   UNL     1     -37.577  40.229 -51.573  1.00  0.00     0.261 A 
HETATM   24  O   UNL     1     -38.404  40.525 -52.433  1.00  0.00    -0.267 OA
HETATM   25  N   UNL     1     -37.943  39.543 -50.440  1.00  0.00    -0.322 N 
HETATM   26  C   UNL     1     -37.079  39.189 -49.430  1.00  0.00     0.045 A 
HETATM   27  H   UNL     1     -38.921  39.289 -50.372  1.00  0.00     0.169 HD
HETATM   28  C   UNL     1     -35.778  39.504 -49.544  1.00  0.00     0.031 A 
HETATM   29  C   UNL     1     -35.303  40.225 -50.706  1.00  0.00     0.025 A 
BRANCH  26  30
HETATM   30  C   UNL     1     -37.624  38.517 -48.238  1.00  0.00    -0.009 A 
HETATM   31  C   UNL     1     -36.760  38.038 -47.240  1.00  0.00     0.013 A 
HETATM   32  C   UNL     1     -37.263  37.393 -46.108  1.00  0.00     0.001 A 
HETATM   33  C   UNL     1     -38.637  37.218 -45.960  1.00  0.00     0.000 A 
HETATM   34  C   UNL     1     -39.508  37.690 -46.940  1.00  0.00     0.001 A 
HETATM   35  C   UNL     1     -39.006  38.338 -48.071  1.00  0.00     0.013 A 
ENDBRANCH  26  30
ENDBRANCH   2  22
TORSDOF 4
ENDMDL
MODEL 6
REMARK VINA RESULT:      -8.1      1.226      1.785
REMARK  4 active torsions:
REMARK  status: ('A' for Active; 'I' for Inactive)
REMARK    1  A    between atoms: C_5  and  N_6 
REMARK       I    between atoms: N_6  and  C_7 
REMARK    2  A    between atoms: C_7  and  C_8 
REMARK    3  A    between atoms: C_12  and  C_13 
REMARK    4  A    between atoms: N_24  and  C_25 
ROOT
HETATM    1  N   UNL     1     -42.326  57.751 -55.014  1.00  0.00    -0.348 N 
HETATM    2  C   UNL     1     -42.666  58.885 -55.701  1.00  0.00     0.257 C 
HETATM    3  O   UNL     1     -42.094  59.959 -55.539  1.00  0.00    -0.267 OA
HETATM    4  H   UNL     1     -42.863  56.899 -55.182  1.00  0.00     0.163 HD
ENDROOT
BRANCH   1   5
HETATM    5  C   UNL     1     -41.145  57.665 -54.183  1.00  0.00     0.122 C 
HETATM    6  C   UNL     1     -41.358  58.269 -52.778  1.00  0.00     0.039 C 
HETATM    7  C   UNL     1     -42.030  57.324 -51.730  1.00  0.00    -0.040 C 
HETATM    8  C   UNL     1     -43.512  57.076 -52.073  1.00  0.00     0.015 C 
HETATM    9  C   UNL     1     -41.983  58.023 -50.354  1.00  0.00     0.015 C 
HETATM   10  C   UNL     1     -41.275  55.960 -51.618  1.00  0.00     0.069 C 
HETATM   11  C   UNL     1     -40.835  55.454 -52.951  1.00  0.00     0.047 A 
HETATM   12  C   UNL     1     -40.777  56.227 -54.097  1.00  0.00     0.008 A 
HETATM   13  N   UNL     1     -40.435  54.170 -53.310  1.00  0.00    -0.238 N 
HETATM   14  C   UNL     1     -40.359  55.351 -55.102  1.00  0.00     0.150 A 
HETATM   15  N   UNL     1     -40.183  54.114 -54.652  1.00  0.00    -0.179 NA
BRANCH  13  16
HETATM   16  C   UNL     1     -40.262  52.981 -52.533  1.00  0.00     0.058 A 
HETATM   17  C   UNL     1     -40.597  53.017 -51.166  1.00  0.00     0.031 A 
HETATM   18  C   UNL     1     -40.438  51.889 -50.357  1.00  0.00     0.002 A 
HETATM   19  C   UNL     1     -39.951  50.707 -50.904  1.00  0.00     0.000 A 
HETATM   20  C   UNL     1     -39.633  50.652 -52.259  1.00  0.00     0.002 A 
HETATM   21  C   UNL     1     -39.790  51.781 -53.073  1.00  0.00     0.031 A 
ENDBRANCH  13  16
ENDBRANCH   1   5
BRANCH   2  22
HETATM   22  C   UNL     1     -43.739  58.713 -56.726  1.00  0.00     0.100 A 
HETATM   23  C   UNL     1     -45.062  58.077 -56.452  1.00  0.00     0.261 A 
HETATM   24  O   UNL     1     -45.391  57.709 -55.326  1.00  0.00    -0.267 OA
HETATM   25  N   UNL     1     -45.898  57.903 -57.530  1.00  0.00    -0.322 N 
HETATM   26  C   UNL     1     -45.595  58.275 -58.819  1.00  0.00     0.045 A 
HETATM   27  H   UNL     1     -46.794  57.474 -57.331  1.00  0.00     0.169 HD
HETATM   28  C   UNL     1     -44.417  58.872 -59.066  1.00  0.00     0.031 A 
HETATM   29  C   UNL     1     -43.476  59.097 -57.990  1.00  0.00     0.025 A 
BRANCH  26  30
HETATM   30  C   UNL     1     -46.559  57.962 -59.888  1.00  0.00    -0.009 A 
HETATM   31  C   UNL     1     -47.333  58.982 -60.462  1.00  0.00     0.013 A 
HETATM   32  C   UNL     1     -48.255  58.698 -61.472  1.00  0.00     0.001 A 
HETATM   33  C   UNL     1     -48.414  57.389 -61.921  1.00  0.00     0.000 A 
HETATM   34  C   UNL     1     -47.651  56.366 -61.363  1.00  0.00     0.001 A 
HETATM   35  C   UNL     1     -46.726  56.650 -60.355  1.00  0.00     0.013 A 
ENDBRANCH  26  30
ENDBRANCH   2  22
TORSDOF 4
ENDMDL
MODEL 7
REMARK VINA RESULT:      -7.8     16.109     20.368
REMARK  4 active torsions:
REMARK  status: ('A' for Active; 'I' for Inactive)
REMARK    1  A    between atoms: C_5  and  N_6 
REMARK       I    between atoms: N_6  and  C_7 
REMARK    2  A    between atoms: C_7  and  C_8 
REMARK    3  A    between atoms: C_12  and  C_13 
REMARK    4  A    between atoms: N_24  and  C_25 
ROOT
HETATM    1  N   UNL     1     -33.152  39.714 -53.077  1.00  0.00    -0.348 N 
HETATM    2  C   UNL     1     -32.740  39.988 -51.800  1.00  0.00     0.257 C 
HETATM    3  O   UNL     1     -31.782  40.713 -51.551  1.00  0.00    -0.267 OA
HETATM    4  H   UNL     1     -33.942  39.082 -53.209  1.00  0.00     0.163 HD
ENDROOT
BRANCH   1   5
HETATM    5  C   UNL     1     -32.621  40.401 -54.235  1.00  0.00     0.122 C 
HETATM    6  C   UNL     1     -31.613  39.542 -55.028  1.00  0.00     0.039 C 
HETATM    7  C   UNL     1     -32.238  38.537 -56.049  1.00  0.00    -0.040 C 
HETATM    8  C   UNL     1     -32.961  37.385 -55.324  1.00  0.00     0.015 C 
HETATM    9  C   UNL     1     -31.090  37.917 -56.875  1.00  0.00     0.015 C 
HETATM   10  C   UNL     1     -33.223  39.250 -57.030  1.00  0.00     0.069 C 
HETATM   11  C   UNL     1     -34.060  40.272 -56.335  1.00  0.00     0.047 A 
HETATM   12  C   UNL     1     -33.781  40.786 -55.082  1.00  0.00     0.008 A 
HETATM   13  N   UNL     1     -35.239  40.875 -56.765  1.00  0.00    -0.238 N 
HETATM   14  C   UNL     1     -34.831  41.666 -54.810  1.00  0.00     0.150 A 
HETATM   15  N   UNL     1     -35.725  41.704 -55.792  1.00  0.00    -0.179 NA
BRANCH  13  16
HETATM   16  C   UNL     1     -35.969  40.761 -57.990  1.00  0.00     0.058 A 
HETATM   17  C   UNL     1     -36.624  41.902 -58.490  1.00  0.00     0.031 A 
HETATM   18  C   UNL     1     -37.360  41.847 -59.676  1.00  0.00     0.002 A 
HETATM   19  C   UNL     1     -37.443  40.653 -60.385  1.00  0.00     0.000 A 
HETATM   20  C   UNL     1     -36.784  39.521 -59.912  1.00  0.00     0.002 A 
HETATM   21  C   UNL     1     -36.046  39.573 -58.723  1.00  0.00     0.031 A 
ENDBRANCH  13  16
ENDBRANCH   1   5
BRANCH   2  22
HETATM   22  C   UNL     1     -33.587  39.404 -50.717  1.00  0.00     0.100 A 
HETATM   23  C   UNL     1     -35.080  39.429 -50.718  1.00  0.00     0.261 A 
HETATM   24  O   UNL     1     -35.726  39.876 -51.663  1.00  0.00    -0.267 OA
HETATM   25  N   UNL     1     -35.706  38.939 -49.597  1.00  0.00    -0.322 N 
HETATM   26  C   UNL     1     -35.053  38.436 -48.497  1.00  0.00     0.045 A 
HETATM   27  H   UNL     1     -36.719  38.958 -49.611  1.00  0.00     0.169 HD
HETATM   28  C   UNL     1     -33.710  38.388 -48.501  1.00  0.00     0.031 A 
HETATM   29  C   UNL     1     -32.968  38.879 -49.642  1.00  0.00     0.025 A 
BRANCH  26  30
HETATM   30  C   UNL     1     -35.852  38.012 -47.334  1.00  0.00    -0.009 A 
HETATM   31  C   UNL     1     -37.224  37.750 -47.477  1.00  0.00     0.013 A 
HETATM   32  C   UNL     1     -37.994  37.353 -46.382  1.00  0.00     0.001 A 
HETATM   33  C   UNL     1     -37.402  37.214 -45.129  1.00  0.00     0.000 A 
HETATM   34  C   UNL     1     -36.041  37.467 -44.971  1.00  0.00     0.001 A 
HETATM   35  C   UNL     1     -35.269  37.861 -46.067  1.00  0.00     0.013 A 
ENDBRANCH  26  30
ENDBRANCH   2  22
TORSDOF 4
ENDMDL
MODEL 8
REMARK VINA RESULT:      -7.7     15.711     18.359
REMARK  4 active torsions:
REMARK  status: ('A' for Active; 'I' for Inactive)
REMARK    1  A    between atoms: C_5  and  N_6 
REMARK       I    between atoms: N_6  and  C_7 
REMARK    2  A    between atoms: C_7  and  C_8 
REMARK    3  A    between atoms: C_12  and  C_13 
REMARK    4  A    between atoms: N_24  and  C_25 
ROOT
HETATM    1  N   UNL     1     -37.118  40.863 -54.526  1.00  0.00    -0.348 N 
HETATM    2  C   UNL     1     -37.351  41.398 -53.287  1.00  0.00     0.257 C 
HETATM    3  O   UNL     1     -36.759  42.388 -52.867  1.00  0.00    -0.267 OA
HETATM    4  H   UNL     1     -37.630  40.023 -54.798  1.00  0.00     0.163 HD
ENDROOT
BRANCH   1   5
HETATM    5  C   UNL     1     -36.302  41.523 -55.522  1.00  0.00     0.122 C 
HETATM    6  C   UNL     1     -34.794  41.249 -55.336  1.00  0.00     0.039 C 
HETATM    7  C   UNL     1     -34.270  39.912 -55.952  1.00  0.00    -0.040 C 
HETATM    8  C   UNL     1     -34.797  38.693 -55.170  1.00  0.00     0.015 C 
HETATM    9  C   UNL     1     -32.730  39.904 -55.840  1.00  0.00     0.015 C 
HETATM   10  C   UNL     1     -34.656  39.782 -57.460  1.00  0.00     0.069 C 
HETATM   11  C   UNL     1     -36.042  40.268 -57.726  1.00  0.00     0.047 A 
HETATM   12  C   UNL     1     -36.772  41.052 -56.852  1.00  0.00     0.008 A 
HETATM   13  N   UNL     1     -36.853  40.034 -58.832  1.00  0.00    -0.238 N 
HETATM   14  C   UNL     1     -38.009  41.234 -57.476  1.00  0.00     0.150 A 
HETATM   15  N   UNL     1     -38.081  40.605 -58.644  1.00  0.00    -0.179 NA
BRANCH  13  16
HETATM   16  C   UNL     1     -36.608  39.331 -60.054  1.00  0.00     0.058 A 
HETATM   17  C   UNL     1     -37.463  39.567 -61.147  1.00  0.00     0.031 A 
HETATM   18  C   UNL     1     -37.278  38.901 -62.361  1.00  0.00     0.002 A 
HETATM   19  C   UNL     1     -36.230  37.998 -62.504  1.00  0.00     0.000 A 
HETATM   20  C   UNL     1     -35.365  37.770 -61.436  1.00  0.00     0.002 A 
HETATM   21  C   UNL     1     -35.548  38.434 -60.217  1.00  0.00     0.031 A 
ENDBRANCH  13  16
ENDBRANCH   1   5
BRANCH   2  22
HETATM   22  C   UNL     1     -38.435  40.738 -52.500  1.00  0.00     0.100 A 
HETATM   23  C   UNL     1     -38.209  39.608 -51.550  1.00  0.00     0.261 A 
HETATM   24  O   UNL     1     -37.084  39.184 -51.293  1.00  0.00    -0.267 OA
HETATM   25  N   UNL     1     -39.327  39.045 -50.982  1.00  0.00    -0.322 N 
HETATM   26  C   UNL     1     -40.616  39.455 -51.231  1.00  0.00     0.045 A 
HETATM   27  H   UNL     1     -39.161  38.282 -50.337  1.00  0.00     0.169 HD
HETATM   28  C   UNL     1     -40.824  40.488 -52.064  1.00  0.00     0.031 A 
HETATM   29  C   UNL     1     -39.704  41.142 -52.704  1.00  0.00     0.025 A 
BRANCH  26  30
HETATM   30  C   UNL     1     -41.726  38.712 -50.606  1.00  0.00    -0.009 A 
HETATM   31  C   UNL     1     -41.747  38.511 -49.217  1.00  0.00     0.013 A 
HETATM   32  C   UNL     1     -42.789  37.803 -48.614  1.00  0.00     0.001 A 
HETATM   33  C   UNL     1     -43.822  37.287 -49.392  1.00  0.00     0.000 A 
HETATM   34  C   UNL     1     -43.817  37.481 -50.772  1.00  0.00     0.001 A 
HETATM   35  C   UNL     1     -42.776  38.191 -51.376  1.00  0.00     0.013 A 
ENDBRANCH  26  30
ENDBRANCH   2  22
TORSDOF 4
ENDMDL
MODEL 9
REMARK VINA RESULT:      -7.7      2.562      9.591
REMARK  4 active torsions:
REMARK  status: ('A' for Active; 'I' for Inactive)
REMARK    1  A    between atoms: C_5  and  N_6 
REMARK       I    between atoms: N_6  and  C_7 
REMARK    2  A    between atoms: C_7  and  C_8 
REMARK    3  A    between atoms: C_12  and  C_13 
REMARK    4  A    between atoms: N_24  and  C_25 
ROOT
HETATM    1  N   UNL     1     -43.850  57.894 -53.511  1.00  0.00    -0.348 N 
HETATM    2  C   UNL     1     -43.654  57.209 -52.341  1.00  0.00     0.257 C 
HETATM    3  O   UNL     1     -44.199  57.522 -51.287  1.00  0.00    -0.267 OA
HETATM    4  H   UNL     1     -43.343  57.592 -54.344  1.00  0.00     0.163 HD
ENDROOT
BRANCH   1   5
HETATM    5  C   UNL     1     -44.858  58.922 -53.656  1.00  0.00     0.122 C 
HETATM    6  C   UNL     1     -44.404  60.286 -53.094  1.00  0.00     0.039 C 
HETATM    7  C   UNL     1     -43.535  61.158 -54.055  1.00  0.00    -0.040 C 
HETATM    8  C   UNL     1     -42.135  60.543 -54.253  1.00  0.00     0.015 C 
HETATM    9  C   UNL     1     -43.344  62.546 -53.405  1.00  0.00     0.015 C 
HETATM   10  C   UNL     1     -44.229  61.354 -55.441  1.00  0.00     0.069 C 
HETATM   11  C   UNL     1     -44.894  60.104 -55.914  1.00  0.00     0.047 A 
HETATM   12  C   UNL     1     -45.175  59.018 -55.105  1.00  0.00     0.008 A 
HETATM   13  N   UNL     1     -45.327  59.776 -57.196  1.00  0.00    -0.238 N 
HETATM   14  C   UNL     1     -45.752  58.073 -55.957  1.00  0.00     0.150 A 
HETATM   15  N   UNL     1     -45.819  58.500 -57.213  1.00  0.00    -0.179 NA
BRANCH  13  16
HETATM   16  C   UNL     1     -45.333  60.526 -58.414  1.00  0.00     0.058 A 
HETATM   17  C   UNL     1     -46.571  60.932 -58.947  1.00  0.00     0.031 A 
HETATM   18  C   UNL     1     -46.638  61.656 -60.139  1.00  0.00     0.002 A 
HETATM   19  C   UNL     1     -45.469  61.994 -60.811  1.00  0.00     0.000 A 
HETATM   20  C   UNL     1     -44.236  61.616 -60.286  1.00  0.00     0.002 A 
HETATM   21  C   UNL     1     -44.165  60.888 -59.091  1.00  0.00     0.031 A 
ENDBRANCH  13  16
ENDBRANCH   1   5
BRANCH   2  22
HETATM   22  C   UNL     1     -42.785  55.999 -52.448  1.00  0.00     0.100 A 
HETATM   23  C   UNL     1     -41.564  55.920 -53.304  1.00  0.00     0.261 A 
HETATM   24  O   UNL     1     -41.143  56.887 -53.935  1.00  0.00    -0.267 OA
HETATM   25  N   UNL     1     -40.933  54.700 -53.369  1.00  0.00    -0.322 N 
HETATM   26  C   UNL     1     -41.351  53.571 -52.704  1.00  0.00     0.045 A 
HETATM   27  H   UNL     1     -40.104  54.660 -53.950  1.00  0.00     0.169 HD
HETATM   28  C   UNL     1     -42.433  53.644 -51.912  1.00  0.00     0.031 A 
HETATM   29  C   UNL     1     -43.158  54.889 -51.782  1.00  0.00     0.025 A 
BRANCH  26  30
HETATM   30  C   UNL     1     -40.618  52.311 -52.923  1.00  0.00    -0.009 A 
HETATM   31  C   UNL     1     -40.626  51.702 -54.188  1.00  0.00     0.013 A 
HETATM   32  C   UNL     1     -39.942  50.503 -54.407  1.00  0.00     0.001 A 
HETATM   33  C   UNL     1     -39.242  49.900 -53.365  1.00  0.00     0.000 A 
HETATM   34  C   UNL     1     -39.223  50.495 -52.105  1.00  0.00     0.001 A 
HETATM   35  C   UNL     1     -39.905  51.695 -51.885  1.00  0.00     0.013 A 
ENDBRANCH  26  30
ENDBRANCH   2  22
TORSDOF 4
ENDMDL
MODEL 10
REMARK VINA RESULT:      -7.6      5.402      9.732
REMARK  4 active torsions:
REMARK  status: ('A' for Active; 'I' for Inactive)
REMARK    1  A    between atoms: C_5  and  N_6 
REMARK       I    between atoms: N_6  and  C_7 
REMARK    2  A    between atoms: C_7  and  C_8 
REMARK    3  A    between atoms: C_12  and  C_13 
REMARK    4  A    between atoms: N_24  and  C_25 
ROOT
HETATM    1  N   UNL     1     -43.956  60.850 -53.311  1.00  0.00    -0.348 N 
HETATM    2  C   UNL     1     -43.178  60.515 -54.386  1.00  0.00     0.257 C 
HETATM    3  O   UNL     1     -42.923  61.301 -55.294  1.00  0.00    -0.267 OA
HETATM    4  H   UNL     1     -44.147  60.137 -52.606  1.00  0.00     0.163 HD
ENDROOT
BRANCH   1   5
HETATM    5  C   UNL     1     -44.386  62.207 -53.049  1.00  0.00     0.122 C 
HETATM    6  C   UNL     1     -45.892  62.418 -53.314  1.00  0.00     0.039 C 
HETATM    7  C   UNL     1     -46.848  62.008 -52.148  1.00  0.00    -0.040 C 
HETATM    8  C   UNL     1     -46.884  60.477 -51.970  1.00  0.00     0.015 C 
HETATM    9  C   UNL     1     -48.276  62.466 -52.514  1.00  0.00     0.015 C 
HETATM   10  C   UNL     1     -46.440  62.689 -50.802  1.00  0.00     0.069 C 
HETATM   11  C   UNL     1     -44.960  62.720 -50.618  1.00  0.00     0.047 A 
HETATM   12  C   UNL     1     -44.044  62.506 -51.633  1.00  0.00     0.008 A 
HETATM   13  N   UNL     1     -44.228  62.937 -49.454  1.00  0.00    -0.238 N 
HETATM   14  C   UNL     1     -42.794  62.585 -51.014  1.00  0.00     0.150 A 
HETATM   15  N   UNL     1     -42.891  62.811 -49.708  1.00  0.00    -0.179 NA
BRANCH  13  16
HETATM   16  C   UNL     1     -44.642  63.252 -48.121  1.00  0.00     0.058 A 
HETATM   17  C   UNL     1     -45.156  62.217 -47.316  1.00  0.00     0.031 A 
HETATM   18  C   UNL     1     -45.586  62.468 -46.011  1.00  0.00     0.002 A 
HETATM   19  C   UNL     1     -45.497  63.753 -45.487  1.00  0.00     0.000 A 
HETATM   20  C   UNL     1     -44.973  64.782 -46.266  1.00  0.00     0.002 A 
HETATM   21  C   UNL     1     -44.543  64.535 -47.575  1.00  0.00     0.031 A 
ENDBRANCH  13  16
ENDBRANCH   1   5
BRANCH   2  22
HETATM   22  C   UNL     1     -42.592  59.142 -54.347  1.00  0.00     0.100 A 
HETATM   23  C   UNL     1     -43.116  57.987 -55.135  1.00  0.00     0.261 A 
HETATM   24  O   UNL     1     -44.038  58.107 -55.938  1.00  0.00    -0.267 OA
HETATM   25  N   UNL     1     -42.526  56.766 -54.907  1.00  0.00    -0.322 N 
HETATM   26  C   UNL     1     -41.501  56.550 -54.016  1.00  0.00     0.045 A 
HETATM   27  H   UNL     1     -42.888  55.990 -55.449  1.00  0.00     0.169 HD
HETATM   28  C   UNL     1     -41.008  57.591 -53.324  1.00  0.00     0.031 A 
HETATM   29  C   UNL     1     -41.567  58.914 -53.503  1.00  0.00     0.025 A 
BRANCH  26  30
HETATM   30  C   UNL     1     -41.013  55.174 -53.821  1.00  0.00    -0.009 A 
HETATM   31  C   UNL     1     -40.575  54.418 -54.919  1.00  0.00     0.013 A 
HETATM   32  C   UNL     1     -40.117  53.109 -54.749  1.00  0.00     0.001 A 
HETATM   33  C   UNL     1     -40.091  52.540 -53.478  1.00  0.00     0.000 A 
HETATM   34  C   UNL     1     -40.520  53.279 -52.377  1.00  0.00     0.001 A 
HETATM   35  C   UNL     1     -40.976  54.589 -52.546  1.00  0.00     0.013 A 
ENDBRANCH  26  30
ENDBRANCH   2  22
TORSDOF 4
ENDMDL
