MODEL 1
REMARK VINA RESULT:      -8.0      0.000      0.000
REMARK  4 active torsions:
REMARK  status: ('A' for Active; 'I' for Inactive)
REMARK    1  A    between atoms: C_4  and  C_5 
REMARK       I    between atoms: C_5  and  N_6 
REMARK    2  A    between atoms: N_6  and  C_7 
REMARK    3  A    between atoms: C_7  and  N_8 
REMARK    4  A    between atoms: N_8  and  C_9 
ROOT
HETATM    1  C   UNL     1     -42.139  54.253 -55.068  1.00  0.00     0.257 C 
HETATM    2  N   UNL     1     -41.516  55.382 -55.588  1.00  0.00    -0.299 N 
HETATM    3  O   UNL     1     -43.294  53.898 -55.254  1.00  0.00    -0.267 OA
HETATM    4  H   UNL     1     -40.708  55.674 -55.052  1.00  0.00     0.171 HD
ENDROOT
BRANCH   2   5
HETATM    5  C   UNL     1     -42.152  56.444 -56.146  1.00  0.00     0.179 C 
HETATM    6  S   UNL     1     -42.982  57.484 -55.131  1.00  0.00    -0.040 SA
BRANCH   5   7
HETATM    7  N   UNL     1     -42.159  56.689 -57.474  1.00  0.00    -0.332 N 
HETATM    8  H   UNL     1     -41.290  57.091 -57.808  1.00  0.00     0.168 HD
BRANCH   7   9
HETATM    9  C   UNL     1     -43.024  56.229 -58.492  1.00  0.00     0.051 A 
HETATM   10  C   UNL     1     -43.188  57.024 -59.628  1.00  0.00     0.145 A 
HETATM   11  N   UNL     1     -43.910  56.677 -60.722  1.00  0.00    -0.271 NA
HETATM   12  C   UNL     1     -44.512  55.472 -60.681  1.00  0.00     0.116 A 
HETATM   13  C   UNL     1     -44.415  54.604 -59.606  1.00  0.00     0.021 A 
HETATM   14  C   UNL     1     -43.652  54.987 -58.501  1.00  0.00     0.032 A 
ENDBRANCH   7   9
ENDBRANCH   5   7
ENDBRANCH   2   5
BRANCH   1  15
HETATM   15  C   UNL     1     -41.271  53.465 -54.153  1.00  0.00     0.033 A 
HETATM   16  C   UNL     1     -40.772  52.237 -54.597  1.00  0.00     0.023 A 
HETATM   17  C   UNL     1     -40.026  51.431 -53.730  1.00  0.00    -0.061 A 
HETATM   18  C   UNL     1     -39.513  50.091 -54.170  1.00  0.00     0.048 C 
HETATM   19  C   UNL     1     -39.753  51.891 -52.432  1.00  0.00     0.013 A 
HETATM   20  C   UNL     1     -40.218  53.139 -51.993  1.00  0.00    -0.061 A 
HETATM   21  C   UNL     1     -40.994  53.920 -52.858  1.00  0.00     0.023 A 
HETATM   22  C   UNL     1     -39.921  53.600 -50.597  1.00  0.00     0.048 C 
ENDBRANCH   1  15
TORSDOF 4
ENDMDL
MODEL 2
REMARK VINA RESULT:      -7.9      0.744      2.068
REMARK  4 active torsions:
REMARK  status: ('A' for Active; 'I' for Inactive)
REMARK    1  A    between atoms: C_4  and  C_5 
REMARK       I    between atoms: C_5  and  N_6 
REMARK    2  A    between atoms: N_6  and  C_7 
REMARK    3  A    between atoms: C_7  and  N_8 
REMARK    4  A    between atoms: N_8  and  C_9 
ROOT
HETATM    1  C   UNL     1     -42.124  54.260 -55.099  1.00  0.00     0.257 C 
HETATM    2  N   UNL     1     -41.476  55.445 -55.429  1.00  0.00    -0.299 N 
HETATM    3  O   UNL     1     -43.246  53.916 -55.438  1.00  0.00    -0.267 OA
HETATM    4  H   UNL     1     -40.733  55.686 -54.786  1.00  0.00     0.171 HD
ENDROOT
BRANCH   2   5
HETATM    5  C   UNL     1     -42.076  56.555 -55.932  1.00  0.00     0.179 C 
HETATM    6  S   UNL     1     -42.652  57.695 -54.852  1.00  0.00    -0.040 SA
BRANCH   5   7
HETATM    7  N   UNL     1     -42.243  56.771 -57.255  1.00  0.00    -0.332 N 
HETATM    8  H   UNL     1     -41.383  57.034 -57.726  1.00  0.00     0.168 HD
BRANCH   7   9
HETATM    9  C   UNL     1     -43.304  56.423 -58.120  1.00  0.00     0.051 A 
HETATM   10  C   UNL     1     -44.350  57.334 -58.283  1.00  0.00     0.145 A 
HETATM   11  N   UNL     1     -45.387  57.181 -59.142  1.00  0.00    -0.271 NA
HETATM   12  C   UNL     1     -45.391  56.052 -59.877  1.00  0.00     0.116 A 
HETATM   13  C   UNL     1     -44.404  55.083 -59.796  1.00  0.00     0.021 A 
HETATM   14  C   UNL     1     -43.343  55.278 -58.910  1.00  0.00     0.032 A 
ENDBRANCH   7   9
ENDBRANCH   5   7
ENDBRANCH   2   5
BRANCH   1  15
HETATM   15  C   UNL     1     -41.335  53.388 -54.189  1.00  0.00     0.033 A 
HETATM   16  C   UNL     1     -41.056  53.846 -52.898  1.00  0.00     0.023 A 
HETATM   17  C   UNL     1     -40.243  53.089 -52.048  1.00  0.00    -0.061 A 
HETATM   18  C   UNL     1     -39.897  53.578 -50.672  1.00  0.00     0.048 C 
HETATM   19  C   UNL     1     -39.750  51.852 -52.494  1.00  0.00     0.013 A 
HETATM   20  C   UNL     1     -40.057  51.369 -53.774  1.00  0.00    -0.061 A 
HETATM   21  C   UNL     1     -40.842  52.153 -54.628  1.00  0.00     0.023 A 
HETATM   22  C   UNL     1     -39.507  50.049 -54.228  1.00  0.00     0.048 C 
ENDBRANCH   1  15
TORSDOF 4
ENDMDL
MODEL 3
REMARK VINA RESULT:      -7.6      2.783      5.120
REMARK  4 active torsions:
REMARK  status: ('A' for Active; 'I' for Inactive)
REMARK    1  A    between atoms: C_4  and  C_5 
REMARK       I    between atoms: C_5  and  N_6 
REMARK    2  A    between atoms: N_6  and  C_7 
REMARK    3  A    between atoms: C_7  and  N_8 
REMARK    4  A    between atoms: N_8  and  C_9 
ROOT
HETATM    1  C   UNL     1     -42.318  54.440 -54.499  1.00  0.00     0.257 C 
HETATM    2  N   UNL     1     -41.601  55.462 -55.111  1.00  0.00    -0.299 N 
HETATM    3  O   UNL     1     -43.533  54.313 -54.463  1.00  0.00    -0.267 OA
HETATM    4  H   UNL     1     -40.667  55.573 -54.738  1.00  0.00     0.171 HD
ENDROOT
BRANCH   2   5
HETATM    5  C   UNL     1     -42.117  56.651 -55.516  1.00  0.00     0.179 C 
HETATM    6  S   UNL     1     -42.780  56.738 -57.051  1.00  0.00    -0.040 SA
BRANCH   5   7
HETATM    7  N   UNL     1     -42.107  57.762 -54.750  1.00  0.00    -0.332 N 
HETATM    8  H   UNL     1     -42.750  58.476 -55.076  1.00  0.00     0.168 HD
BRANCH   7   9
HETATM    9  C   UNL     1     -41.593  57.983 -53.453  1.00  0.00     0.051 A 
HETATM   10  C   UNL     1     -40.541  58.890 -53.304  1.00  0.00     0.145 A 
HETATM   11  N   UNL     1     -40.006  59.271 -52.118  1.00  0.00    -0.271 NA
HETATM   12  C   UNL     1     -40.541  58.712 -51.015  1.00  0.00     0.116 A 
HETATM   13  C   UNL     1     -41.586  57.803 -51.047  1.00  0.00     0.021 A 
HETATM   14  C   UNL     1     -42.123  57.442 -52.284  1.00  0.00     0.032 A 
ENDBRANCH   7   9
ENDBRANCH   5   7
ENDBRANCH   2   5
BRANCH   1  15
HETATM   15  C   UNL     1     -41.459  53.460 -53.784  1.00  0.00     0.033 A 
HETATM   16  C   UNL     1     -41.058  53.751 -52.476  1.00  0.00     0.023 A 
HETATM   17  C   UNL     1     -40.179  52.893 -51.807  1.00  0.00    -0.061 A 
HETATM   18  C   UNL     1     -39.704  53.204 -50.418  1.00  0.00     0.048 C 
HETATM   19  C   UNL     1     -39.743  51.723 -52.449  1.00  0.00     0.013 A 
HETATM   20  C   UNL     1     -40.171  51.406 -53.746  1.00  0.00    -0.061 A 
HETATM   21  C   UNL     1     -41.022  52.291 -54.419  1.00  0.00     0.023 A 
HETATM   22  C   UNL     1     -39.679  50.155 -54.412  1.00  0.00     0.048 C 
ENDBRANCH   1  15
TORSDOF 4
ENDMDL
MODEL 4
REMARK VINA RESULT:      -7.4      2.470      4.283
REMARK  4 active torsions:
REMARK  status: ('A' for Active; 'I' for Inactive)
REMARK    1  A    between atoms: C_4  and  C_5 
REMARK       I    between atoms: C_5  and  N_6 
REMARK    2  A    between atoms: N_6  and  C_7 
REMARK    3  A    between atoms: C_7  and  N_8 
REMARK    4  A    between atoms: N_8  and  C_9 
ROOT
HETATM    1  C   UNL     1     -42.676  54.502 -54.518  1.00  0.00     0.257 C 
HETATM    2  N   UNL     1     -42.143  55.311 -55.515  1.00  0.00    -0.299 N 
HETATM    3  O   UNL     1     -43.842  54.449 -54.157  1.00  0.00    -0.267 OA
HETATM    4  H   UNL     1     -41.147  55.459 -55.419  1.00  0.00     0.171 HD
ENDROOT
BRANCH   2   5
HETATM    5  C   UNL     1     -42.756  56.394 -56.058  1.00  0.00     0.179 C 
HETATM    6  S   UNL     1     -42.988  56.417 -57.715  1.00  0.00    -0.040 SA
BRANCH   5   7
HETATM    7  N   UNL     1     -43.169  57.453 -55.330  1.00  0.00    -0.332 N 
HETATM    8  H   UNL     1     -44.121  57.735 -55.543  1.00  0.00     0.168 HD
BRANCH   7   9
HETATM    9  C   UNL     1     -42.633  58.033 -54.159  1.00  0.00     0.051 A 
HETATM   10  C   UNL     1     -41.577  58.938 -54.292  1.00  0.00     0.145 A 
HETATM   11  N   UNL     1     -41.021  59.639 -53.274  1.00  0.00    -0.271 NA
HETATM   12  C   UNL     1     -41.538  59.422 -52.049  1.00  0.00     0.116 A 
HETATM   13  C   UNL     1     -42.585  58.549 -51.803  1.00  0.00     0.021 A 
HETATM   14  C   UNL     1     -43.143  57.853 -52.876  1.00  0.00     0.032 A 
ENDBRANCH   7   9
ENDBRANCH   5   7
ENDBRANCH   2   5
BRANCH   1  15
HETATM   15  C   UNL     1     -41.656  53.677 -53.817  1.00  0.00     0.033 A 
HETATM   16  C   UNL     1     -41.197  52.511 -54.439  1.00  0.00     0.023 A 
HETATM   17  C   UNL     1     -40.305  51.667 -53.769  1.00  0.00    -0.061 A 
HETATM   18  C   UNL     1     -39.828  50.391 -54.399  1.00  0.00     0.048 C 
HETATM   19  C   UNL     1     -39.850  52.027 -52.491  1.00  0.00     0.013 A 
HETATM   20  C   UNL     1     -40.278  53.213 -51.878  1.00  0.00    -0.061 A 
HETATM   21  C   UNL     1     -41.198  54.032 -52.543  1.00  0.00     0.023 A 
HETATM   22  C   UNL     1     -39.784  53.566 -50.505  1.00  0.00     0.048 C 
ENDBRANCH   1  15
TORSDOF 4
ENDMDL
MODEL 5
REMARK VINA RESULT:      -7.0      1.766      2.730
REMARK  4 active torsions:
REMARK  status: ('A' for Active; 'I' for Inactive)
REMARK    1  A    between atoms: C_4  and  C_5 
REMARK       I    between atoms: C_5  and  N_6 
REMARK    2  A    between atoms: N_6  and  C_7 
REMARK    3  A    between atoms: C_7  and  N_8 
REMARK    4  A    between atoms: N_8  and  C_9 
ROOT
HETATM    1  C   UNL     1     -41.586  56.179 -53.617  1.00  0.00     0.257 C 
HETATM    2  N   UNL     1     -42.836  56.141 -54.225  1.00  0.00    -0.299 N 
HETATM    3  O   UNL     1     -40.838  57.142 -53.532  1.00  0.00    -0.267 OA
HETATM    4  H   UNL     1     -43.121  55.207 -54.491  1.00  0.00     0.171 HD
ENDROOT
BRANCH   2   5
HETATM    5  C   UNL     1     -43.319  57.072 -55.086  1.00  0.00     0.179 C 
HETATM    6  S   UNL     1     -44.901  57.581 -54.888  1.00  0.00    -0.040 SA
BRANCH   5   7
HETATM    7  N   UNL     1     -42.593  57.592 -56.099  1.00  0.00    -0.332 N 
HETATM    8  H   UNL     1     -41.780  58.110 -55.780  1.00  0.00     0.168 HD
BRANCH   7   9
HETATM    9  C   UNL     1     -42.600  57.304 -57.482  1.00  0.00     0.051 A 
HETATM   10  C   UNL     1     -42.080  58.259 -58.359  1.00  0.00     0.145 A 
HETATM   11  N   UNL     1     -41.938  58.091 -59.696  1.00  0.00    -0.271 NA
HETATM   12  C   UNL     1     -42.346  56.907 -60.194  1.00  0.00     0.116 A 
HETATM   13  C   UNL     1     -42.875  55.891 -59.417  1.00  0.00     0.021 A 
HETATM   14  C   UNL     1     -42.996  56.092 -58.040  1.00  0.00     0.032 A 
ENDBRANCH   7   9
ENDBRANCH   5   7
ENDBRANCH   2   5
BRANCH   1  15
HETATM   15  C   UNL     1     -41.146  54.863 -53.083  1.00  0.00     0.033 A 
HETATM   16  C   UNL     1     -40.959  54.730 -51.703  1.00  0.00     0.023 A 
HETATM   17  C   UNL     1     -40.462  53.533 -51.177  1.00  0.00    -0.061 A 
HETATM   18  C   UNL     1     -40.215  53.380 -49.705  1.00  0.00     0.048 C 
HETATM   19  C   UNL     1     -40.196  52.462 -52.045  1.00  0.00     0.013 A 
HETATM   20  C   UNL     1     -40.417  52.576 -53.425  1.00  0.00    -0.061 A 
HETATM   21  C   UNL     1     -40.881  53.791 -53.943  1.00  0.00     0.023 A 
HETATM   22  C   UNL     1     -40.113  51.418 -54.330  1.00  0.00     0.048 C 
ENDBRANCH   1  15
TORSDOF 4
ENDMDL
MODEL 6
REMARK VINA RESULT:      -7.0      3.778      5.366
REMARK  4 active torsions:
REMARK  status: ('A' for Active; 'I' for Inactive)
REMARK    1  A    between atoms: C_4  and  C_5 
REMARK       I    between atoms: C_5  and  N_6 
REMARK    2  A    between atoms: N_6  and  C_7 
REMARK    3  A    between atoms: C_7  and  N_8 
REMARK    4  A    between atoms: N_8  and  C_9 
ROOT
HETATM    1  C   UNL     1     -42.637  54.596 -54.365  1.00  0.00     0.257 C 
HETATM    2  N   UNL     1     -42.730  55.882 -53.843  1.00  0.00    -0.299 N 
HETATM    3  O   UNL     1     -43.314  54.116 -55.262  1.00  0.00    -0.267 OA
HETATM    4  H   UNL     1     -42.345  55.961 -52.910  1.00  0.00     0.171 HD
ENDROOT
BRANCH   2   5
HETATM    5  C   UNL     1     -43.775  56.729 -54.023  1.00  0.00     0.179 C 
HETATM    6  S   UNL     1     -43.942  57.465 -55.516  1.00  0.00    -0.040 SA
BRANCH   5   7
HETATM    7  N   UNL     1     -44.671  57.016 -53.054  1.00  0.00    -0.332 N 
HETATM    8  H   UNL     1     -45.217  56.210 -52.766  1.00  0.00     0.168 HD
BRANCH   7   9
HETATM    9  C   UNL     1     -44.776  58.133 -52.196  1.00  0.00     0.051 A 
HETATM   10  C   UNL     1     -45.668  58.062 -51.123  1.00  0.00     0.145 A 
HETATM   11  N   UNL     1     -45.812  59.013 -50.168  1.00  0.00    -0.271 NA
HETATM   12  C   UNL     1     -45.031  60.104 -50.291  1.00  0.00     0.116 A 
HETATM   13  C   UNL     1     -44.113  60.278 -51.313  1.00  0.00     0.021 A 
HETATM   14  C   UNL     1     -43.980  59.273 -52.273  1.00  0.00     0.032 A 
ENDBRANCH   7   9
ENDBRANCH   5   7
ENDBRANCH   2   5
BRANCH   1  15
HETATM   15  C   UNL     1     -41.625  53.750 -53.679  1.00  0.00     0.033 A 
HETATM   16  C   UNL     1     -41.176  52.592 -54.322  1.00  0.00     0.023 A 
HETATM   17  C   UNL     1     -40.292  51.728 -53.668  1.00  0.00    -0.061 A 
HETATM   18  C   UNL     1     -39.826  50.459 -54.321  1.00  0.00     0.048 C 
HETATM   19  C   UNL     1     -39.834  52.060 -52.383  1.00  0.00     0.013 A 
HETATM   20  C   UNL     1     -40.251  53.239 -51.749  1.00  0.00    -0.061 A 
HETATM   21  C   UNL     1     -41.164  54.078 -52.399  1.00  0.00     0.023 A 
HETATM   22  C   UNL     1     -39.754  53.563 -50.370  1.00  0.00     0.048 C 
ENDBRANCH   1  15
TORSDOF 4
ENDMDL
MODEL 7
REMARK VINA RESULT:      -7.0      3.667      5.304
REMARK  4 active torsions:
REMARK  status: ('A' for Active; 'I' for Inactive)
REMARK    1  A    between atoms: C_4  and  C_5 
REMARK       I    between atoms: C_5  and  N_6 
REMARK    2  A    between atoms: N_6  and  C_7 
REMARK    3  A    between atoms: C_7  and  N_8 
REMARK    4  A    between atoms: N_8  and  C_9 
ROOT
HETATM    1  C   UNL     1     -41.926  54.997 -53.904  1.00  0.00     0.257 C 
HETATM    2  N   UNL     1     -41.399  56.225 -53.520  1.00  0.00    -0.299 N 
HETATM    3  O   UNL     1     -42.872  54.804 -54.653  1.00  0.00    -0.267 OA
HETATM    4  H   UNL     1     -40.874  56.180 -52.656  1.00  0.00     0.171 HD
ENDROOT
BRANCH   2   5
HETATM    5  C   UNL     1     -42.018  57.425 -53.664  1.00  0.00     0.179 C 
HETATM    6  S   UNL     1     -41.069  58.803 -53.666  1.00  0.00    -0.040 SA
BRANCH   5   7
HETATM    7  N   UNL     1     -43.356  57.557 -53.788  1.00  0.00    -0.332 N 
HETATM    8  H   UNL     1     -43.752  56.941 -54.490  1.00  0.00     0.168 HD
BRANCH   7   9
HETATM    9  C   UNL     1     -44.305  58.170 -52.940  1.00  0.00     0.051 A 
HETATM   10  C   UNL     1     -44.592  57.557 -51.718  1.00  0.00     0.145 A 
HETATM   11  N   UNL     1     -45.409  58.068 -50.765  1.00  0.00    -0.271 NA
HETATM   12  C   UNL     1     -45.981  59.255 -51.045  1.00  0.00     0.116 A 
HETATM   13  C   UNL     1     -45.766  59.950 -52.224  1.00  0.00     0.021 A 
HETATM   14  C   UNL     1     -44.909  59.401 -53.179  1.00  0.00     0.032 A 
ENDBRANCH   7   9
ENDBRANCH   5   7
ENDBRANCH   2   5
BRANCH   1  15
HETATM   15  C   UNL     1     -41.257  53.837 -53.258  1.00  0.00     0.033 A 
HETATM   16  C   UNL     1     -41.123  53.832 -51.866  1.00  0.00     0.023 A 
HETATM   17  C   UNL     1     -40.422  52.800 -51.234  1.00  0.00    -0.061 A 
HETATM   18  C   UNL     1     -40.231  52.793 -49.746  1.00  0.00     0.048 C 
HETATM   19  C   UNL     1     -39.896  51.755 -52.010  1.00  0.00     0.013 A 
HETATM   20  C   UNL     1     -40.059  51.734 -53.402  1.00  0.00    -0.061 A 
HETATM   21  C   UNL     1     -40.732  52.792 -54.027  1.00  0.00     0.023 A 
HETATM   22  C   UNL     1     -39.475  50.610 -54.208  1.00  0.00     0.048 C 
ENDBRANCH   1  15
TORSDOF 4
ENDMDL
MODEL 8
REMARK VINA RESULT:      -6.9      2.717      4.290
REMARK  4 active torsions:
REMARK  status: ('A' for Active; 'I' for Inactive)
REMARK    1  A    between atoms: C_4  and  C_5 
REMARK       I    between atoms: C_5  and  N_6 
REMARK    2  A    between atoms: N_6  and  C_7 
REMARK    3  A    between atoms: C_7  and  N_8 
REMARK    4  A    between atoms: N_8  and  C_9 
ROOT
HETATM    1  C   UNL     1     -42.023  56.402 -51.788  1.00  0.00     0.257 C 
HETATM    2  N   UNL     1     -43.381  56.484 -51.500  1.00  0.00    -0.299 N 
HETATM    3  O   UNL     1     -41.366  57.179 -52.465  1.00  0.00    -0.267 OA
HETATM    4  H   UNL     1     -43.787  55.595 -51.237  1.00  0.00     0.171 HD
ENDROOT
BRANCH   2   5
HETATM    5  C   UNL     1     -44.277  57.265 -52.157  1.00  0.00     0.179 C 
HETATM    6  S   UNL     1     -44.910  58.586 -51.347  1.00  0.00    -0.040 SA
BRANCH   5   7
HETATM    7  N   UNL     1     -44.690  57.018 -53.418  1.00  0.00    -0.332 N 
HETATM    8  H   UNL     1     -45.461  57.611 -53.707  1.00  0.00     0.168 HD
BRANCH   7   9
HETATM    9  C   UNL     1     -44.069  56.307 -54.469  1.00  0.00     0.051 A 
HETATM   10  C   UNL     1     -43.573  57.032 -55.555  1.00  0.00     0.145 A 
HETATM   11  N   UNL     1     -42.878  56.503 -56.591  1.00  0.00    -0.271 NA
HETATM   12  C   UNL     1     -42.670  55.172 -56.551  1.00  0.00     0.116 A 
HETATM   13  C   UNL     1     -43.116  54.358 -55.523  1.00  0.00     0.021 A 
HETATM   14  C   UNL     1     -43.818  54.938 -54.465  1.00  0.00     0.032 A 
ENDBRANCH   7   9
ENDBRANCH   5   7
ENDBRANCH   2   5
BRANCH   1  15
HETATM   15  C   UNL     1     -41.371  55.188 -51.229  1.00  0.00     0.033 A 
HETATM   16  C   UNL     1     -41.175  55.111 -49.847  1.00  0.00     0.023 A 
HETATM   17  C   UNL     1     -40.486  54.024 -49.298  1.00  0.00    -0.061 A 
HETATM   18  C   UNL     1     -40.229  53.937 -47.822  1.00  0.00     0.048 C 
HETATM   19  C   UNL     1     -40.036  53.000 -50.146  1.00  0.00     0.013 A 
HETATM   20  C   UNL     1     -40.263  53.052 -51.529  1.00  0.00    -0.061 A 
HETATM   21  C   UNL     1     -40.922  54.163 -52.070  1.00  0.00     0.023 A 
HETATM   22  C   UNL     1     -39.760  51.949 -52.413  1.00  0.00     0.048 C 
ENDBRANCH   1  15
TORSDOF 4
ENDMDL
MODEL 9
REMARK VINA RESULT:      -6.8     13.997     16.433
REMARK  4 active torsions:
REMARK  status: ('A' for Active; 'I' for Inactive)
REMARK    1  A    between atoms: C_4  and  C_5 
REMARK       I    between atoms: C_5  and  N_6 
REMARK    2  A    between atoms: N_6  and  C_7 
REMARK    3  A    between atoms: C_7  and  N_8 
REMARK    4  A    between atoms: N_8  and  C_9 
ROOT
HETATM    1  C   UNL     1     -36.205  41.545 -55.772  1.00  0.00     0.257 C 
HETATM    2  N   UNL     1     -36.818  40.887 -54.713  1.00  0.00    -0.299 N 
HETATM    3  O   UNL     1     -35.283  42.346 -55.707  1.00  0.00    -0.267 OA
HETATM    4  H   UNL     1     -37.750  40.558 -54.934  1.00  0.00     0.171 HD
ENDROOT
BRANCH   2   5
HETATM    5  C   UNL     1     -36.712  41.234 -53.405  1.00  0.00     0.179 C 
HETATM    6  S   UNL     1     -38.055  41.031 -52.426  1.00  0.00    -0.040 SA
BRANCH   5   7
HETATM    7  N   UNL     1     -35.586  41.746 -52.864  1.00  0.00    -0.332 N 
HETATM    8  H   UNL     1     -35.652  42.742 -52.678  1.00  0.00     0.168 HD
BRANCH   7   9
HETATM    9  C   UNL     1     -34.479  41.108 -52.261  1.00  0.00     0.051 A 
HETATM   10  C   UNL     1     -33.579  40.428 -53.084  1.00  0.00     0.145 A 
HETATM   11  N   UNL     1     -32.429  39.846 -52.665  1.00  0.00    -0.271 NA
HETATM   12  C   UNL     1     -32.161  39.937 -51.348  1.00  0.00     0.116 A 
HETATM   13  C   UNL     1     -32.983  40.588 -50.442  1.00  0.00     0.021 A 
HETATM   14  C   UNL     1     -34.153  41.188 -50.910  1.00  0.00     0.032 A 
ENDBRANCH   7   9
ENDBRANCH   5   7
ENDBRANCH   2   5
BRANCH   1  15
HETATM   15  C   UNL     1     -36.816  41.241 -57.093  1.00  0.00     0.033 A 
HETATM   16  C   UNL     1     -37.347  39.966 -57.306  1.00  0.00     0.023 A 
HETATM   17  C   UNL     1     -37.850  39.619 -58.565  1.00  0.00    -0.061 A 
HETATM   18  C   UNL     1     -38.390  38.244 -58.830  1.00  0.00     0.048 C 
HETATM   19  C   UNL     1     -37.849  40.578 -59.590  1.00  0.00     0.013 A 
HETATM   20  C   UNL     1     -37.351  41.871 -59.373  1.00  0.00    -0.061 A 
HETATM   21  C   UNL     1     -36.819  42.195 -58.119  1.00  0.00     0.023 A 
HETATM   22  C   UNL     1     -37.353  42.872 -60.490  1.00  0.00     0.048 C 
ENDBRANCH   1  15
TORSDOF 4
ENDMDL
MODEL 10
REMARK VINA RESULT:      -6.7      2.858      3.842
REMARK  4 active torsions:
REMARK  status: ('A' for Active; 'I' for Inactive)
REMARK    1  A    between atoms: C_4  and  C_5 
REMARK       I    between atoms: C_5  and  N_6 
REMARK    2  A    between atoms: N_6  and  C_7 
REMARK    3  A    between atoms: C_7  and  N_8 
REMARK    4  A    between atoms: N_8  and  C_9 
ROOT
HETATM    1  C   UNL     1     -42.950  54.889 -53.408  1.00  0.00     0.257 C 
HETATM    2  N   UNL     1     -43.121  56.102 -52.751  1.00  0.00    -0.299 N 
HETATM    3  O   UNL     1     -43.605  54.462 -54.348  1.00  0.00    -0.267 OA
HETATM    4  H   UNL     1     -42.731  56.107 -51.817  1.00  0.00     0.171 HD
ENDROOT
BRANCH   2   5
HETATM    5  C   UNL     1     -44.223  56.891 -52.833  1.00  0.00     0.179 C 
HETATM    6  S   UNL     1     -44.711  57.705 -51.455  1.00  0.00    -0.040 SA
BRANCH   5   7
HETATM    7  N   UNL     1     -44.947  57.037 -53.964  1.00  0.00    -0.332 N 
HETATM    8  H   UNL     1     -45.891  56.676 -53.880  1.00  0.00     0.168 HD
BRANCH   7   9
HETATM    9  C   UNL     1     -44.723  57.838 -55.106  1.00  0.00     0.051 A 
HETATM   10  C   UNL     1     -45.113  59.178 -55.060  1.00  0.00     0.145 A 
HETATM   11  N   UNL     1     -44.884  60.089 -56.038  1.00  0.00    -0.271 NA
HETATM   12  C   UNL     1     -44.237  59.639 -57.131  1.00  0.00     0.116 A 
HETATM   13  C   UNL     1     -43.805  58.332 -57.281  1.00  0.00     0.021 A 
HETATM   14  C   UNL     1     -44.045  57.423 -56.249  1.00  0.00     0.032 A 
ENDBRANCH   7   9
ENDBRANCH   5   7
ENDBRANCH   2   5
BRANCH   1  15
HETATM   15  C   UNL     1     -41.876  54.044 -52.823  1.00  0.00     0.033 A 
HETATM   16  C   UNL     1     -41.440  54.322 -51.524  1.00  0.00     0.023 A 
HETATM   17  C   UNL     1     -40.371  53.603 -50.977  1.00  0.00    -0.061 A 
HETATM   18  C   UNL     1     -39.859  53.909 -49.599  1.00  0.00     0.048 C 
HETATM   19  C   UNL     1     -39.777  52.580 -51.731  1.00  0.00     0.013 A 
HETATM   20  C   UNL     1     -40.234  52.271 -53.020  1.00  0.00    -0.061 A 
HETATM   21  C   UNL     1     -41.280  53.021 -53.570  1.00  0.00     0.023 A 
HETATM   22  C   UNL     1     -39.571  51.179 -53.807  1.00  0.00     0.048 C 
ENDBRANCH   1  15
TORSDOF 4
ENDMDL
