MODEL 1
REMARK VINA RESULT:      -7.6      0.000      0.000
REMARK  5 active torsions:
REMARK  status: ('A' for Active; 'I' for Inactive)
REMARK    1  A    between atoms: C_2  and  C_3 
REMARK       I    between atoms: C_3  and  N_4 
REMARK    2  A    between atoms: N_4  and  C_5 
REMARK    3  A    between atoms: C_7  and  N_8 
REMARK       I    between atoms: N_8  and  C_9 
REMARK       I    between atoms: C_9  and  N_10 
REMARK    4  A    between atoms: N_10  and  C_11 
REMARK    5  A    between atoms: C_11  and  C_12 
ROOT
HETATM    1  N   UNL     1     -43.269  55.309 -50.800  1.00  0.00    -0.306 N 
HETATM    2  C   UNL     1     -43.723  56.536 -51.103  1.00  0.00     0.321 C 
HETATM    3  N   UNL     1     -43.125  57.403 -51.926  1.00  0.00    -0.338 N 
HETATM    4  O   UNL     1     -44.817  56.868 -50.636  1.00  0.00    -0.247 OA
HETATM    5  H   UNL     1     -44.026  54.764 -50.395  1.00  0.00     0.171 HD
HETATM    6  H   UNL     1     -43.690  58.237 -52.014  1.00  0.00     0.164 HD
ENDROOT
BRANCH   1   7
HETATM    7  C   UNL     1     -42.034  54.640 -50.800  1.00  0.00     0.077 C 
HETATM    8  C   UNL     1     -41.621  53.703 -51.746  1.00  0.00     0.062 C 
HETATM    9  C   UNL     1     -40.401  53.026 -51.602  1.00  0.00     0.037 C 
HETATM   10  C   UNL     1     -39.526  53.399 -50.574  1.00  0.00     0.032 C 
HETATM   11  C   UNL     1     -39.881  54.405 -49.679  1.00  0.00     0.047 C 
HETATM   12  C   UNL     1     -41.129  55.004 -49.794  1.00  0.00     0.143 C 
HETATM   13  F   UNL     1     -41.470  55.953 -48.906  1.00  0.00    -0.204 F 
BRANCH   9  14
HETATM   14  N   UNL     1     -40.005  51.934 -52.404  1.00  0.00    -0.327 N 
HETATM   15  C   UNL     1     -39.975  51.875 -53.786  1.00  0.00     0.221 C 
HETATM   16  O   UNL     1     -40.107  52.816 -54.562  1.00  0.00    -0.273 OA
HETATM   17  H   UNL     1     -39.825  51.066 -51.915  1.00  0.00     0.169 HD
BRANCH  15  18
HETATM   18  C   UNL     1     -39.807  50.461 -54.308  1.00  0.00     0.098 C 
HETATM   19  C   UNL     1     -39.589  49.481 -53.166  1.00  0.00     0.014 C 
ENDBRANCH  15  18
ENDBRANCH   9  14
ENDBRANCH   1   7
BRANCH   3  20
HETATM   20  C   UNL     1     -42.126  57.231 -52.957  1.00  0.00     0.167 C 
BRANCH  20  21
HETATM   21  C   UNL     1     -42.780  57.190 -54.299  1.00  0.00     0.009 A 
HETATM   22  C   UNL     1     -42.901  58.257 -55.233  1.00  0.00     0.060 A 
HETATM   23  C   UNL     1     -42.394  59.646 -55.104  1.00  0.00     0.073 C 
HETATM   24  N   UNL     1     -43.592  57.894 -56.320  1.00  0.00    -0.179 NA
HETATM   25  N   UNL     1     -43.923  56.617 -56.087  1.00  0.00    -0.282 N 
HETATM   26  H   UNL     1     -44.472  56.130 -56.787  1.00  0.00     0.189 HD
HETATM   27  C   UNL     1     -43.480  56.145 -54.884  1.00  0.00     0.034 A 
HETATM   28  C   UNL     1     -43.784  54.770 -54.421  1.00  0.00     0.070 C 
ENDBRANCH  20  21
ENDBRANCH   3  20
TORSDOF 5
ENDMDL
MODEL 2
REMARK VINA RESULT:      -7.5      2.341      3.196
REMARK  5 active torsions:
REMARK  status: ('A' for Active; 'I' for Inactive)
REMARK    1  A    between atoms: C_2  and  C_3 
REMARK       I    between atoms: C_3  and  N_4 
REMARK    2  A    between atoms: N_4  and  C_5 
REMARK    3  A    between atoms: C_7  and  N_8 
REMARK       I    between atoms: N_8  and  C_9 
REMARK       I    between atoms: C_9  and  N_10 
REMARK    4  A    between atoms: N_10  and  C_11 
REMARK    5  A    between atoms: C_11  and  C_12 
ROOT
HETATM    1  N   UNL     1     -41.068  57.592 -52.382  1.00  0.00    -0.306 N 
HETATM    2  C   UNL     1     -40.950  58.493 -53.370  1.00  0.00     0.321 C 
HETATM    3  N   UNL     1     -41.661  58.499 -54.503  1.00  0.00    -0.338 N 
HETATM    4  O   UNL     1     -40.170  59.434 -53.193  1.00  0.00    -0.247 OA
HETATM    5  H   UNL     1     -40.635  57.965 -51.539  1.00  0.00     0.171 HD
HETATM    6  H   UNL     1     -41.409  59.303 -55.061  1.00  0.00     0.164 HD
ENDROOT
BRANCH   1   7
HETATM    7  C   UNL     1     -41.523  56.271 -52.242  1.00  0.00     0.077 C 
HETATM    8  C   UNL     1     -40.858  55.133 -52.696  1.00  0.00     0.062 C 
HETATM    9  C   UNL     1     -41.444  53.864 -52.583  1.00  0.00     0.037 C 
HETATM   10  C   UNL     1     -42.648  53.724 -51.880  1.00  0.00     0.032 C 
HETATM   11  C   UNL     1     -43.276  54.840 -51.332  1.00  0.00     0.047 C 
HETATM   12  C   UNL     1     -42.716  56.096 -51.527  1.00  0.00     0.143 C 
HETATM   13  F   UNL     1     -43.347  57.167 -51.018  1.00  0.00    -0.204 F 
BRANCH   9  14
HETATM   14  N   UNL     1     -40.926  52.699 -53.188  1.00  0.00    -0.327 N 
HETATM   15  C   UNL     1     -39.904  51.893 -52.717  1.00  0.00     0.221 C 
HETATM   16  O   UNL     1     -39.391  51.936 -51.604  1.00  0.00    -0.273 OA
HETATM   17  H   UNL     1     -41.269  52.492 -54.118  1.00  0.00     0.169 HD
BRANCH  15  18
HETATM   18  C   UNL     1     -39.397  50.921 -53.766  1.00  0.00     0.098 C 
HETATM   19  C   UNL     1     -40.549  50.180 -54.425  1.00  0.00     0.014 C 
ENDBRANCH  15  18
ENDBRANCH   9  14
ENDBRANCH   1   7
BRANCH   3  20
HETATM   20  C   UNL     1     -42.911  57.870 -54.867  1.00  0.00     0.167 C 
BRANCH  20  21
HETATM   21  C   UNL     1     -42.790  57.238 -56.214  1.00  0.00     0.009 A 
HETATM   22  C   UNL     1     -42.912  55.856 -56.533  1.00  0.00     0.060 A 
HETATM   23  C   UNL     1     -43.203  54.729 -55.613  1.00  0.00     0.073 C 
HETATM   24  N   UNL     1     -42.695  55.622 -57.833  1.00  0.00    -0.179 NA
HETATM   25  N   UNL     1     -42.426  56.830 -58.343  1.00  0.00    -0.282 N 
HETATM   26  H   UNL     1     -42.215  56.894 -59.334  1.00  0.00     0.189 HD
HETATM   27  C   UNL     1     -42.450  57.835 -57.419  1.00  0.00     0.034 A 
HETATM   28  C   UNL     1     -42.133  59.239 -57.777  1.00  0.00     0.070 C 
ENDBRANCH  20  21
ENDBRANCH   3  20
TORSDOF 5
ENDMDL
MODEL 3
REMARK VINA RESULT:      -7.4      1.423      1.849
REMARK  5 active torsions:
REMARK  status: ('A' for Active; 'I' for Inactive)
REMARK    1  A    between atoms: C_2  and  C_3 
REMARK       I    between atoms: C_3  and  N_4 
REMARK    2  A    between atoms: N_4  and  C_5 
REMARK    3  A    between atoms: C_7  and  N_8 
REMARK       I    between atoms: N_8  and  C_9 
REMARK       I    between atoms: C_9  and  N_10 
REMARK    4  A    between atoms: N_10  and  C_11 
REMARK    5  A    between atoms: C_11  and  C_12 
ROOT
HETATM    1  N   UNL     1     -43.246  55.240 -50.866  1.00  0.00    -0.306 N 
HETATM    2  C   UNL     1     -43.677  56.491 -51.094  1.00  0.00     0.321 C 
HETATM    3  N   UNL     1     -43.043  57.407 -51.833  1.00  0.00    -0.338 N 
HETATM    4  O   UNL     1     -44.783  56.803 -50.640  1.00  0.00    -0.247 OA
HETATM    5  H   UNL     1     -44.022  54.678 -50.525  1.00  0.00     0.171 HD
HETATM    6  H   UNL     1     -43.596  58.252 -51.879  1.00  0.00     0.164 HD
ENDROOT
BRANCH   1   7
HETATM    7  C   UNL     1     -42.019  54.557 -50.874  1.00  0.00     0.077 C 
HETATM    8  C   UNL     1     -41.639  53.585 -51.799  1.00  0.00     0.062 C 
HETATM    9  C   UNL     1     -40.424  52.899 -51.664  1.00  0.00     0.037 C 
HETATM   10  C   UNL     1     -39.520  53.294 -50.669  1.00  0.00     0.032 C 
HETATM   11  C   UNL     1     -39.842  54.332 -49.798  1.00  0.00     0.047 C 
HETATM   12  C   UNL     1     -41.086  54.941 -49.902  1.00  0.00     0.143 C 
HETATM   13  F   UNL     1     -41.395  55.921 -49.037  1.00  0.00    -0.204 F 
BRANCH   9  14
HETATM   14  N   UNL     1     -40.060  51.778 -52.440  1.00  0.00    -0.327 N 
HETATM   15  C   UNL     1     -39.721  50.516 -51.984  1.00  0.00     0.221 C 
HETATM   16  O   UNL     1     -39.856  50.090 -50.842  1.00  0.00    -0.273 OA
HETATM   17  H   UNL     1     -39.931  51.946 -53.430  1.00  0.00     0.169 HD
BRANCH  15  18
HETATM   18  C   UNL     1     -39.083  49.657 -53.059  1.00  0.00     0.098 C 
HETATM   19  C   UNL     1     -39.694  49.946 -54.421  1.00  0.00     0.014 C 
ENDBRANCH  15  18
ENDBRANCH   9  14
ENDBRANCH   1   7
BRANCH   3  20
HETATM   20  C   UNL     1     -42.012  57.296 -52.841  1.00  0.00     0.167 C 
BRANCH  20  21
HETATM   21  C   UNL     1     -42.567  56.649 -54.068  1.00  0.00     0.009 A 
HETATM   22  C   UNL     1     -41.921  55.702 -54.910  1.00  0.00     0.060 A 
HETATM   23  C   UNL     1     -40.562  55.123 -54.761  1.00  0.00     0.073 C 
HETATM   24  N   UNL     1     -42.682  55.361 -55.957  1.00  0.00    -0.179 NA
HETATM   25  N   UNL     1     -43.798  56.087 -55.800  1.00  0.00    -0.282 N 
HETATM   26  H   UNL     1     -44.528  55.997 -56.499  1.00  0.00     0.189 HD
HETATM   27  C   UNL     1     -43.780  56.891 -54.696  1.00  0.00     0.034 A 
HETATM   28  C   UNL     1     -44.901  57.805 -54.373  1.00  0.00     0.070 C 
ENDBRANCH  20  21
ENDBRANCH   3  20
TORSDOF 5
ENDMDL
MODEL 4
REMARK VINA RESULT:      -7.4      2.725      6.084
REMARK  5 active torsions:
REMARK  status: ('A' for Active; 'I' for Inactive)
REMARK    1  A    between atoms: C_2  and  C_3 
REMARK       I    between atoms: C_3  and  N_4 
REMARK    2  A    between atoms: N_4  and  C_5 
REMARK    3  A    between atoms: C_7  and  N_8 
REMARK       I    between atoms: N_8  and  C_9 
REMARK       I    between atoms: C_9  and  N_10 
REMARK    4  A    between atoms: N_10  and  C_11 
REMARK    5  A    between atoms: C_11  and  C_12 
ROOT
HETATM    1  N   UNL     1     -43.709  55.513 -52.229  1.00  0.00    -0.306 N 
HETATM    2  C   UNL     1     -43.423  54.510 -51.384  1.00  0.00     0.321 C 
HETATM    3  N   UNL     1     -42.271  53.833 -51.344  1.00  0.00    -0.338 N 
HETATM    4  O   UNL     1     -44.268  54.230 -50.526  1.00  0.00    -0.247 OA
HETATM    5  H   UNL     1     -44.511  56.029 -51.874  1.00  0.00     0.171 HD
HETATM    6  H   UNL     1     -42.297  53.157 -50.593  1.00  0.00     0.164 HD
ENDROOT
BRANCH   1   7
HETATM    7  C   UNL     1     -43.269  55.956 -53.487  1.00  0.00     0.077 C 
HETATM    8  C   UNL     1     -43.642  55.408 -54.714  1.00  0.00     0.062 C 
HETATM    9  C   UNL     1     -43.073  55.870 -55.910  1.00  0.00     0.037 C 
HETATM   10  C   UNL     1     -42.229  56.987 -55.882  1.00  0.00     0.032 C 
HETATM   11  C   UNL     1     -41.925  57.610 -54.673  1.00  0.00     0.047 C 
HETATM   12  C   UNL     1     -42.437  57.083 -53.494  1.00  0.00     0.143 C 
HETATM   13  F   UNL     1     -42.113  57.676 -52.333  1.00  0.00    -0.204 F 
BRANCH   9  14
HETATM   14  N   UNL     1     -43.251  55.243 -57.162  1.00  0.00    -0.327 N 
HETATM   15  C   UNL     1     -43.732  55.816 -58.326  1.00  0.00     0.221 C 
HETATM   16  O   UNL     1     -43.914  57.010 -58.534  1.00  0.00    -0.273 OA
HETATM   17  H   UNL     1     -43.110  54.240 -57.180  1.00  0.00     0.169 HD
BRANCH  15  18
HETATM   18  C   UNL     1     -44.088  54.785 -59.381  1.00  0.00     0.098 C 
HETATM   19  C   UNL     1     -44.714  55.445 -60.599  1.00  0.00     0.014 C 
ENDBRANCH  15  18
ENDBRANCH   9  14
ENDBRANCH   1   7
BRANCH   3  20
HETATM   20  C   UNL     1     -40.950  54.137 -51.847  1.00  0.00     0.167 C 
BRANCH  20  21
HETATM   21  C   UNL     1     -40.410  52.967 -52.602  1.00  0.00     0.009 A 
HETATM   22  C   UNL     1     -39.997  51.713 -52.069  1.00  0.00     0.060 A 
HETATM   23  C   UNL     1     -40.022  51.270 -50.653  1.00  0.00     0.073 C 
HETATM   24  N   UNL     1     -39.514  50.901 -53.017  1.00  0.00    -0.179 NA
HETATM   25  N   UNL     1     -39.603  51.623 -54.142  1.00  0.00    -0.282 N 
HETATM   26  H   UNL     1     -39.275  51.203 -55.006  1.00  0.00     0.189 HD
HETATM   27  C   UNL     1     -40.115  52.874 -53.954  1.00  0.00     0.034 A 
HETATM   28  C   UNL     1     -40.249  53.843 -55.068  1.00  0.00     0.070 C 
ENDBRANCH  20  21
ENDBRANCH   3  20
TORSDOF 5
ENDMDL
MODEL 5
REMARK VINA RESULT:      -7.2      2.667      6.357
REMARK  5 active torsions:
REMARK  status: ('A' for Active; 'I' for Inactive)
REMARK    1  A    between atoms: C_2  and  C_3 
REMARK       I    between atoms: C_3  and  N_4 
REMARK    2  A    between atoms: N_4  and  C_5 
REMARK    3  A    between atoms: C_7  and  N_8 
REMARK       I    between atoms: N_8  and  C_9 
REMARK       I    between atoms: C_9  and  N_10 
REMARK    4  A    between atoms: N_10  and  C_11 
REMARK    5  A    between atoms: C_11  and  C_12 
ROOT
HETATM    1  N   UNL     1     -43.960  56.565 -52.706  1.00  0.00    -0.306 N 
HETATM    2  C   UNL     1     -43.727  56.232 -51.426  1.00  0.00     0.321 C 
HETATM    3  N   UNL     1     -42.617  55.645 -50.966  1.00  0.00    -0.338 N 
HETATM    4  O   UNL     1     -44.580  56.553 -50.591  1.00  0.00    -0.247 OA
HETATM    5  H   UNL     1     -44.726  57.233 -52.742  1.00  0.00     0.171 HD
HETATM    6  H   UNL     1     -42.677  55.538 -49.963  1.00  0.00     0.164 HD
ENDROOT
BRANCH   1   7
HETATM    7  C   UNL     1     -43.505  56.163 -53.972  1.00  0.00     0.077 C 
HETATM    8  C   UNL     1     -42.890  56.989 -54.911  1.00  0.00     0.062 C 
HETATM    9  C   UNL     1     -42.554  56.506 -56.184  1.00  0.00     0.037 C 
HETATM   10  C   UNL     1     -42.712  55.142 -56.465  1.00  0.00     0.032 C 
HETATM   11  C   UNL     1     -43.233  54.282 -55.501  1.00  0.00     0.047 C 
HETATM   12  C   UNL     1     -43.633  54.801 -54.276  1.00  0.00     0.143 C 
HETATM   13  F   UNL     1     -44.161  53.965 -53.367  1.00  0.00    -0.204 F 
BRANCH   9  14
HETATM   14  N   UNL     1     -42.110  57.322 -57.247  1.00  0.00    -0.327 N 
HETATM   15  C   UNL     1     -42.889  58.080 -58.104  1.00  0.00     0.221 C 
HETATM   16  O   UNL     1     -44.084  58.328 -57.982  1.00  0.00    -0.273 OA
HETATM   17  H   UNL     1     -41.125  57.263 -57.471  1.00  0.00     0.169 HD
BRANCH  15  18
HETATM   18  C   UNL     1     -42.117  58.573 -59.313  1.00  0.00     0.098 C 
HETATM   19  C   UNL     1     -41.734  57.417 -60.224  1.00  0.00     0.014 C 
ENDBRANCH  15  18
ENDBRANCH   9  14
ENDBRANCH   1   7
BRANCH   3  20
HETATM   20  C   UNL     1     -41.285  55.525 -51.515  1.00  0.00     0.167 C 
BRANCH  20  21
HETATM   21  C   UNL     1     -40.727  54.174 -51.206  1.00  0.00     0.009 A 
HETATM   22  C   UNL     1     -40.391  53.148 -52.132  1.00  0.00     0.060 A 
HETATM   23  C   UNL     1     -40.497  53.181 -53.612  1.00  0.00     0.073 C 
HETATM   24  N   UNL     1     -39.962  52.039 -51.517  1.00  0.00    -0.179 NA
HETATM   25  N   UNL     1     -40.032  52.341 -50.213  1.00  0.00    -0.282 N 
HETATM   26  H   UNL     1     -39.760  51.629 -49.543  1.00  0.00     0.189 HD
HETATM   27  C   UNL     1     -40.500  53.599 -49.964  1.00  0.00     0.034 A 
HETATM   28  C   UNL     1     -40.694  54.106 -48.585  1.00  0.00     0.070 C 
ENDBRANCH  20  21
ENDBRANCH   3  20
TORSDOF 5
ENDMDL
MODEL 6
REMARK VINA RESULT:      -7.1      2.906      4.887
REMARK  5 active torsions:
REMARK  status: ('A' for Active; 'I' for Inactive)
REMARK    1  A    between atoms: C_2  and  C_3 
REMARK       I    between atoms: C_3  and  N_4 
REMARK    2  A    between atoms: N_4  and  C_5 
REMARK    3  A    between atoms: C_7  and  N_8 
REMARK       I    between atoms: N_8  and  C_9 
REMARK       I    between atoms: C_9  and  N_10 
REMARK    4  A    between atoms: N_10  and  C_11 
REMARK    5  A    between atoms: C_11  and  C_12 
ROOT
HETATM    1  N   UNL     1     -43.722  54.270 -52.070  1.00  0.00    -0.306 N 
HETATM    2  C   UNL     1     -44.047  55.111 -51.075  1.00  0.00     0.321 C 
HETATM    3  N   UNL     1     -44.083  56.444 -51.168  1.00  0.00    -0.338 N 
HETATM    4  O   UNL     1     -44.407  54.612 -50.004  1.00  0.00    -0.247 OA
HETATM    5  H   UNL     1     -44.040  53.334 -51.831  1.00  0.00     0.171 HD
HETATM    6  H   UNL     1     -44.395  56.840 -50.291  1.00  0.00     0.164 HD
ENDROOT
BRANCH   1   7
HETATM    7  C   UNL     1     -42.988  54.326 -53.266  1.00  0.00     0.077 C 
HETATM    8  C   UNL     1     -43.457  54.822 -54.481  1.00  0.00     0.062 C 
HETATM    9  C   UNL     1     -42.670  54.749 -55.640  1.00  0.00     0.037 C 
HETATM   10  C   UNL     1     -41.346  54.300 -55.543  1.00  0.00     0.032 C 
HETATM   11  C   UNL     1     -40.829  53.894 -54.315  1.00  0.00     0.047 C 
HETATM   12  C   UNL     1     -41.654  53.900 -53.198  1.00  0.00     0.143 C 
HETATM   13  F   UNL     1     -41.151  53.478 -52.026  1.00  0.00    -0.204 F 
BRANCH   9  14
HETATM   14  N   UNL     1     -43.142  55.050 -56.935  1.00  0.00    -0.327 N 
HETATM   15  C   UNL     1     -43.055  56.260 -57.600  1.00  0.00     0.221 C 
HETATM   16  O   UNL     1     -42.389  57.234 -57.265  1.00  0.00    -0.273 OA
HETATM   17  H   UNL     1     -43.699  54.331 -57.383  1.00  0.00     0.169 HD
BRANCH  15  18
HETATM   18  C   UNL     1     -43.940  56.316 -58.831  1.00  0.00     0.098 C 
HETATM   19  C   UNL     1     -44.071  54.943 -59.472  1.00  0.00     0.014 C 
ENDBRANCH  15  18
ENDBRANCH   9  14
ENDBRANCH   1   7
BRANCH   3  20
HETATM   20  C   UNL     1     -44.163  57.336 -52.303  1.00  0.00     0.167 C 
BRANCH  20  21
HETATM   21  C   UNL     1     -43.202  58.466 -52.131  1.00  0.00     0.009 A 
HETATM   22  C   UNL     1     -41.873  58.552 -52.632  1.00  0.00     0.060 A 
HETATM   23  C   UNL     1     -41.140  57.556 -53.453  1.00  0.00     0.073 C 
HETATM   24  N   UNL     1     -41.267  59.683 -52.252  1.00  0.00    -0.179 NA
HETATM   25  N   UNL     1     -42.185  60.312 -51.507  1.00  0.00    -0.282 N 
HETATM   26  H   UNL     1     -41.935  61.205 -51.095  1.00  0.00     0.189 HD
HETATM   27  C   UNL     1     -43.358  59.625 -51.383  1.00  0.00     0.034 A 
HETATM   28  C   UNL     1     -44.482  60.132 -50.561  1.00  0.00     0.070 C 
ENDBRANCH  20  21
ENDBRANCH   3  20
TORSDOF 5
ENDMDL
MODEL 7
REMARK VINA RESULT:      -7.0     14.799     16.891
REMARK  5 active torsions:
REMARK  status: ('A' for Active; 'I' for Inactive)
REMARK    1  A    between atoms: C_2  and  C_3 
REMARK       I    between atoms: C_3  and  N_4 
REMARK    2  A    between atoms: N_4  and  C_5 
REMARK    3  A    between atoms: C_7  and  N_8 
REMARK       I    between atoms: N_8  and  C_9 
REMARK       I    between atoms: C_9  and  N_10 
REMARK    4  A    between atoms: N_10  and  C_11 
REMARK    5  A    between atoms: C_11  and  C_12 
ROOT
HETATM    1  N   UNL     1     -37.140  41.866 -54.311  1.00  0.00    -0.306 N 
HETATM    2  C   UNL     1     -37.104  41.098 -53.211  1.00  0.00     0.321 C 
HETATM    3  N   UNL     1     -36.506  39.905 -53.117  1.00  0.00    -0.338 N 
HETATM    4  O   UNL     1     -37.606  41.557 -52.180  1.00  0.00    -0.247 OA
HETATM    5  H   UNL     1     -37.397  42.814 -54.046  1.00  0.00     0.171 HD
HETATM    6  H   UNL     1     -36.590  39.554 -52.173  1.00  0.00     0.164 HD
ENDROOT
BRANCH   1   7
HETATM    7  C   UNL     1     -37.022  41.684 -55.699  1.00  0.00     0.077 C 
HETATM    8  C   UNL     1     -37.979  41.091 -56.521  1.00  0.00     0.062 C 
HETATM    9  C   UNL     1     -37.723  40.877 -57.884  1.00  0.00     0.037 C 
HETATM   10  C   UNL     1     -36.551  41.392 -58.451  1.00  0.00     0.032 C 
HETATM   11  C   UNL     1     -35.629  42.076 -57.662  1.00  0.00     0.047 C 
HETATM   12  C   UNL     1     -35.868  42.204 -56.299  1.00  0.00     0.143 C 
HETATM   13  F   UNL     1     -34.957  42.841 -55.545  1.00  0.00    -0.204 F 
BRANCH   9  14
HETATM   14  N   UNL     1     -38.554  40.115 -58.732  1.00  0.00    -0.327 N 
HETATM   15  C   UNL     1     -38.498  38.750 -58.958  1.00  0.00     0.221 C 
HETATM   16  O   UNL     1     -37.842  37.930 -58.325  1.00  0.00    -0.273 OA
HETATM   17  H   UNL     1     -39.192  40.640 -59.318  1.00  0.00     0.169 HD
BRANCH  15  18
HETATM   18  C   UNL     1     -39.322  38.322 -60.158  1.00  0.00     0.098 C 
HETATM   19  C   UNL     1     -38.542  38.509 -61.450  1.00  0.00     0.014 C 
ENDBRANCH  15  18
ENDBRANCH   9  14
ENDBRANCH   1   7
BRANCH   3  20
HETATM   20  C   UNL     1     -35.487  39.265 -53.919  1.00  0.00     0.167 C 
BRANCH  20  21
HETATM   21  C   UNL     1     -34.159  39.894 -53.650  1.00  0.00     0.009 A 
HETATM   22  C   UNL     1     -33.113  40.132 -54.586  1.00  0.00     0.060 A 
HETATM   23  C   UNL     1     -33.101  39.832 -56.039  1.00  0.00     0.073 C 
HETATM   24  N   UNL     1     -32.033  40.666 -54.003  1.00  0.00    -0.179 NA
HETATM   25  N   UNL     1     -32.371  40.760 -52.710  1.00  0.00    -0.282 N 
HETATM   26  H   UNL     1     -31.685  41.135 -52.063  1.00  0.00     0.189 HD
HETATM   27  C   UNL     1     -33.625  40.296 -52.435  1.00  0.00     0.034 A 
HETATM   28  C   UNL     1     -34.168  40.272 -51.055  1.00  0.00     0.070 C 
ENDBRANCH  20  21
ENDBRANCH   3  20
TORSDOF 5
ENDMDL
MODEL 8
REMARK VINA RESULT:      -7.0      3.033      4.794
REMARK  5 active torsions:
REMARK  status: ('A' for Active; 'I' for Inactive)
REMARK    1  A    between atoms: C_2  and  C_3 
REMARK       I    between atoms: C_3  and  N_4 
REMARK    2  A    between atoms: N_4  and  C_5 
REMARK    3  A    between atoms: C_7  and  N_8 
REMARK       I    between atoms: N_8  and  C_9 
REMARK       I    between atoms: C_9  and  N_10 
REMARK    4  A    between atoms: N_10  and  C_11 
REMARK    5  A    between atoms: C_11  and  C_12 
ROOT
HETATM    1  N   UNL     1     -43.517  54.784 -52.191  1.00  0.00    -0.306 N 
HETATM    2  C   UNL     1     -43.721  55.505 -51.077  1.00  0.00     0.321 C 
HETATM    3  N   UNL     1     -43.667  56.838 -50.995  1.00  0.00    -0.338 N 
HETATM    4  O   UNL     1     -44.053  54.893 -50.056  1.00  0.00    -0.247 OA
HETATM    5  H   UNL     1     -43.887  53.846 -52.052  1.00  0.00     0.171 HD
HETATM    6  H   UNL     1     -43.897  57.133 -50.056  1.00  0.00     0.164 HD
ENDROOT
BRANCH   1   7
HETATM    7  C   UNL     1     -42.853  54.950 -53.417  1.00  0.00     0.077 C 
HETATM    8  C   UNL     1     -43.470  55.129 -54.654  1.00  0.00     0.062 C 
HETATM    9  C   UNL     1     -42.713  55.197 -55.832  1.00  0.00     0.037 C 
HETATM   10  C   UNL     1     -41.315  55.226 -55.750  1.00  0.00     0.032 C 
HETATM   11  C   UNL     1     -40.682  55.149 -54.511  1.00  0.00     0.047 C 
HETATM   12  C   UNL     1     -41.453  55.001 -53.365  1.00  0.00     0.143 C 
HETATM   13  F   UNL     1     -40.829  54.899 -52.180  1.00  0.00    -0.204 F 
BRANCH   9  14
HETATM   14  N   UNL     1     -43.269  55.181 -57.130  1.00  0.00    -0.327 N 
HETATM   15  C   UNL     1     -43.294  56.220 -58.044  1.00  0.00     0.221 C 
HETATM   16  O   UNL     1     -42.678  57.278 -57.968  1.00  0.00    -0.273 OA
HETATM   17  H   UNL     1     -43.799  54.354 -57.376  1.00  0.00     0.169 HD
BRANCH  15  18
HETATM   18  C   UNL     1     -44.242  55.960 -59.199  1.00  0.00     0.098 C 
HETATM   19  C   UNL     1     -44.304  54.476 -59.529  1.00  0.00     0.014 C 
ENDBRANCH  15  18
ENDBRANCH   9  14
ENDBRANCH   1   7
BRANCH   3  20
HETATM   20  C   UNL     1     -43.750  57.876 -51.999  1.00  0.00     0.167 C 
BRANCH  20  21
HETATM   21  C   UNL     1     -42.378  58.326 -52.380  1.00  0.00     0.009 A 
HETATM   22  C   UNL     1     -41.944  58.786 -53.655  1.00  0.00     0.060 A 
HETATM   23  C   UNL     1     -42.749  58.942 -54.892  1.00  0.00     0.073 C 
HETATM   24  N   UNL     1     -40.635  59.063 -53.668  1.00  0.00    -0.179 NA
HETATM   25  N   UNL     1     -40.227  58.776 -52.425  1.00  0.00    -0.282 N 
HETATM   26  H   UNL     1     -39.245  58.902 -52.203  1.00  0.00     0.189 HD
HETATM   27  C   UNL     1     -41.222  58.313 -51.613  1.00  0.00     0.034 A 
HETATM   28  C   UNL     1     -40.964  57.897 -50.214  1.00  0.00     0.070 C 
ENDBRANCH  20  21
ENDBRANCH   3  20
TORSDOF 5
ENDMDL
MODEL 9
REMARK VINA RESULT:      -6.9      2.662      4.537
REMARK  5 active torsions:
REMARK  status: ('A' for Active; 'I' for Inactive)
REMARK    1  A    between atoms: C_2  and  C_3 
REMARK       I    between atoms: C_3  and  N_4 
REMARK    2  A    between atoms: N_4  and  C_5 
REMARK    3  A    between atoms: C_7  and  N_8 
REMARK       I    between atoms: N_8  and  C_9 
REMARK       I    between atoms: C_9  and  N_10 
REMARK    4  A    between atoms: N_10  and  C_11 
REMARK    5  A    between atoms: C_11  and  C_12 
ROOT
HETATM    1  N   UNL     1     -41.477  53.793 -50.432  1.00  0.00    -0.306 N 
HETATM    2  C   UNL     1     -41.213  54.823 -49.612  1.00  0.00     0.321 C 
HETATM    3  N   UNL     1     -40.890  56.061 -50.001  1.00  0.00    -0.338 N 
HETATM    4  O   UNL     1     -41.343  54.632 -48.398  1.00  0.00    -0.247 OA
HETATM    5  H   UNL     1     -41.958  53.066 -49.908  1.00  0.00     0.171 HD
HETATM    6  H   UNL     1     -40.780  56.656 -49.192  1.00  0.00     0.164 HD
ENDROOT
BRANCH   1   7
HETATM    7  C   UNL     1     -41.177  53.426 -51.754  1.00  0.00     0.077 C 
HETATM    8  C   UNL     1     -41.701  54.024 -52.899  1.00  0.00     0.062 C 
HETATM    9  C   UNL     1     -41.403  53.522 -54.174  1.00  0.00     0.037 C 
HETATM   10  C   UNL     1     -40.457  52.497 -54.304  1.00  0.00     0.032 C 
HETATM   11  C   UNL     1     -39.848  51.955 -53.174  1.00  0.00     0.047 C 
HETATM   12  C   UNL     1     -40.220  52.415 -51.917  1.00  0.00     0.143 C 
HETATM   13  F   UNL     1     -39.645  51.864 -50.836  1.00  0.00    -0.204 F 
BRANCH   9  14
HETATM   14  N   UNL     1     -42.042  53.946 -55.358  1.00  0.00    -0.327 N 
HETATM   15  C   UNL     1     -42.095  55.231 -55.869  1.00  0.00     0.221 C 
HETATM   16  O   UNL     1     -41.443  56.197 -55.489  1.00  0.00    -0.273 OA
HETATM   17  H   UNL     1     -42.612  53.253 -55.828  1.00  0.00     0.169 HD
BRANCH  15  18
HETATM   18  C   UNL     1     -43.124  55.379 -56.975  1.00  0.00     0.098 C 
HETATM   19  C   UNL     1     -43.452  56.843 -57.221  1.00  0.00     0.014 C 
ENDBRANCH  15  18
ENDBRANCH   9  14
ENDBRANCH   1   7
BRANCH   3  20
HETATM   20  C   UNL     1     -41.065  56.760 -51.255  1.00  0.00     0.167 C 
BRANCH  20  21
HETATM   21  C   UNL     1     -41.828  58.024 -51.031  1.00  0.00     0.009 A 
HETATM   22  C   UNL     1     -41.307  59.288 -50.637  1.00  0.00     0.060 A 
HETATM   23  C   UNL     1     -39.892  59.652 -50.376  1.00  0.00     0.073 C 
HETATM   24  N   UNL     1     -42.273  60.200 -50.475  1.00  0.00    -0.179 NA
HETATM   25  N   UNL     1     -43.402  59.532 -50.748  1.00  0.00    -0.282 N 
HETATM   26  H   UNL     1     -44.282  60.032 -50.677  1.00  0.00     0.189 HD
HETATM   27  C   UNL     1     -43.201  58.220 -51.070  1.00  0.00     0.034 A 
HETATM   28  C   UNL     1     -44.328  57.302 -51.360  1.00  0.00     0.070 C 
ENDBRANCH  20  21
ENDBRANCH   3  20
TORSDOF 5
ENDMDL
MODEL 10
REMARK VINA RESULT:      -6.9      3.090      4.417
REMARK  5 active torsions:
REMARK  status: ('A' for Active; 'I' for Inactive)
REMARK    1  A    between atoms: C_2  and  C_3 
REMARK       I    between atoms: C_3  and  N_4 
REMARK    2  A    between atoms: N_4  and  C_5 
REMARK    3  A    between atoms: C_7  and  N_8 
REMARK       I    between atoms: N_8  and  C_9 
REMARK       I    between atoms: C_9  and  N_10 
REMARK    4  A    between atoms: N_10  and  C_11 
REMARK    5  A    between atoms: C_11  and  C_12 
ROOT
HETATM    1  N   UNL     1     -44.289  55.831 -54.482  1.00  0.00    -0.306 N 
HETATM    2  C   UNL     1     -44.467  57.023 -55.073  1.00  0.00     0.321 C 
HETATM    3  N   UNL     1     -43.577  57.640 -55.857  1.00  0.00    -0.338 N 
HETATM    4  O   UNL     1     -45.568  57.566 -54.938  1.00  0.00    -0.247 OA
HETATM    5  H   UNL     1     -45.193  55.467 -54.187  1.00  0.00     0.171 HD
HETATM    6  H   UNL     1     -43.970  58.504 -56.207  1.00  0.00     0.164 HD
ENDROOT
BRANCH   1   7
HETATM    7  C   UNL     1     -43.206  55.032 -54.083  1.00  0.00     0.077 C 
HETATM    8  C   UNL     1     -42.548  55.112 -52.856  1.00  0.00     0.062 C 
HETATM    9  C   UNL     1     -41.418  54.324 -52.593  1.00  0.00     0.037 C 
HETATM   10  C   UNL     1     -41.031  53.347 -53.519  1.00  0.00     0.032 C 
HETATM   11  C   UNL     1     -41.739  53.185 -54.708  1.00  0.00     0.047 C 
HETATM   12  C   UNL     1     -42.806  54.032 -54.981  1.00  0.00     0.143 C 
HETATM   13  F   UNL     1     -43.462  53.884 -56.144  1.00  0.00    -0.204 F 
BRANCH   9  14
HETATM   14  N   UNL     1     -40.589  54.486 -51.462  1.00  0.00    -0.327 N 
HETATM   15  C   UNL     1     -40.295  53.540 -50.496  1.00  0.00     0.221 C 
HETATM   16  O   UNL     1     -40.545  52.341 -50.545  1.00  0.00    -0.273 OA
HETATM   17  H   UNL     1     -40.262  55.427 -51.283  1.00  0.00     0.169 HD
BRANCH  15  18
HETATM   18  C   UNL     1     -39.639  54.143 -49.268  1.00  0.00     0.098 C 
HETATM   19  C   UNL     1     -40.633  54.264 -48.123  1.00  0.00     0.014 C 
ENDBRANCH  15  18
ENDBRANCH   9  14
ENDBRANCH   1   7
BRANCH   3  20
HETATM   20  C   UNL     1     -42.422  57.158 -56.581  1.00  0.00     0.167 C 
BRANCH  20  21
HETATM   21  C   UNL     1     -42.539  57.519 -58.026  1.00  0.00     0.009 A 
HETATM   22  C   UNL     1     -42.195  58.757 -58.636  1.00  0.00     0.060 A 
HETATM   23  C   UNL     1     -41.626  59.967 -57.991  1.00  0.00     0.073 C 
HETATM   24  N   UNL     1     -42.473  58.765 -59.945  1.00  0.00    -0.179 NA
HETATM   25  N   UNL     1     -43.000  57.555 -60.174  1.00  0.00    -0.282 N 
HETATM   26  H   UNL     1     -43.302  57.336 -61.118  1.00  0.00     0.189 HD
HETATM   27  C   UNL     1     -43.082  56.770 -59.060  1.00  0.00     0.034 A 
HETATM   28  C   UNL     1     -43.678  55.413 -59.097  1.00  0.00     0.070 C 
ENDBRANCH  20  21
ENDBRANCH   3  20
TORSDOF 5
ENDMDL
