MODEL 1
REMARK VINA RESULT:      -8.0      0.000      0.000
REMARK  8 active torsions:
REMARK  status: ('A' for Active; 'I' for Inactive)
REMARK    1  A    between atoms: O_2  and  C_3 
REMARK    2  A    between atoms: C_5  and  O_6 
REMARK    3  A    between atoms: C_8  and  C_9 
REMARK    4  A    between atoms: N_10  and  C_12 
REMARK    5  A    between atoms: C_12  and  C_13 
REMARK       I    between atoms: C_13  and  N_14 
REMARK    6  A    between atoms: N_14  and  C_15 
REMARK    7  A    between atoms: C_16  and  C_17 
REMARK    8  A    between atoms: C_17  and  C_18 
ROOT
HETATM    1  C   UNL     1     -42.634  55.935 -54.868  1.00  0.00     0.338 C 
ENDROOT
BRANCH   1   2
HETATM    2  N   UNL     1     -42.446  56.921 -56.020  1.00  0.00    -0.054 N 
HETATM    3  C   UNL     1     -43.143  58.284 -55.982  1.00  0.00     0.224 C 
HETATM    4  C   UNL     1     -44.223  58.132 -57.054  1.00  0.00     0.040 C 
HETATM    5  C   UNL     1     -43.485  57.383 -58.146  1.00  0.00     0.030 C 
HETATM    6  C   UNL     1     -42.720  56.313 -57.390  1.00  0.00     0.236 C 
HETATM    7  H   UNL     1     -41.448  57.164 -55.974  1.00  0.00     0.281 HD
BRANCH   3   8
HETATM    8  C   UNL     1     -43.517  58.846 -54.631  1.00  0.00     0.006 A 
HETATM    9  C   UNL     1     -42.510  59.290 -53.743  1.00  0.00     0.079 A 
HETATM   10  C   UNL     1     -42.847  59.784 -52.475  1.00  0.00     0.074 A 
HETATM   11  C   UNL     1     -44.184  59.882 -52.092  1.00  0.00     0.070 A 
HETATM   12  C   UNL     1     -45.182  59.522 -52.994  1.00  0.00     0.037 A 
HETATM   13  C   UNL     1     -44.857  59.008 -54.250  1.00  0.00     0.015 A 
BRANCH   9  14
HETATM   14  O   UNL     1     -41.221  59.158 -54.206  1.00  0.00    -0.355 OA
HETATM   15  C   UNL     1     -40.220  58.787 -53.255  1.00  0.00     0.210 C 
ENDBRANCH   9  14
BRANCH  11  16
HETATM   16  O   UNL     1     -44.645  60.320 -50.884  1.00  0.00    -0.356 OA
HETATM   17  C   UNL     1     -45.658  59.545 -50.250  1.00  0.00     0.210 C 
ENDBRANCH  11  16
ENDBRANCH   3   8
ENDBRANCH   1   2
BRANCH   1  18
HETATM   18  C   UNL     1     -41.421  55.100 -54.447  1.00  0.00     0.248 C 
HETATM   19  N   UNL     1     -41.745  53.885 -53.887  1.00  0.00    -0.325 N 
HETATM   20  H   UNL     1     -42.715  53.787 -53.612  1.00  0.00     0.169 HD
HETATM   21  O   UNL     1     -40.307  55.578 -54.618  1.00  0.00    -0.271 OA
BRANCH  19  22
HETATM   22  C   UNL     1     -40.942  52.795 -53.458  1.00  0.00     0.041 A 
HETATM   23  C   UNL     1     -40.275  52.599 -52.232  1.00  0.00    -0.027 A 
HETATM   24  C   UNL     1     -39.510  51.412 -52.067  1.00  0.00     0.010 A 
HETATM   25  C   UNL     1     -39.389  50.453 -53.069  1.00  0.00     0.001 A 
HETATM   26  C   UNL     1     -40.036  50.649 -54.271  1.00  0.00     0.002 A 
HETATM   27  C   UNL     1     -40.799  51.801 -54.458  1.00  0.00     0.030 A 
BRANCH  23  28
HETATM   28  C   UNL     1     -40.249  53.526 -51.032  1.00  0.00     0.079 C 
BRANCH  28  29
HETATM   29  C   UNL     1     -41.434  54.456 -50.855  1.00  0.00    -0.054 A 
HETATM   30  C   UNL     1     -41.238  55.841 -50.993  1.00  0.00     0.007 A 
HETATM   31  C   UNL     1     -42.315  56.727 -50.957  1.00  0.00     0.001 A 
HETATM   32  C   UNL     1     -43.608  56.240 -50.796  1.00  0.00     0.000 A 
HETATM   33  C   UNL     1     -43.823  54.869 -50.667  1.00  0.00     0.001 A 
HETATM   34  C   UNL     1     -42.744  53.982 -50.701  1.00  0.00     0.007 A 
ENDBRANCH  28  29
ENDBRANCH  23  28
ENDBRANCH  19  22
ENDBRANCH   1  18
TORSDOF 8
ENDMDL
MODEL 2
REMARK VINA RESULT:      -7.9      2.305      4.560
REMARK  8 active torsions:
REMARK  status: ('A' for Active; 'I' for Inactive)
REMARK    1  A    between atoms: O_2  and  C_3 
REMARK    2  A    between atoms: C_5  and  O_6 
REMARK    3  A    between atoms: C_8  and  C_9 
REMARK    4  A    between atoms: N_10  and  C_12 
REMARK    5  A    between atoms: C_12  and  C_13 
REMARK       I    between atoms: C_13  and  N_14 
REMARK    6  A    between atoms: N_14  and  C_15 
REMARK    7  A    between atoms: C_16  and  C_17 
REMARK    8  A    between atoms: C_17  and  C_18 
ROOT
HETATM    1  C   UNL     1     -41.732  55.404 -56.135  1.00  0.00     0.338 C 
ENDROOT
BRANCH   1   2
HETATM    2  N   UNL     1     -43.223  55.619 -55.879  1.00  0.00    -0.054 N 
HETATM    3  C   UNL     1     -43.945  56.809 -56.517  1.00  0.00     0.224 C 
HETATM    4  C   UNL     1     -44.199  57.724 -55.318  1.00  0.00     0.040 C 
HETATM    5  C   UNL     1     -44.597  56.733 -54.241  1.00  0.00     0.030 C 
HETATM    6  C   UNL     1     -43.591  55.609 -54.400  1.00  0.00     0.236 C 
HETATM    7  H   UNL     1     -43.668  54.806 -56.322  1.00  0.00     0.281 HD
BRANCH   3   8
HETATM    8  C   UNL     1     -43.360  57.393 -57.781  1.00  0.00     0.006 A 
HETATM    9  C   UNL     1     -43.298  56.615 -58.960  1.00  0.00     0.079 A 
HETATM   10  C   UNL     1     -42.728  57.139 -60.128  1.00  0.00     0.074 A 
HETATM   11  C   UNL     1     -42.252  58.450 -60.151  1.00  0.00     0.070 A 
HETATM   12  C   UNL     1     -42.384  59.245 -59.016  1.00  0.00     0.037 A 
HETATM   13  C   UNL     1     -42.930  58.726 -57.841  1.00  0.00     0.015 A 
BRANCH   9  14
HETATM   14  O   UNL     1     -43.793  55.337 -58.846  1.00  0.00    -0.355 OA
HETATM   15  C   UNL     1     -44.570  54.837 -59.936  1.00  0.00     0.210 C 
ENDBRANCH   9  14
BRANCH  11  16
HETATM   16  O   UNL     1     -41.655  59.072 -61.210  1.00  0.00    -0.356 OA
HETATM   17  C   UNL     1     -41.762  60.489 -61.282  1.00  0.00     0.210 C 
ENDBRANCH  11  16
ENDBRANCH   3   8
ENDBRANCH   1   2
BRANCH   1  18
HETATM   18  C   UNL     1     -40.905  54.774 -55.011  1.00  0.00     0.248 C 
HETATM   19  N   UNL     1     -41.242  53.469 -54.731  1.00  0.00    -0.325 N 
HETATM   20  H   UNL     1     -42.125  53.163 -55.125  1.00  0.00     0.169 HD
HETATM   21  O   UNL     1     -40.058  55.467 -54.463  1.00  0.00    -0.271 OA
BRANCH  19  22
HETATM   22  C   UNL     1     -40.675  52.511 -53.850  1.00  0.00     0.041 A 
HETATM   23  C   UNL     1     -40.191  52.676 -52.536  1.00  0.00    -0.027 A 
HETATM   24  C   UNL     1     -39.645  51.542 -51.876  1.00  0.00     0.010 A 
HETATM   25  C   UNL     1     -39.564  50.289 -52.479  1.00  0.00     0.001 A 
HETATM   26  C   UNL     1     -40.033  50.131 -53.767  1.00  0.00     0.002 A 
HETATM   27  C   UNL     1     -40.579  51.225 -54.436  1.00  0.00     0.030 A 
BRANCH  23  28
HETATM   28  C   UNL     1     -40.155  53.950 -51.714  1.00  0.00     0.079 C 
BRANCH  28  29
HETATM   29  C   UNL     1     -41.489  54.532 -51.288  1.00  0.00    -0.054 A 
HETATM   30  C   UNL     1     -41.617  55.927 -51.173  1.00  0.00     0.007 A 
HETATM   31  C   UNL     1     -42.852  56.516 -50.900  1.00  0.00     0.001 A 
HETATM   32  C   UNL     1     -43.983  55.719 -50.752  1.00  0.00     0.000 A 
HETATM   33  C   UNL     1     -43.877  54.335 -50.873  1.00  0.00     0.001 A 
HETATM   34  C   UNL     1     -42.639  53.744 -51.144  1.00  0.00     0.007 A 
ENDBRANCH  28  29
ENDBRANCH  23  28
ENDBRANCH  19  22
ENDBRANCH   1  18
TORSDOF 8
ENDMDL
MODEL 3
REMARK VINA RESULT:      -7.8      2.126      4.622
REMARK  8 active torsions:
REMARK  status: ('A' for Active; 'I' for Inactive)
REMARK    1  A    between atoms: O_2  and  C_3 
REMARK    2  A    between atoms: C_5  and  O_6 
REMARK    3  A    between atoms: C_8  and  C_9 
REMARK    4  A    between atoms: N_10  and  C_12 
REMARK    5  A    between atoms: C_12  and  C_13 
REMARK       I    between atoms: C_13  and  N_14 
REMARK    6  A    between atoms: N_14  and  C_15 
REMARK    7  A    between atoms: C_16  and  C_17 
REMARK    8  A    between atoms: C_17  and  C_18 
ROOT
HETATM    1  C   UNL     1     -41.553  56.129 -55.457  1.00  0.00     0.338 C 
ENDROOT
BRANCH   1   2
HETATM    2  N   UNL     1     -42.342  57.358 -55.011  1.00  0.00    -0.054 N 
HETATM    3  C   UNL     1     -42.980  58.279 -56.055  1.00  0.00     0.224 C 
HETATM    4  C   UNL     1     -42.103  59.529 -55.973  1.00  0.00     0.040 C 
HETATM    5  C   UNL     1     -41.881  59.664 -54.480  1.00  0.00     0.030 C 
HETATM    6  C   UNL     1     -41.580  58.245 -54.034  1.00  0.00     0.236 C 
HETATM    7  H   UNL     1     -43.152  56.964 -54.516  1.00  0.00     0.281 HD
BRANCH   3   8
HETATM    8  C   UNL     1     -43.304  57.691 -57.408  1.00  0.00     0.006 A 
HETATM    9  C   UNL     1     -44.650  57.530 -57.809  1.00  0.00     0.079 A 
HETATM   10  C   UNL     1     -44.959  56.956 -59.050  1.00  0.00     0.074 A 
HETATM   11  C   UNL     1     -43.940  56.574 -59.921  1.00  0.00     0.070 A 
HETATM   12  C   UNL     1     -42.614  56.805 -59.564  1.00  0.00     0.037 A 
HETATM   13  C   UNL     1     -42.294  57.355 -58.322  1.00  0.00     0.015 A 
BRANCH   9  14
HETATM   14  O   UNL     1     -45.589  57.936 -56.888  1.00  0.00    -0.355 OA
HETATM   15  C   UNL     1     -46.885  58.279 -57.383  1.00  0.00     0.210 C 
ENDBRANCH   9  14
BRANCH  11  16
HETATM   16  O   UNL     1     -44.102  55.985 -61.141  1.00  0.00    -0.356 OA
HETATM   17  C   UNL     1     -45.048  54.925 -61.237  1.00  0.00     0.210 C 
ENDBRANCH  11  16
ENDBRANCH   3   8
ENDBRANCH   1   2
BRANCH   1  18
HETATM   18  C   UNL     1     -41.744  54.836 -54.657  1.00  0.00     0.248 C 
HETATM   19  N   UNL     1     -40.578  54.141 -54.431  1.00  0.00    -0.325 N 
HETATM   20  H   UNL     1     -39.791  54.430 -55.000  1.00  0.00     0.169 HD
HETATM   21  O   UNL     1     -42.880  54.534 -54.319  1.00  0.00    -0.271 OA
BRANCH  19  22
HETATM   22  C   UNL     1     -40.304  52.972 -53.672  1.00  0.00     0.041 A 
HETATM   23  C   UNL     1     -40.148  52.823 -52.278  1.00  0.00    -0.027 A 
HETATM   24  C   UNL     1     -39.851  51.528 -51.772  1.00  0.00     0.010 A 
HETATM   25  C   UNL     1     -39.700  50.417 -52.597  1.00  0.00     0.001 A 
HETATM   26  C   UNL     1     -39.846  50.566 -53.961  1.00  0.00     0.002 A 
HETATM   27  C   UNL     1     -40.144  51.823 -54.484  1.00  0.00     0.030 A 
BRANCH  23  28
HETATM   28  C   UNL     1     -40.239  53.900 -51.215  1.00  0.00     0.079 C 
BRANCH  28  29
HETATM   29  C   UNL     1     -41.542  54.671 -51.125  1.00  0.00    -0.054 A 
HETATM   30  C   UNL     1     -42.733  53.967 -50.879  1.00  0.00     0.007 A 
HETATM   31  C   UNL     1     -43.937  54.641 -50.670  1.00  0.00     0.001 A 
HETATM   32  C   UNL     1     -43.966  56.032 -50.691  1.00  0.00     0.000 A 
HETATM   33  C   UNL     1     -42.792  56.747 -50.924  1.00  0.00     0.001 A 
HETATM   34  C   UNL     1     -41.587  56.072 -51.134  1.00  0.00     0.007 A 
ENDBRANCH  28  29
ENDBRANCH  23  28
ENDBRANCH  19  22
ENDBRANCH   1  18
TORSDOF 8
ENDMDL
MODEL 4
REMARK VINA RESULT:      -7.8      1.577      3.687
REMARK  8 active torsions:
REMARK  status: ('A' for Active; 'I' for Inactive)
REMARK    1  A    between atoms: O_2  and  C_3 
REMARK    2  A    between atoms: C_5  and  O_6 
REMARK    3  A    between atoms: C_8  and  C_9 
REMARK    4  A    between atoms: N_10  and  C_12 
REMARK    5  A    between atoms: C_12  and  C_13 
REMARK       I    between atoms: C_13  and  N_14 
REMARK    6  A    between atoms: N_14  and  C_15 
REMARK    7  A    between atoms: C_16  and  C_17 
REMARK    8  A    between atoms: C_17  and  C_18 
ROOT
HETATM    1  C   UNL     1     -43.619  57.028 -55.302  1.00  0.00     0.338 C 
ENDROOT
BRANCH   1   2
HETATM    2  N   UNL     1     -42.474  57.622 -56.120  1.00  0.00    -0.054 N 
HETATM    3  C   UNL     1     -42.169  59.120 -56.035  1.00  0.00     0.224 C 
HETATM    4  C   UNL     1     -42.638  59.631 -57.398  1.00  0.00     0.040 C 
HETATM    5  C   UNL     1     -42.161  58.535 -58.330  1.00  0.00     0.030 C 
HETATM    6  C   UNL     1     -42.533  57.258 -57.598  1.00  0.00     0.236 C 
HETATM    7  H   UNL     1     -41.634  57.186 -55.720  1.00  0.00     0.281 HD
BRANCH   3   8
HETATM    8  C   UNL     1     -42.592  59.855 -54.785  1.00  0.00     0.006 A 
HETATM    9  C   UNL     1     -41.810  59.766 -53.611  1.00  0.00     0.079 A 
HETATM   10  C   UNL     1     -42.213  60.420 -52.437  1.00  0.00     0.074 A 
HETATM   11  C   UNL     1     -43.368  61.199 -52.429  1.00  0.00     0.070 A 
HETATM   12  C   UNL     1     -44.097  61.355 -53.605  1.00  0.00     0.037 A 
HETATM   13  C   UNL     1     -43.718  60.691 -54.772  1.00  0.00     0.015 A 
BRANCH   9  14
HETATM   14  O   UNL     1     -40.687  58.978 -53.712  1.00  0.00    -0.355 OA
HETATM   15  C   UNL     1     -39.805  58.950 -52.587  1.00  0.00     0.210 C 
ENDBRANCH   9  14
BRANCH  11  16
HETATM   16  O   UNL     1     -43.883  61.865 -51.354  1.00  0.00    -0.356 OA
HETATM   17  C   UNL     1     -43.536  61.386 -50.059  1.00  0.00     0.210 C 
ENDBRANCH  11  16
ENDBRANCH   3   8
ENDBRANCH   1   2
BRANCH   1  18
HETATM   18  C   UNL     1     -43.267  55.954 -54.269  1.00  0.00     0.248 C 
HETATM   19  N   UNL     1     -42.221  56.293 -53.442  1.00  0.00    -0.325 N 
HETATM   20  H   UNL     1     -41.671  57.085 -53.753  1.00  0.00     0.169 HD
HETATM   21  O   UNL     1     -43.911  54.913 -54.281  1.00  0.00    -0.271 OA
BRANCH  19  22
HETATM   22  C   UNL     1     -41.651  55.640 -52.316  1.00  0.00     0.041 A 
HETATM   23  C   UNL     1     -40.819  54.503 -52.265  1.00  0.00    -0.027 A 
HETATM   24  C   UNL     1     -40.402  54.036 -50.988  1.00  0.00     0.010 A 
HETATM   25  C   UNL     1     -40.791  54.650 -49.801  1.00  0.00     0.001 A 
HETATM   26  C   UNL     1     -41.611  55.758 -49.853  1.00  0.00     0.002 A 
HETATM   27  C   UNL     1     -42.030  56.242 -51.092  1.00  0.00     0.030 A 
BRANCH  23  28
HETATM   28  C   UNL     1     -40.309  53.673 -53.427  1.00  0.00     0.079 C 
BRANCH  28  29
HETATM   29  C   UNL     1     -40.146  52.184 -53.190  1.00  0.00    -0.054 A 
HETATM   30  C   UNL     1     -40.370  51.297 -54.256  1.00  0.00     0.007 A 
HETATM   31  C   UNL     1     -40.118  49.931 -54.121  1.00  0.00     0.001 A 
HETATM   32  C   UNL     1     -39.623  49.433 -52.919  1.00  0.00     0.000 A 
HETATM   33  C   UNL     1     -39.385  50.300 -51.854  1.00  0.00     0.001 A 
HETATM   34  C   UNL     1     -39.640  51.667 -51.989  1.00  0.00     0.007 A 
ENDBRANCH  28  29
ENDBRANCH  23  28
ENDBRANCH  19  22
ENDBRANCH   1  18
TORSDOF 8
ENDMDL
MODEL 5
REMARK VINA RESULT:      -7.7      1.757      3.857
REMARK  8 active torsions:
REMARK  status: ('A' for Active; 'I' for Inactive)
REMARK    1  A    between atoms: O_2  and  C_3 
REMARK    2  A    between atoms: C_5  and  O_6 
REMARK    3  A    between atoms: C_8  and  C_9 
REMARK    4  A    between atoms: N_10  and  C_12 
REMARK    5  A    between atoms: C_12  and  C_13 
REMARK       I    between atoms: C_13  and  N_14 
REMARK    6  A    between atoms: N_14  and  C_15 
REMARK    7  A    between atoms: C_16  and  C_17 
REMARK    8  A    between atoms: C_17  and  C_18 
ROOT
HETATM    1  C   UNL     1     -43.476  57.561 -54.196  1.00  0.00     0.338 C 
ENDROOT
BRANCH   1   2
HETATM    2  N   UNL     1     -42.370  58.402 -54.831  1.00  0.00    -0.054 N 
HETATM    3  C   UNL     1     -42.150  59.848 -54.376  1.00  0.00     0.224 C 
HETATM    4  C   UNL     1     -42.654  60.652 -55.575  1.00  0.00     0.040 C 
HETATM    5  C   UNL     1     -42.120  59.849 -56.744  1.00  0.00     0.030 C 
HETATM    6  C   UNL     1     -42.416  58.412 -56.354  1.00  0.00     0.236 C 
HETATM    7  H   UNL     1     -41.505  57.929 -54.543  1.00  0.00     0.281 HD
BRANCH   3   8
HETATM    8  C   UNL     1     -42.609  60.225 -52.987  1.00  0.00     0.006 A 
HETATM    9  C   UNL     1     -41.790  59.947 -51.869  1.00  0.00     0.079 A 
HETATM   10  C   UNL     1     -42.222  60.266 -50.574  1.00  0.00     0.074 A 
HETATM   11  C   UNL     1     -43.448  60.900 -50.379  1.00  0.00     0.070 A 
HETATM   12  C   UNL     1     -44.220  61.250 -51.484  1.00  0.00     0.037 A 
HETATM   13  C   UNL     1     -43.811  60.916 -52.775  1.00  0.00     0.015 A 
BRANCH   9  14
HETATM   14  O   UNL     1     -40.598  59.323 -52.156  1.00  0.00    -0.355 OA
HETATM   15  C   UNL     1     -39.709  59.077 -51.064  1.00  0.00     0.210 C 
ENDBRANCH   9  14
BRANCH  11  16
HETATM   16  O   UNL     1     -43.995  61.243 -49.176  1.00  0.00    -0.356 OA
HETATM   17  C   UNL     1     -45.350  60.873 -48.944  1.00  0.00     0.210 C 
ENDBRANCH  11  16
ENDBRANCH   3   8
ENDBRANCH   1   2
BRANCH   1  18
HETATM   18  C   UNL     1     -43.061  56.275 -53.476  1.00  0.00     0.248 C 
HETATM   19  N   UNL     1     -42.059  56.451 -52.549  1.00  0.00    -0.325 N 
HETATM   20  H   UNL     1     -41.567  57.334 -52.615  1.00  0.00     0.169 HD
HETATM   21  O   UNL     1     -43.622  55.234 -53.791  1.00  0.00    -0.271 OA
BRANCH  19  22
HETATM   22  C   UNL     1     -41.461  55.559 -51.618  1.00  0.00     0.041 A 
HETATM   23  C   UNL     1     -40.723  54.381 -51.851  1.00  0.00    -0.027 A 
HETATM   24  C   UNL     1     -40.251  53.653 -50.725  1.00  0.00     0.010 A 
HETATM   25  C   UNL     1     -40.497  54.055 -49.415  1.00  0.00     0.001 A 
HETATM   26  C   UNL     1     -41.225  55.205 -49.189  1.00  0.00     0.002 A 
HETATM   27  C   UNL     1     -41.696  55.942 -50.275  1.00  0.00     0.030 A 
BRANCH  23  28
HETATM   28  C   UNL     1     -40.373  53.755 -53.187  1.00  0.00     0.079 C 
BRANCH  28  29
HETATM   29  C   UNL     1     -40.059  52.271 -53.190  1.00  0.00    -0.054 A 
HETATM   30  C   UNL     1     -39.577  51.676 -52.012  1.00  0.00     0.007 A 
HETATM   31  C   UNL     1     -39.386  50.296 -51.930  1.00  0.00     0.001 A 
HETATM   32  C   UNL     1     -39.689  49.488 -53.021  1.00  0.00     0.000 A 
HETATM   33  C   UNL     1     -40.178  50.060 -54.194  1.00  0.00     0.001 A 
HETATM   34  C   UNL     1     -40.367  51.442 -54.277  1.00  0.00     0.007 A 
ENDBRANCH  28  29
ENDBRANCH  23  28
ENDBRANCH  19  22
ENDBRANCH   1  18
TORSDOF 8
ENDMDL
MODEL 6
REMARK VINA RESULT:      -7.7      2.044      5.577
REMARK  8 active torsions:
REMARK  status: ('A' for Active; 'I' for Inactive)
REMARK    1  A    between atoms: O_2  and  C_3 
REMARK    2  A    between atoms: C_5  and  O_6 
REMARK    3  A    between atoms: C_8  and  C_9 
REMARK    4  A    between atoms: N_10  and  C_12 
REMARK    5  A    between atoms: C_12  and  C_13 
REMARK       I    between atoms: C_13  and  N_14 
REMARK    6  A    between atoms: N_14  and  C_15 
REMARK    7  A    between atoms: C_16  and  C_17 
REMARK    8  A    between atoms: C_17  and  C_18 
ROOT
HETATM    1  C   UNL     1     -41.751  59.842 -54.003  1.00  0.00     0.338 C 
ENDROOT
BRANCH   1   2
HETATM    2  N   UNL     1     -43.038  60.112 -53.226  1.00  0.00    -0.054 N 
HETATM    3  C   UNL     1     -43.723  58.976 -52.460  1.00  0.00     0.224 C 
HETATM    4  C   UNL     1     -44.971  58.715 -53.303  1.00  0.00     0.040 C 
HETATM    5  C   UNL     1     -45.408  60.120 -53.668  1.00  0.00     0.030 C 
HETATM    6  C   UNL     1     -44.111  60.808 -54.054  1.00  0.00     0.236 C 
HETATM    7  H   UNL     1     -42.745  60.757 -52.481  1.00  0.00     0.281 HD
BRANCH   3   8
HETATM    8  C   UNL     1     -42.870  57.810 -52.021  1.00  0.00     0.006 A 
HETATM    9  C   UNL     1     -41.835  58.002 -51.077  1.00  0.00     0.079 A 
HETATM   10  C   UNL     1     -41.019  56.930 -50.688  1.00  0.00     0.074 A 
HETATM   11  C   UNL     1     -41.247  55.653 -51.197  1.00  0.00     0.070 A 
HETATM   12  C   UNL     1     -42.316  55.443 -52.064  1.00  0.00     0.037 A 
HETATM   13  C   UNL     1     -43.120  56.507 -52.476  1.00  0.00     0.015 A 
BRANCH   9  14
HETATM   14  O   UNL     1     -41.684  59.293 -50.627  1.00  0.00    -0.355 OA
HETATM   15  C   UNL     1     -40.393  59.671 -50.144  1.00  0.00     0.210 C 
ENDBRANCH   9  14
BRANCH  11  16
HETATM   16  O   UNL     1     -40.516  54.533 -50.922  1.00  0.00    -0.356 OA
HETATM   17  C   UNL     1     -40.036  54.376 -49.591  1.00  0.00     0.210 C 
ENDBRANCH  11  16
ENDBRANCH   3   8
ENDBRANCH   1   2
BRANCH   1  18
HETATM   18  C   UNL     1     -41.881  59.506 -55.492  1.00  0.00     0.248 C 
HETATM   19  N   UNL     1     -42.157  58.181 -55.744  1.00  0.00    -0.325 N 
HETATM   20  H   UNL     1     -42.014  57.558 -54.958  1.00  0.00     0.169 HD
HETATM   21  O   UNL     1     -41.713  60.408 -56.301  1.00  0.00    -0.271 OA
BRANCH  19  22
HETATM   22  C   UNL     1     -42.441  57.485 -56.949  1.00  0.00     0.041 A 
HETATM   23  C   UNL     1     -42.947  56.182 -57.135  1.00  0.00    -0.027 A 
HETATM   24  C   UNL     1     -43.119  55.714 -58.466  1.00  0.00     0.010 A 
HETATM   25  C   UNL     1     -42.799  56.486 -59.580  1.00  0.00     0.001 A 
HETATM   26  C   UNL     1     -42.298  57.758 -59.396  1.00  0.00     0.002 A 
HETATM   27  C   UNL     1     -42.125  58.245 -58.101  1.00  0.00     0.030 A 
BRANCH  23  28
HETATM   28  C   UNL     1     -43.326  55.173 -56.068  1.00  0.00     0.079 C 
BRANCH  28  29
HETATM   29  C   UNL     1     -42.203  54.343 -55.477  1.00  0.00    -0.054 A 
HETATM   30  C   UNL     1     -40.896  54.859 -55.491  1.00  0.00     0.007 A 
HETATM   31  C   UNL     1     -39.851  54.188 -54.855  1.00  0.00     0.001 A 
HETATM   32  C   UNL     1     -40.100  52.996 -54.182  1.00  0.00     0.000 A 
HETATM   33  C   UNL     1     -41.392  52.474 -54.149  1.00  0.00     0.001 A 
HETATM   34  C   UNL     1     -42.438  53.146 -54.787  1.00  0.00     0.007 A 
ENDBRANCH  28  29
ENDBRANCH  23  28
ENDBRANCH  19  22
ENDBRANCH   1  18
TORSDOF 8
ENDMDL
MODEL 7
REMARK VINA RESULT:      -7.5      1.396      1.947
REMARK  8 active torsions:
REMARK  status: ('A' for Active; 'I' for Inactive)
REMARK    1  A    between atoms: O_2  and  C_3 
REMARK    2  A    between atoms: C_5  and  O_6 
REMARK    3  A    between atoms: C_8  and  C_9 
REMARK    4  A    between atoms: N_10  and  C_12 
REMARK    5  A    between atoms: C_12  and  C_13 
REMARK       I    between atoms: C_13  and  N_14 
REMARK    6  A    between atoms: N_14  and  C_15 
REMARK    7  A    between atoms: C_16  and  C_17 
REMARK    8  A    between atoms: C_17  and  C_18 
ROOT
HETATM    1  C   UNL     1     -43.236  55.803 -55.509  1.00  0.00     0.338 C 
ENDROOT
BRANCH   1   2
HETATM    2  N   UNL     1     -42.872  56.452 -56.843  1.00  0.00    -0.054 N 
HETATM    3  C   UNL     1     -43.349  57.873 -57.159  1.00  0.00     0.224 C 
HETATM    4  C   UNL     1     -44.418  57.634 -58.226  1.00  0.00     0.040 C 
HETATM    5  C   UNL     1     -43.783  56.549 -59.074  1.00  0.00     0.030 C 
HETATM    6  C   UNL     1     -43.210  55.586 -58.051  1.00  0.00     0.236 C 
HETATM    7  H   UNL     1     -41.850  56.550 -56.799  1.00  0.00     0.281 HD
BRANCH   3   8
HETATM    8  C   UNL     1     -43.658  58.786 -55.996  1.00  0.00     0.006 A 
HETATM    9  C   UNL     1     -42.769  59.832 -55.658  1.00  0.00     0.079 A 
HETATM   10  C   UNL     1     -43.032  60.664 -54.561  1.00  0.00     0.074 A 
HETATM   11  C   UNL     1     -44.198  60.494 -53.814  1.00  0.00     0.070 A 
HETATM   12  C   UNL     1     -45.115  59.517 -54.193  1.00  0.00     0.037 A 
HETATM   13  C   UNL     1     -44.852  58.668 -55.269  1.00  0.00     0.015 A 
BRANCH   9  14
HETATM   14  O   UNL     1     -41.648  59.927 -56.450  1.00  0.00    -0.355 OA
HETATM   15  C   UNL     1     -41.631  60.960 -57.438  1.00  0.00     0.210 C 
ENDBRANCH   9  14
BRANCH  11  16
HETATM   16  O   UNL     1     -44.562  61.214 -52.714  1.00  0.00    -0.356 OA
HETATM   17  C   UNL     1     -43.538  61.931 -52.032  1.00  0.00     0.210 C 
ENDBRANCH  11  16
ENDBRANCH   3   8
ENDBRANCH   1   2
BRANCH   1  18
HETATM   18  C   UNL     1     -42.086  55.422 -54.571  1.00  0.00     0.248 C 
HETATM   19  N   UNL     1     -42.245  54.200 -53.959  1.00  0.00    -0.325 N 
HETATM   20  H   UNL     1     -43.180  53.813 -54.014  1.00  0.00     0.169 HD
HETATM   21  O   UNL     1     -41.168  56.219 -54.436  1.00  0.00    -0.271 OA
BRANCH  19  22
HETATM   22  C   UNL     1     -41.391  53.447 -53.110  1.00  0.00     0.041 A 
HETATM   23  C   UNL     1     -41.329  53.412 -51.702  1.00  0.00    -0.027 A 
HETATM   24  C   UNL     1     -40.351  52.577 -51.095  1.00  0.00     0.010 A 
HETATM   25  C   UNL     1     -39.456  51.809 -51.835  1.00  0.00     0.001 A 
HETATM   26  C   UNL     1     -39.514  51.850 -53.213  1.00  0.00     0.002 A 
HETATM   27  C   UNL     1     -40.467  52.656 -53.835  1.00  0.00     0.030 A 
BRANCH  23  28
HETATM   28  C   UNL     1     -42.181  54.187 -50.716  1.00  0.00     0.079 C 
BRANCH  28  29
HETATM   29  C   UNL     1     -42.189  55.698 -50.853  1.00  0.00    -0.054 A 
HETATM   30  C   UNL     1     -40.976  56.397 -50.737  1.00  0.00     0.007 A 
HETATM   31  C   UNL     1     -40.912  57.771 -50.972  1.00  0.00     0.001 A 
HETATM   32  C   UNL     1     -42.060  58.465 -51.340  1.00  0.00     0.000 A 
HETATM   33  C   UNL     1     -43.271  57.787 -51.469  1.00  0.00     0.001 A 
HETATM   34  C   UNL     1     -43.335  56.411 -51.232  1.00  0.00     0.007 A 
ENDBRANCH  28  29
ENDBRANCH  23  28
ENDBRANCH  19  22
ENDBRANCH   1  18
TORSDOF 8
ENDMDL
MODEL 8
REMARK VINA RESULT:      -7.3      1.931      7.822
REMARK  8 active torsions:
REMARK  status: ('A' for Active; 'I' for Inactive)
REMARK    1  A    between atoms: O_2  and  C_3 
REMARK    2  A    between atoms: C_5  and  O_6 
REMARK    3  A    between atoms: C_8  and  C_9 
REMARK    4  A    between atoms: N_10  and  C_12 
REMARK    5  A    between atoms: C_12  and  C_13 
REMARK       I    between atoms: C_13  and  N_14 
REMARK    6  A    between atoms: N_14  and  C_15 
REMARK    7  A    between atoms: C_16  and  C_17 
REMARK    8  A    between atoms: C_17  and  C_18 
ROOT
HETATM    1  C   UNL     1     -40.915  57.419 -52.794  1.00  0.00     0.338 C 
ENDROOT
BRANCH   1   2
HETATM    2  N   UNL     1     -41.818  57.055 -51.617  1.00  0.00    -0.054 N 
HETATM    3  C   UNL     1     -42.510  55.689 -51.575  1.00  0.00     0.224 C 
HETATM    4  C   UNL     1     -43.972  56.051 -51.836  1.00  0.00     0.040 C 
HETATM    5  C   UNL     1     -44.139  57.315 -51.015  1.00  0.00     0.030 C 
HETATM    6  C   UNL     1     -42.880  58.107 -51.321  1.00  0.00     0.236 C 
HETATM    7  H   UNL     1     -41.175  57.020 -50.816  1.00  0.00     0.281 HD
BRANCH   3   8
HETATM    8  C   UNL     1     -41.878  54.557 -52.350  1.00  0.00     0.006 A 
HETATM    9  C   UNL     1     -40.784  53.846 -51.805  1.00  0.00     0.079 A 
HETATM   10  C   UNL     1     -40.173  52.815 -52.532  1.00  0.00     0.074 A 
HETATM   11  C   UNL     1     -40.665  52.451 -53.784  1.00  0.00     0.070 A 
HETATM   12  C   UNL     1     -41.793  53.094 -54.289  1.00  0.00     0.037 A 
HETATM   13  C   UNL     1     -42.395  54.137 -53.584  1.00  0.00     0.015 A 
BRANCH   9  14
HETATM   14  O   UNL     1     -40.368  54.271 -50.564  1.00  0.00    -0.355 OA
HETATM   15  C   UNL     1     -40.389  53.313 -49.504  1.00  0.00     0.210 C 
ENDBRANCH   9  14
BRANCH  11  16
HETATM   16  O   UNL     1     -40.152  51.487 -54.602  1.00  0.00    -0.356 OA
HETATM   17  C   UNL     1     -39.692  50.286 -53.991  1.00  0.00     0.210 C 
ENDBRANCH  11  16
ENDBRANCH   3   8
ENDBRANCH   1   2
BRANCH   1  18
HETATM   18  C   UNL     1     -41.392  58.530 -53.734  1.00  0.00     0.248 C 
HETATM   19  N   UNL     1     -42.551  58.230 -54.413  1.00  0.00    -0.325 N 
HETATM   20  H   UNL     1     -42.817  57.253 -54.392  1.00  0.00     0.169 HD
HETATM   21  O   UNL     1     -40.712  59.545 -53.814  1.00  0.00    -0.271 OA
BRANCH  19  22
HETATM   22  C   UNL     1     -43.363  59.000 -55.288  1.00  0.00     0.041 A 
HETATM   23  C   UNL     1     -43.287  59.143 -56.689  1.00  0.00    -0.027 A 
HETATM   24  C   UNL     1     -44.221  60.005 -57.325  1.00  0.00     0.010 A 
HETATM   25  C   UNL     1     -45.191  60.713 -56.620  1.00  0.00     0.001 A 
HETATM   26  C   UNL     1     -45.259  60.576 -55.249  1.00  0.00     0.002 A 
HETATM   27  C   UNL     1     -44.360  59.732 -54.599  1.00  0.00     0.030 A 
BRANCH  23  28
HETATM   28  C   UNL     1     -42.295  58.494 -57.635  1.00  0.00     0.079 C 
BRANCH  28  29
HETATM   29  C   UNL     1     -42.797  57.328 -58.464  1.00  0.00    -0.054 A 
HETATM   30  C   UNL     1     -43.066  56.106 -57.825  1.00  0.00     0.007 A 
HETATM   31  C   UNL     1     -43.641  55.041 -58.521  1.00  0.00     0.001 A 
HETATM   32  C   UNL     1     -43.969  55.188 -59.865  1.00  0.00     0.000 A 
HETATM   33  C   UNL     1     -43.719  56.396 -60.513  1.00  0.00     0.001 A 
HETATM   34  C   UNL     1     -43.141  57.461 -59.816  1.00  0.00     0.007 A 
ENDBRANCH  28  29
ENDBRANCH  23  28
ENDBRANCH  19  22
ENDBRANCH   1  18
TORSDOF 8
ENDMDL
MODEL 9
REMARK VINA RESULT:      -7.3      2.274      5.481
REMARK  8 active torsions:
REMARK  status: ('A' for Active; 'I' for Inactive)
REMARK    1  A    between atoms: O_2  and  C_3 
REMARK    2  A    between atoms: C_5  and  O_6 
REMARK    3  A    between atoms: C_8  and  C_9 
REMARK    4  A    between atoms: N_10  and  C_12 
REMARK    5  A    between atoms: C_12  and  C_13 
REMARK       I    between atoms: C_13  and  N_14 
REMARK    6  A    between atoms: N_14  and  C_15 
REMARK    7  A    between atoms: C_16  and  C_17 
REMARK    8  A    between atoms: C_17  and  C_18 
ROOT
HETATM    1  C   UNL     1     -42.143  59.959 -53.717  1.00  0.00     0.338 C 
ENDROOT
BRANCH   1   2
HETATM    2  N   UNL     1     -41.524  59.044 -52.661  1.00  0.00    -0.054 N 
HETATM    3  C   UNL     1     -41.873  59.234 -51.182  1.00  0.00     0.224 C 
HETATM    4  C   UNL     1     -40.578  59.810 -50.608  1.00  0.00     0.040 C 
HETATM    5  C   UNL     1     -39.522  58.986 -51.318  1.00  0.00     0.030 C 
HETATM    6  C   UNL     1     -40.006  58.949 -52.756  1.00  0.00     0.236 C 
HETATM    7  H   UNL     1     -41.914  58.119 -52.879  1.00  0.00     0.281 HD
BRANCH   3   8
HETATM    8  C   UNL     1     -43.188  59.899 -50.850  1.00  0.00     0.006 A 
HETATM    9  C   UNL     1     -44.408  59.259 -51.169  1.00  0.00     0.079 A 
HETATM   10  C   UNL     1     -45.633  59.884 -50.893  1.00  0.00     0.074 A 
HETATM   11  C   UNL     1     -45.661  61.126 -50.261  1.00  0.00     0.070 A 
HETATM   12  C   UNL     1     -44.464  61.722 -49.872  1.00  0.00     0.037 A 
HETATM   13  C   UNL     1     -43.239  61.121 -50.163  1.00  0.00     0.015 A 
BRANCH   9  14
HETATM   14  O   UNL     1     -44.285  58.036 -51.787  1.00  0.00    -0.355 OA
HETATM   15  C   UNL     1     -44.448  56.873 -50.973  1.00  0.00     0.210 C 
ENDBRANCH   9  14
BRANCH  11  16
HETATM   16  O   UNL     1     -46.777  61.851 -49.958  1.00  0.00    -0.356 OA
HETATM   17  C   UNL     1     -47.056  62.992 -50.761  1.00  0.00     0.210 C 
ENDBRANCH  11  16
ENDBRANCH   3   8
ENDBRANCH   1   2
BRANCH   1  18
HETATM   18  C   UNL     1     -42.904  59.296 -54.868  1.00  0.00     0.248 C 
HETATM   19  N   UNL     1     -42.113  58.537 -55.699  1.00  0.00    -0.325 N 
HETATM   20  H   UNL     1     -41.117  58.689 -55.596  1.00  0.00     0.169 HD
HETATM   21  O   UNL     1     -44.106  59.509 -54.959  1.00  0.00    -0.271 OA
BRANCH  19  22
HETATM   22  C   UNL     1     -42.427  57.700 -56.803  1.00  0.00     0.041 A 
HETATM   23  C   UNL     1     -43.031  56.426 -56.820  1.00  0.00    -0.027 A 
HETATM   24  C   UNL     1     -43.212  55.788 -58.078  1.00  0.00     0.010 A 
HETATM   25  C   UNL     1     -42.809  56.367 -59.278  1.00  0.00     0.001 A 
HETATM   26  C   UNL     1     -42.212  57.611 -59.259  1.00  0.00     0.002 A 
HETATM   27  C   UNL     1     -42.028  58.262 -58.040  1.00  0.00     0.030 A 
BRANCH  23  28
HETATM   28  C   UNL     1     -43.510  55.611 -55.635  1.00  0.00     0.079 C 
BRANCH  28  29
HETATM   29  C   UNL     1     -42.481  54.745 -54.934  1.00  0.00    -0.054 A 
HETATM   30  C   UNL     1     -41.250  54.505 -55.567  1.00  0.00     0.007 A 
HETATM   31  C   UNL     1     -40.228  53.815 -54.915  1.00  0.00     0.001 A 
HETATM   32  C   UNL     1     -40.416  53.367 -53.611  1.00  0.00     0.000 A 
HETATM   33  C   UNL     1     -41.627  53.605 -52.963  1.00  0.00     0.001 A 
HETATM   34  C   UNL     1     -42.652  54.294 -53.618  1.00  0.00     0.007 A 
ENDBRANCH  28  29
ENDBRANCH  23  28
ENDBRANCH  19  22
ENDBRANCH   1  18
TORSDOF 8
ENDMDL
MODEL 10
REMARK VINA RESULT:      -7.2      2.665      8.138
REMARK  8 active torsions:
REMARK  status: ('A' for Active; 'I' for Inactive)
REMARK    1  A    between atoms: O_2  and  C_3 
REMARK    2  A    between atoms: C_5  and  O_6 
REMARK    3  A    between atoms: C_8  and  C_9 
REMARK    4  A    between atoms: N_10  and  C_12 
REMARK    5  A    between atoms: C_12  and  C_13 
REMARK       I    between atoms: C_13  and  N_14 
REMARK    6  A    between atoms: N_14  and  C_15 
REMARK    7  A    between atoms: C_16  and  C_17 
REMARK    8  A    between atoms: C_17  and  C_18 
ROOT
HETATM    1  C   UNL     1     -42.880  57.648 -55.265  1.00  0.00     0.338 C 
ENDROOT
BRANCH   1   2
HETATM    2  N   UNL     1     -41.622  58.168 -54.571  1.00  0.00    -0.054 N 
HETATM    3  C   UNL     1     -40.824  57.249 -53.641  1.00  0.00     0.224 C 
HETATM    4  C   UNL     1     -41.127  57.832 -52.260  1.00  0.00     0.040 C 
HETATM    5  C   UNL     1     -41.074  59.323 -52.527  1.00  0.00     0.030 C 
HETATM    6  C   UNL     1     -41.839  59.481 -53.828  1.00  0.00     0.236 C 
HETATM    7  H   UNL     1     -40.970  58.346 -55.345  1.00  0.00     0.281 HD
BRANCH   3   8
HETATM    8  C   UNL     1     -40.941  55.759 -53.856  1.00  0.00     0.006 A 
HETATM    9  C   UNL     1     -41.941  55.020 -53.182  1.00  0.00     0.079 A 
HETATM   10  C   UNL     1     -42.035  53.631 -53.352  1.00  0.00     0.074 A 
HETATM   11  C   UNL     1     -41.169  52.969 -54.221  1.00  0.00     0.070 A 
HETATM   12  C   UNL     1     -40.237  53.704 -54.948  1.00  0.00     0.037 A 
HETATM   13  C   UNL     1     -40.119  55.083 -54.770  1.00  0.00     0.015 A 
BRANCH   9  14
HETATM   14  O   UNL     1     -42.751  55.755 -52.348  1.00  0.00    -0.355 OA
HETATM   15  C   UNL     1     -43.455  55.045 -51.327  1.00  0.00     0.210 C 
ENDBRANCH   9  14
BRANCH  11  16
HETATM   16  O   UNL     1     -41.138  51.625 -54.458  1.00  0.00    -0.356 OA
HETATM   17  C   UNL     1     -39.975  50.914 -54.048  1.00  0.00     0.210 C 
ENDBRANCH  11  16
ENDBRANCH   3   8
ENDBRANCH   1   2
BRANCH   1  18
HETATM   18  C   UNL     1     -43.235  58.247 -56.629  1.00  0.00     0.248 C 
HETATM   19  N   UNL     1     -42.179  58.865 -57.260  1.00  0.00    -0.325 N 
HETATM   20  H   UNL     1     -41.378  59.052 -56.669  1.00  0.00     0.169 HD
HETATM   21  O   UNL     1     -44.391  58.148 -57.016  1.00  0.00    -0.271 OA
BRANCH  19  22
HETATM   22  C   UNL     1     -42.057  59.451 -58.548  1.00  0.00     0.041 A 
HETATM   23  C   UNL     1     -41.998  58.833 -59.814  1.00  0.00    -0.027 A 
HETATM   24  C   UNL     1     -41.850  59.664 -60.958  1.00  0.00     0.010 A 
HETATM   25  C   UNL     1     -41.751  61.050 -60.872  1.00  0.00     0.001 A 
HETATM   26  C   UNL     1     -41.803  61.652 -59.632  1.00  0.00     0.002 A 
HETATM   27  C   UNL     1     -41.954  60.863 -58.493  1.00  0.00     0.030 A 
BRANCH  23  28
HETATM   28  C   UNL     1     -42.054  57.350 -60.126  1.00  0.00     0.079 C 
BRANCH  28  29
HETATM   29  C   UNL     1     -43.411  56.679 -60.038  1.00  0.00    -0.054 A 
HETATM   30  C   UNL     1     -44.558  57.418 -60.375  1.00  0.00     0.007 A 
HETATM   31  C   UNL     1     -45.815  56.813 -60.424  1.00  0.00     0.001 A 
HETATM   32  C   UNL     1     -45.941  55.455 -60.152  1.00  0.00     0.000 A 
HETATM   33  C   UNL     1     -44.813  54.704 -59.827  1.00  0.00     0.001 A 
HETATM   34  C   UNL     1     -43.555  55.310 -59.775  1.00  0.00     0.007 A 
ENDBRANCH  28  29
ENDBRANCH  23  28
ENDBRANCH  19  22
ENDBRANCH   1  18
TORSDOF 8
ENDMDL
