MODEL 1
REMARK VINA RESULT:      -8.9      0.000      0.000
REMARK  7 active torsions:
REMARK  status: ('A' for Active; 'I' for Inactive)
REMARK    1  A    between atoms: C_4  and  C_5 
REMARK    2  A    between atoms: C_5  and  C_6 
REMARK    3  A    between atoms: C_6  and  C_7 
REMARK    4  A    between atoms: C_7  and  N_8 
REMARK    5  A    between atoms: C_12  and  O_13 
REMARK    6  A    between atoms: C_12  and  C_14 
REMARK    7  A    between atoms: C_19  and  C_20 
REMARK       I    between atoms: C_20  and  N_21 
ROOT
HETATM    1  C   UNL     1     -43.083  57.370 -53.481  1.00  0.00    -0.023 A 
HETATM    2  C   UNL     1     -44.301  57.255 -54.191  1.00  0.00     0.024 A 
HETATM    3  C   UNL     1     -44.528  58.020 -55.355  1.00  0.00     0.001 A 
HETATM    4  C   UNL     1     -43.528  58.869 -55.798  1.00  0.00     0.086 A 
HETATM    5  O   UNL     1     -43.918  59.516 -56.931  1.00  0.00    -0.304 OA
HETATM    6  C   UNL     1     -45.185  59.095 -57.231  1.00  0.00     0.144 A 
HETATM    7  C   UNL     1     -45.582  58.154 -56.292  1.00  0.00     0.057 A 
HETATM    8  C   UNL     1     -42.299  59.001 -55.168  1.00  0.00     0.039 A 
HETATM    9  C   UNL     1     -42.094  58.226 -54.013  1.00  0.00     0.013 A 
ENDROOT
BRANCH   1  10
HETATM   10  C   UNL     1     -42.804  56.513 -52.235  1.00  0.00     0.088 C 
HETATM   11  C   UNL     1     -41.336  56.083 -52.048  1.00  0.00     0.071 C 
HETATM   12  C   UNL     1     -40.891  55.074 -53.093  1.00  0.00     0.238 C 
HETATM   13  N   UNL     1     -41.774  53.847 -53.044  1.00  0.00    -0.071 N 
HETATM   14  H   UNL     1     -41.646  53.399 -52.125  1.00  0.00     0.279 HD
HETATM   15  C   UNL     1     -43.244  54.195 -53.172  1.00  0.00     0.238 C 
HETATM   16  C   UNL     1     -43.637  55.219 -52.124  1.00  0.00     0.071 C 
BRANCH  13  17
HETATM   17  C   UNL     1     -41.403  52.810 -54.102  1.00  0.00     0.235 C 
BRANCH  17  18
HETATM   18  C   UNL     1     -39.888  52.627 -54.205  1.00  0.00     0.038 C 
BRANCH  18  19
HETATM   19  C   UNL     1     -39.440  51.254 -53.664  1.00  0.00     0.040 C 
HETATM   20  C   UNL     1     -40.094  50.123 -54.461  1.00  0.00     0.017 C 
BRANCH  19  21
HETATM   21  C   UNL     1     -39.738  51.141 -52.204  1.00  0.00     0.057 A 
HETATM   22  O   UNL     1     -39.955  52.324 -51.558  1.00  0.00    -0.319 OA
HETATM   23  C   UNL     1     -40.205  52.030 -50.252  1.00  0.00     0.049 A 
HETATM   24  C   UNL     1     -40.424  53.179 -49.350  1.00  0.00     0.076 C 
HETATM   25  C   UNL     1     -40.187  50.666 -50.062  1.00  0.00     0.035 A 
HETATM   26  C   UNL     1     -39.889  50.092 -51.321  1.00  0.00     0.035 A 
ENDBRANCH  19  21
ENDBRANCH  18  19
ENDBRANCH  17  18
ENDBRANCH  13  17
BRANCH  10  27
HETATM   27  O   UNL     1     -43.139  57.301 -51.090  1.00  0.00    -0.385 OA
HETATM   28  H   UNL     1     -42.930  56.811 -50.273  1.00  0.00     0.211 HD
ENDBRANCH  10  27
ENDBRANCH   1  10
BRANCH   6  29
HETATM   29  C   UNL     1     -45.893  59.555 -58.415  1.00  0.00     0.277 C 
HETATM   30  N   UNL     1     -45.583  59.059 -59.693  1.00  0.00    -0.345 N 
HETATM   31  C   UNL     1     -46.336  59.608 -60.827  1.00  0.00     0.154 C 
HETATM   32  C   UNL     1     -44.696  57.946 -60.001  1.00  0.00     0.128 C 
HETATM   33  C   UNL     1     -47.607  58.813 -61.149  1.00  0.00     0.254 C 
HETATM   34  N   UNL     1     -47.292  57.344 -61.453  1.00  0.00    -0.073 N 
HETATM   35  H   UNL     1     -46.518  57.315 -62.129  1.00  0.00     0.279 HD
HETATM   36  C   UNL     1     -48.464  56.697 -62.154  1.00  0.00     0.269 C 
HETATM   37  C   UNL     1     -46.894  56.563 -60.218  1.00  0.00     0.236 C 
HETATM   38  C   UNL     1     -45.392  56.587 -59.955  1.00  0.00     0.048 C 
HETATM   39  O   UNL     1     -46.787  60.400 -58.314  1.00  0.00    -0.265 OA
ENDBRANCH   6  29
TORSDOF 7
ENDMDL
MODEL 2
REMARK VINA RESULT:      -8.8      6.130      8.967
REMARK  7 active torsions:
REMARK  status: ('A' for Active; 'I' for Inactive)
REMARK    1  A    between atoms: C_4  and  C_5 
REMARK    2  A    between atoms: C_5  and  C_6 
REMARK    3  A    between atoms: C_6  and  C_7 
REMARK    4  A    between atoms: C_7  and  N_8 
REMARK    5  A    between atoms: C_12  and  O_13 
REMARK    6  A    between atoms: C_12  and  C_14 
REMARK    7  A    between atoms: C_19  and  C_20 
REMARK       I    between atoms: C_20  and  N_21 
ROOT
HETATM    1  C   UNL     1     -43.086  59.617 -51.929  1.00  0.00    -0.023 A 
HETATM    2  C   UNL     1     -43.094  60.826 -51.193  1.00  0.00     0.024 A 
HETATM    3  C   UNL     1     -44.225  61.198 -50.435  1.00  0.00     0.001 A 
HETATM    4  C   UNL     1     -45.318  60.348 -50.411  1.00  0.00     0.086 A 
HETATM    5  O   UNL     1     -46.305  60.863 -49.629  1.00  0.00    -0.304 OA
HETATM    6  C   UNL     1     -45.863  62.062 -49.141  1.00  0.00     0.144 A 
HETATM    7  C   UNL     1     -44.574  62.288 -49.600  1.00  0.00     0.057 A 
HETATM    8  C   UNL     1     -45.360  59.133 -51.082  1.00  0.00     0.039 A 
HETATM    9  C   UNL     1     -44.220  58.782 -51.825  1.00  0.00     0.013 A 
ENDROOT
BRANCH   1  10
HETATM   10  C   UNL     1     -41.846  59.178 -52.725  1.00  0.00     0.088 C 
HETATM   11  C   UNL     1     -42.104  58.111 -53.807  1.00  0.00     0.071 C 
HETATM   12  C   UNL     1     -42.455  56.758 -53.213  1.00  0.00     0.238 C 
HETATM   13  N   UNL     1     -41.343  56.281 -52.306  1.00  0.00    -0.071 N 
HETATM   14  H   UNL     1     -40.499  56.143 -52.881  1.00  0.00     0.279 HD
HETATM   15  C   UNL     1     -40.996  57.302 -51.240  1.00  0.00     0.238 C 
HETATM   16  C   UNL     1     -40.674  58.641 -51.877  1.00  0.00     0.071 C 
BRANCH  13  17
HETATM   17  C   UNL     1     -41.654  54.941 -51.643  1.00  0.00     0.235 C 
BRANCH  17  18
HETATM   18  C   UNL     1     -41.871  53.837 -52.680  1.00  0.00     0.038 C 
BRANCH  18  19
HETATM   19  C   UNL     1     -40.587  53.549 -53.485  1.00  0.00     0.040 C 
HETATM   20  C   UNL     1     -40.769  53.958 -54.949  1.00  0.00     0.017 C 
BRANCH  19  21
HETATM   21  C   UNL     1     -40.198  52.112 -53.360  1.00  0.00     0.057 A 
HETATM   22  O   UNL     1     -39.989  51.671 -52.085  1.00  0.00    -0.319 OA
HETATM   23  C   UNL     1     -39.643  50.357 -52.164  1.00  0.00     0.049 A 
HETATM   24  C   UNL     1     -39.322  49.683 -50.889  1.00  0.00     0.076 C 
HETATM   25  C   UNL     1     -39.666  49.940 -53.476  1.00  0.00     0.035 A 
HETATM   26  C   UNL     1     -40.026  51.071 -54.248  1.00  0.00     0.035 A 
ENDBRANCH  19  21
ENDBRANCH  18  19
ENDBRANCH  17  18
ENDBRANCH  13  17
BRANCH  10  27
HETATM   27  O   UNL     1     -41.347  60.330 -53.410  1.00  0.00    -0.385 OA
HETATM   28  H   UNL     1     -41.889  60.511 -54.200  1.00  0.00     0.211 HD
ENDBRANCH  10  27
ENDBRANCH   1  10
BRANCH   6  29
HETATM   29  C   UNL     1     -46.657  62.865 -48.225  1.00  0.00     0.277 C 
HETATM   30  N   UNL     1     -46.887  62.454 -46.900  1.00  0.00    -0.345 N 
HETATM   31  C   UNL     1     -47.725  63.321 -46.064  1.00  0.00     0.154 C 
HETATM   32  C   UNL     1     -46.259  61.331 -46.219  1.00  0.00     0.128 C 
HETATM   33  C   UNL     1     -46.921  64.370 -45.288  1.00  0.00     0.254 C 
HETATM   34  N   UNL     1     -45.863  63.720 -44.389  1.00  0.00    -0.073 N 
HETATM   35  H   UNL     1     -46.315  62.964 -43.858  1.00  0.00     0.279 HD
HETATM   36  C   UNL     1     -45.382  64.710 -43.353  1.00  0.00     0.269 C 
HETATM   37  C   UNL     1     -44.704  63.142 -45.173  1.00  0.00     0.236 C 
HETATM   38  C   UNL     1     -44.921  61.686 -45.574  1.00  0.00     0.048 C 
HETATM   39  O   UNL     1     -47.149  63.932 -48.601  1.00  0.00    -0.265 OA
ENDBRANCH   6  29
TORSDOF 7
ENDMDL
MODEL 3
REMARK VINA RESULT:      -8.5      2.775      3.792
REMARK  7 active torsions:
REMARK  status: ('A' for Active; 'I' for Inactive)
REMARK    1  A    between atoms: C_4  and  C_5 
REMARK    2  A    between atoms: C_5  and  C_6 
REMARK    3  A    between atoms: C_6  and  C_7 
REMARK    4  A    between atoms: C_7  and  N_8 
REMARK    5  A    between atoms: C_12  and  O_13 
REMARK    6  A    between atoms: C_12  and  C_14 
REMARK    7  A    between atoms: C_19  and  C_20 
REMARK       I    between atoms: C_20  and  N_21 
ROOT
HETATM    1  C   UNL     1     -43.416  57.164 -54.347  1.00  0.00    -0.023 A 
HETATM    2  C   UNL     1     -42.496  57.632 -55.315  1.00  0.00     0.024 A 
HETATM    3  C   UNL     1     -42.952  58.271 -56.489  1.00  0.00     0.001 A 
HETATM    4  C   UNL     1     -44.314  58.446 -56.663  1.00  0.00     0.086 A 
HETATM    5  O   UNL     1     -44.566  59.083 -57.840  1.00  0.00    -0.304 OA
HETATM    6  C   UNL     1     -43.363  59.320 -58.447  1.00  0.00     0.144 A 
HETATM    7  C   UNL     1     -42.345  58.853 -57.629  1.00  0.00     0.057 A 
HETATM    8  C   UNL     1     -45.265  58.043 -55.737  1.00  0.00     0.039 A 
HETATM    9  C   UNL     1     -44.787  57.413 -54.574  1.00  0.00     0.013 A 
ENDROOT
BRANCH   1  10
HETATM   10  C   UNL     1     -42.934  56.504 -53.045  1.00  0.00     0.088 C 
HETATM   11  C   UNL     1     -41.419  56.604 -52.779  1.00  0.00     0.071 C 
HETATM   12  C   UNL     1     -40.606  55.762 -53.748  1.00  0.00     0.238 C 
HETATM   13  N   UNL     1     -41.027  54.312 -53.661  1.00  0.00    -0.071 N 
HETATM   14  H   UNL     1     -40.805  53.972 -52.714  1.00  0.00     0.279 HD
HETATM   15  C   UNL     1     -42.519  54.137 -53.863  1.00  0.00     0.238 C 
HETATM   16  C   UNL     1     -43.289  55.011 -52.891  1.00  0.00     0.071 C 
BRANCH  13  17
HETATM   17  C   UNL     1     -40.273  53.418 -54.643  1.00  0.00     0.235 C 
BRANCH  17  18
HETATM   18  C   UNL     1     -40.618  51.942 -54.440  1.00  0.00     0.038 C 
BRANCH  18  19
HETATM   19  C   UNL     1     -39.491  51.187 -53.704  1.00  0.00     0.040 C 
HETATM   20  C   UNL     1     -39.312  49.785 -54.291  1.00  0.00     0.017 C 
BRANCH  19  21
HETATM   21  C   UNL     1     -39.764  51.138 -52.236  1.00  0.00     0.057 A 
HETATM   22  O   UNL     1     -40.075  52.335 -51.658  1.00  0.00    -0.319 OA
HETATM   23  C   UNL     1     -40.285  52.100 -50.333  1.00  0.00     0.049 A 
HETATM   24  C   UNL     1     -40.592  53.279 -49.497  1.00  0.00     0.076 C 
HETATM   25  C   UNL     1     -40.148  50.757 -50.063  1.00  0.00     0.035 A 
HETATM   26  C   UNL     1     -39.814  50.135 -51.291  1.00  0.00     0.035 A 
ENDBRANCH  19  21
ENDBRANCH  18  19
ENDBRANCH  17  18
ENDBRANCH  13  17
BRANCH  10  27
HETATM   27  O   UNL     1     -43.575  57.180 -51.959  1.00  0.00    -0.385 OA
HETATM   28  H   UNL     1     -42.914  57.451 -51.296  1.00  0.00     0.211 HD
ENDBRANCH  10  27
ENDBRANCH   1  10
BRANCH   6  29
HETATM   29  C   UNL     1     -43.261  60.031 -59.711  1.00  0.00     0.277 C 
HETATM   30  N   UNL     1     -43.096  61.426 -59.756  1.00  0.00    -0.345 N 
HETATM   31  C   UNL     1     -43.032  62.053 -61.082  1.00  0.00     0.154 C 
HETATM   32  C   UNL     1     -42.831  62.306 -58.626  1.00  0.00     0.128 C 
HETATM   33  C   UNL     1     -41.604  62.162 -61.629  1.00  0.00     0.254 C 
HETATM   34  N   UNL     1     -40.696  62.956 -60.683  1.00  0.00    -0.073 N 
HETATM   35  H   UNL     1     -41.184  63.823 -60.423  1.00  0.00     0.279 HD
HETATM   36  C   UNL     1     -39.447  63.397 -61.411  1.00  0.00     0.269 C 
HETATM   37  C   UNL     1     -40.353  62.191 -59.422  1.00  0.00     0.236 C 
HETATM   38  C   UNL     1     -41.347  62.429 -58.290  1.00  0.00     0.048 C 
HETATM   39  O   UNL     1     -43.320  59.413 -60.777  1.00  0.00    -0.265 OA
ENDBRANCH   6  29
TORSDOF 7
ENDMDL
MODEL 4
REMARK VINA RESULT:      -8.5      2.282      8.917
REMARK  7 active torsions:
REMARK  status: ('A' for Active; 'I' for Inactive)
REMARK    1  A    between atoms: C_4  and  C_5 
REMARK    2  A    between atoms: C_5  and  C_6 
REMARK    3  A    between atoms: C_6  and  C_7 
REMARK    4  A    between atoms: C_7  and  N_8 
REMARK    5  A    between atoms: C_12  and  O_13 
REMARK    6  A    between atoms: C_12  and  C_14 
REMARK    7  A    between atoms: C_19  and  C_20 
REMARK       I    between atoms: C_20  and  N_21 
ROOT
HETATM    1  C   UNL     1     -43.016  60.621 -55.779  1.00  0.00    -0.023 A 
HETATM    2  C   UNL     1     -41.919  59.844 -55.339  1.00  0.00     0.024 A 
HETATM    3  C   UNL     1     -42.101  58.819 -54.386  1.00  0.00     0.001 A 
HETATM    4  C   UNL     1     -43.377  58.576 -53.907  1.00  0.00     0.086 A 
HETATM    5  O   UNL     1     -43.364  57.554 -53.009  1.00  0.00    -0.304 OA
HETATM    6  C   UNL     1     -42.070  57.126 -52.890  1.00  0.00     0.144 A 
HETATM    7  C   UNL     1     -41.268  57.869 -53.744  1.00  0.00     0.057 A 
HETATM    8  C   UNL     1     -44.500  59.278 -54.325  1.00  0.00     0.039 A 
HETATM    9  C   UNL     1     -44.294  60.291 -55.277  1.00  0.00     0.013 A 
ENDROOT
BRANCH   1  10
HETATM   10  C   UNL     1     -42.840  61.714 -56.847  1.00  0.00     0.088 C 
HETATM   11  C   UNL     1     -43.974  61.805 -57.887  1.00  0.00     0.071 C 
HETATM   12  C   UNL     1     -43.998  60.607 -58.822  1.00  0.00     0.238 C 
HETATM   13  N   UNL     1     -42.676  60.481 -59.545  1.00  0.00    -0.071 N 
HETATM   14  H   UNL     1     -42.554  61.317 -60.135  1.00  0.00     0.279 HD
HETATM   15  C   UNL     1     -41.502  60.436 -58.585  1.00  0.00     0.238 C 
HETATM   16  C   UNL     1     -41.531  61.637 -57.659  1.00  0.00     0.071 C 
BRANCH  13  17
HETATM   17  C   UNL     1     -42.622  59.269 -60.472  1.00  0.00     0.235 C 
BRANCH  17  18
HETATM   18  C   UNL     1     -42.183  58.008 -59.725  1.00  0.00     0.038 C 
BRANCH  18  19
HETATM   19  C   UNL     1     -43.293  57.482 -58.791  1.00  0.00     0.040 C 
HETATM   20  C   UNL     1     -42.684  56.858 -57.533  1.00  0.00     0.017 C 
BRANCH  19  21
HETATM   21  C   UNL     1     -44.175  56.516 -59.513  1.00  0.00     0.057 A 
HETATM   22  O   UNL     1     -45.365  57.023 -59.949  1.00  0.00    -0.319 OA
HETATM   23  C   UNL     1     -46.030  56.012 -60.573  1.00  0.00     0.049 A 
HETATM   24  C   UNL     1     -47.378  56.330 -61.087  1.00  0.00     0.076 C 
HETATM   25  C   UNL     1     -45.260  54.870 -60.574  1.00  0.00     0.035 A 
HETATM   26  C   UNL     1     -44.062  55.195 -59.893  1.00  0.00     0.035 A 
ENDBRANCH  19  21
ENDBRANCH  18  19
ENDBRANCH  17  18
ENDBRANCH  13  17
BRANCH  10  27
HETATM   27  O   UNL     1     -42.816  62.973 -56.170  1.00  0.00    -0.385 OA
HETATM   28  H   UNL     1     -42.000  63.055 -55.644  1.00  0.00     0.211 HD
ENDBRANCH  10  27
ENDBRANCH   1  10
BRANCH   6  29
HETATM   29  C   UNL     1     -41.700  56.006 -52.039  1.00  0.00     0.277 C 
HETATM   30  N   UNL     1     -42.128  54.698 -52.323  1.00  0.00    -0.345 N 
HETATM   31  C   UNL     1     -41.725  53.641 -51.387  1.00  0.00     0.154 C 
HETATM   32  C   UNL     1     -42.807  54.249 -53.530  1.00  0.00     0.128 C 
HETATM   33  C   UNL     1     -40.398  52.975 -51.766  1.00  0.00     0.254 C 
HETATM   34  N   UNL     1     -40.453  52.368 -53.174  1.00  0.00    -0.073 N 
HETATM   35  H   UNL     1     -41.314  51.813 -53.250  1.00  0.00     0.279 HD
HETATM   36  C   UNL     1     -39.320  51.385 -53.359  1.00  0.00     0.269 C 
HETATM   37  C   UNL     1     -40.449  53.419 -54.264  1.00  0.00     0.236 C 
HETATM   38  C   UNL     1     -41.850  53.874 -54.659  1.00  0.00     0.048 C 
HETATM   39  O   UNL     1     -40.997  56.190 -51.042  1.00  0.00    -0.265 OA
ENDBRANCH   6  29
TORSDOF 7
ENDMDL
MODEL 5
REMARK VINA RESULT:      -8.4      2.652      4.137
REMARK  7 active torsions:
REMARK  status: ('A' for Active; 'I' for Inactive)
REMARK    1  A    between atoms: C_4  and  C_5 
REMARK    2  A    between atoms: C_5  and  C_6 
REMARK    3  A    between atoms: C_6  and  C_7 
REMARK    4  A    between atoms: C_7  and  N_8 
REMARK    5  A    between atoms: C_12  and  O_13 
REMARK    6  A    between atoms: C_12  and  C_14 
REMARK    7  A    between atoms: C_19  and  C_20 
REMARK       I    between atoms: C_20  and  N_21 
ROOT
HETATM    1  C   UNL     1     -43.750  58.474 -53.320  1.00  0.00    -0.023 A 
HETATM    2  C   UNL     1     -42.892  59.178 -54.198  1.00  0.00     0.024 A 
HETATM    3  C   UNL     1     -42.952  58.957 -55.591  1.00  0.00     0.001 A 
HETATM    4  C   UNL     1     -43.879  58.054 -56.081  1.00  0.00     0.086 A 
HETATM    5  O   UNL     1     -43.799  57.976 -57.437  1.00  0.00    -0.304 OA
HETATM    6  C   UNL     1     -42.808  58.829 -57.842  1.00  0.00     0.144 A 
HETATM    7  C   UNL     1     -42.281  59.468 -56.729  1.00  0.00     0.057 A 
HETATM    8  C   UNL     1     -44.772  57.357 -55.278  1.00  0.00     0.039 A 
HETATM    9  C   UNL     1     -44.696  57.597 -53.895  1.00  0.00     0.013 A 
ENDROOT
BRANCH   1  10
HETATM   10  C   UNL     1     -43.725  58.733 -51.805  1.00  0.00     0.088 C 
HETATM   11  C   UNL     1     -42.325  58.951 -51.197  1.00  0.00     0.071 C 
HETATM   12  C   UNL     1     -41.490  57.682 -51.201  1.00  0.00     0.238 C 
HETATM   13  N   UNL     1     -42.197  56.589 -50.430  1.00  0.00    -0.071 N 
HETATM   14  H   UNL     1     -42.274  56.891 -49.448  1.00  0.00     0.279 HD
HETATM   15  C   UNL     1     -43.605  56.350 -50.939  1.00  0.00     0.238 C 
HETATM   16  C   UNL     1     -44.394  57.646 -50.938  1.00  0.00     0.071 C 
BRANCH  13  17
HETATM   17  C   UNL     1     -41.425  55.272 -50.432  1.00  0.00     0.235 C 
BRANCH  17  18
HETATM   18  C   UNL     1     -41.900  54.341 -51.548  1.00  0.00     0.038 C 
BRANCH  18  19
HETATM   19  C   UNL     1     -40.953  54.379 -52.766  1.00  0.00     0.040 C 
HETATM   20  C   UNL     1     -41.665  54.979 -53.981  1.00  0.00     0.017 C 
BRANCH  19  21
HETATM   21  C   UNL     1     -40.419  53.014 -53.060  1.00  0.00     0.057 A 
HETATM   22  O   UNL     1     -40.196  52.226 -51.968  1.00  0.00    -0.319 OA
HETATM   23  C   UNL     1     -39.713  51.036 -52.422  1.00  0.00     0.049 A 
HETATM   24  C   UNL     1     -39.354  50.037 -51.395  1.00  0.00     0.076 C 
HETATM   25  C   UNL     1     -39.661  51.041 -53.798  1.00  0.00     0.035 A 
HETATM   26  C   UNL     1     -40.119  52.316 -54.211  1.00  0.00     0.035 A 
ENDBRANCH  19  21
ENDBRANCH  18  19
ENDBRANCH  17  18
ENDBRANCH  13  17
BRANCH  10  27
HETATM   27  O   UNL     1     -44.457  59.939 -51.565  1.00  0.00    -0.385 OA
HETATM   28  H   UNL     1     -45.112  59.798 -50.857  1.00  0.00     0.211 HD
ENDBRANCH  10  27
ENDBRANCH   1  10
BRANCH   6  29
HETATM   29  C   UNL     1     -42.484  59.029 -59.245  1.00  0.00     0.277 C 
HETATM   30  N   UNL     1     -43.142  60.003 -60.017  1.00  0.00    -0.345 N 
HETATM   31  C   UNL     1     -42.763  60.108 -61.431  1.00  0.00     0.154 C 
HETATM   32  C   UNL     1     -44.057  61.025 -59.529  1.00  0.00     0.128 C 
HETATM   33  C   UNL     1     -41.624  61.103 -61.678  1.00  0.00     0.254 C 
HETATM   34  N   UNL     1     -41.984  62.507 -61.177  1.00  0.00    -0.073 N 
HETATM   35  H   UNL     1     -42.920  62.743 -61.529  1.00  0.00     0.279 HD
HETATM   36  C   UNL     1     -41.053  63.530 -61.786  1.00  0.00     0.269 C 
HETATM   37  C   UNL     1     -41.989  62.605 -59.665  1.00  0.00     0.236 C 
HETATM   38  C   UNL     1     -43.351  62.292 -59.052  1.00  0.00     0.048 C 
HETATM   39  O   UNL     1     -41.618  58.338 -59.787  1.00  0.00    -0.265 OA
ENDBRANCH   6  29
TORSDOF 7
ENDMDL
MODEL 6
REMARK VINA RESULT:      -8.4      3.382      6.424
REMARK  7 active torsions:
REMARK  status: ('A' for Active; 'I' for Inactive)
REMARK    1  A    between atoms: C_4  and  C_5 
REMARK    2  A    between atoms: C_5  and  C_6 
REMARK    3  A    between atoms: C_6  and  C_7 
REMARK    4  A    between atoms: C_7  and  N_8 
REMARK    5  A    between atoms: C_12  and  O_13 
REMARK    6  A    between atoms: C_12  and  C_14 
REMARK    7  A    between atoms: C_19  and  C_20 
REMARK       I    between atoms: C_20  and  N_21 
ROOT
HETATM    1  C   UNL     1     -41.970  56.389 -50.683  1.00  0.00    -0.023 A 
HETATM    2  C   UNL     1     -43.145  57.027 -51.145  1.00  0.00     0.024 A 
HETATM    3  C   UNL     1     -43.172  58.424 -51.347  1.00  0.00     0.001 A 
HETATM    4  C   UNL     1     -42.020  59.152 -51.103  1.00  0.00     0.086 A 
HETATM    5  O   UNL     1     -42.228  60.473 -51.357  1.00  0.00    -0.304 OA
HETATM    6  C   UNL     1     -43.527  60.615 -51.765  1.00  0.00     0.144 A 
HETATM    7  C   UNL     1     -44.131  59.367 -51.792  1.00  0.00     0.057 A 
HETATM    8  C   UNL     1     -40.826  58.583 -50.683  1.00  0.00     0.039 A 
HETATM    9  C   UNL     1     -40.823  57.190 -50.493  1.00  0.00     0.013 A 
ENDROOT
BRANCH   1  10
HETATM   10  C   UNL     1     -41.913  54.863 -50.497  1.00  0.00     0.088 C 
HETATM   11  C   UNL     1     -40.668  54.175 -51.092  1.00  0.00     0.071 C 
HETATM   12  C   UNL     1     -40.666  54.197 -52.611  1.00  0.00     0.238 C 
HETATM   13  N   UNL     1     -41.908  53.517 -53.145  1.00  0.00    -0.071 N 
HETATM   14  H   UNL     1     -41.876  52.527 -52.862  1.00  0.00     0.279 HD
HETATM   15  C   UNL     1     -43.178  54.109 -52.565  1.00  0.00     0.238 C 
HETATM   16  C   UNL     1     -43.126  54.086 -51.049  1.00  0.00     0.071 C 
BRANCH  13  17
HETATM   17  C   UNL     1     -41.985  53.542 -54.669  1.00  0.00     0.235 C 
BRANCH  17  18
HETATM   18  C   UNL     1     -42.915  54.650 -55.168  1.00  0.00     0.038 C 
BRANCH  18  19
HETATM   19  C   UNL     1     -42.124  55.857 -55.714  1.00  0.00     0.040 C 
HETATM   20  C   UNL     1     -42.133  57.006 -54.703  1.00  0.00     0.017 C 
BRANCH  19  21
HETATM   21  C   UNL     1     -42.667  56.286 -57.039  1.00  0.00     0.057 A 
HETATM   22  O   UNL     1     -43.255  55.299 -57.777  1.00  0.00    -0.319 OA
HETATM   23  C   UNL     1     -43.682  55.866 -58.940  1.00  0.00     0.049 A 
HETATM   24  C   UNL     1     -44.314  54.960 -59.920  1.00  0.00     0.076 C 
HETATM   25  C   UNL     1     -43.407  57.216 -58.936  1.00  0.00     0.035 A 
HETATM   26  C   UNL     1     -42.755  57.488 -57.710  1.00  0.00     0.035 A 
ENDBRANCH  19  21
ENDBRANCH  18  19
ENDBRANCH  17  18
ENDBRANCH  13  17
BRANCH  10  27
HETATM   27  O   UNL     1     -41.879  54.604 -49.091  1.00  0.00    -0.385 OA
HETATM   28  H   UNL     1     -41.403  55.319 -48.630  1.00  0.00     0.211 HD
ENDBRANCH  10  27
ENDBRANCH   1  10
BRANCH   6  29
HETATM   29  C   UNL     1     -44.076  61.901 -52.164  1.00  0.00     0.277 C 
HETATM   30  N   UNL     1     -43.875  62.414 -53.458  1.00  0.00    -0.345 N 
HETATM   31  C   UNL     1     -44.446  63.733 -53.754  1.00  0.00     0.154 C 
HETATM   32  C   UNL     1     -43.286  61.710 -54.588  1.00  0.00     0.128 C 
HETATM   33  C   UNL     1     -45.868  63.660 -54.322  1.00  0.00     0.254 C 
HETATM   34  N   UNL     1     -45.922  62.820 -55.603  1.00  0.00    -0.073 N 
HETATM   35  H   UNL     1     -45.166  63.135 -56.225  1.00  0.00     0.279 HD
HETATM   36  C   UNL     1     -47.204  63.098 -56.353  1.00  0.00     0.269 C 
HETATM   37  C   UNL     1     -45.753  61.339 -55.339  1.00  0.00     0.236 C 
HETATM   38  C   UNL     1     -44.297  60.886 -55.382  1.00  0.00     0.048 C 
HETATM   39  O   UNL     1     -44.734  62.571 -51.364  1.00  0.00    -0.265 OA
ENDBRANCH   6  29
TORSDOF 7
ENDMDL
MODEL 7
REMARK VINA RESULT:      -8.0      1.623      2.479
REMARK  7 active torsions:
REMARK  status: ('A' for Active; 'I' for Inactive)
REMARK    1  A    between atoms: C_4  and  C_5 
REMARK    2  A    between atoms: C_5  and  C_6 
REMARK    3  A    between atoms: C_6  and  C_7 
REMARK    4  A    between atoms: C_7  and  N_8 
REMARK    5  A    between atoms: C_12  and  O_13 
REMARK    6  A    between atoms: C_12  and  C_14 
REMARK    7  A    between atoms: C_19  and  C_20 
REMARK       I    between atoms: C_20  and  N_21 
ROOT
HETATM    1  C   UNL     1     -43.018  58.430 -52.829  1.00  0.00    -0.023 A 
HETATM    2  C   UNL     1     -44.002  57.910 -53.703  1.00  0.00     0.024 A 
HETATM    3  C   UNL     1     -43.987  58.236 -55.077  1.00  0.00     0.001 A 
HETATM    4  C   UNL     1     -42.979  59.057 -55.553  1.00  0.00     0.086 A 
HETATM    5  O   UNL     1     -43.118  59.255 -56.893  1.00  0.00    -0.304 OA
HETATM    6  C   UNL     1     -44.229  58.566 -57.299  1.00  0.00     0.144 A 
HETATM    7  C   UNL     1     -44.775  57.907 -56.207  1.00  0.00     0.057 A 
HETATM    8  C   UNL     1     -41.965  59.570 -54.756  1.00  0.00     0.039 A 
HETATM    9  C   UNL     1     -41.999  59.228 -53.393  1.00  0.00     0.013 A 
ENDROOT
BRANCH   1  10
HETATM   10  C   UNL     1     -42.998  58.051 -51.339  1.00  0.00     0.088 C 
HETATM   11  C   UNL     1     -41.625  57.617 -50.790  1.00  0.00     0.071 C 
HETATM   12  C   UNL     1     -41.177  56.276 -51.348  1.00  0.00     0.238 C 
HETATM   13  N   UNL     1     -42.198  55.208 -51.023  1.00  0.00    -0.071 N 
HETATM   14  H   UNL     1     -42.237  55.106 -49.999  1.00  0.00     0.279 HD
HETATM   15  C   UNL     1     -43.590  55.587 -51.490  1.00  0.00     0.238 C 
HETATM   16  C   UNL     1     -43.985  56.940 -50.927  1.00  0.00     0.071 C 
BRANCH  13  17
HETATM   17  C   UNL     1     -41.825  53.842 -51.594  1.00  0.00     0.235 C 
BRANCH  17  18
HETATM   18  C   UNL     1     -41.778  53.863 -53.122  1.00  0.00     0.038 C 
BRANCH  18  19
HETATM   19  C   UNL     1     -40.377  53.497 -53.656  1.00  0.00     0.040 C 
HETATM   20  C   UNL     1     -40.225  53.943 -55.112  1.00  0.00     0.017 C 
BRANCH  19  21
HETATM   21  C   UNL     1     -40.120  52.034 -53.499  1.00  0.00     0.057 A 
HETATM   22  O   UNL     1     -39.833  51.623 -52.229  1.00  0.00    -0.319 OA
HETATM   23  C   UNL     1     -39.626  50.278 -52.278  1.00  0.00     0.049 A 
HETATM   24  C   UNL     1     -39.251  49.624 -51.008  1.00  0.00     0.076 C 
HETATM   25  C   UNL     1     -39.817  49.816 -53.561  1.00  0.00     0.035 A 
HETATM   26  C   UNL     1     -40.138  50.948 -54.349  1.00  0.00     0.035 A 
ENDBRANCH  19  21
ENDBRANCH  18  19
ENDBRANCH  17  18
ENDBRANCH  13  17
BRANCH  10  27
HETATM   27  O   UNL     1     -43.375  59.214 -50.597  1.00  0.00    -0.385 OA
HETATM   28  H   UNL     1     -43.297  59.041 -49.640  1.00  0.00     0.211 HD
ENDBRANCH  10  27
ENDBRANCH   1  10
BRANCH   6  29
HETATM   29  C   UNL     1     -44.647  58.524 -58.691  1.00  0.00     0.277 C 
HETATM   30  N   UNL     1     -45.975  58.232 -59.048  1.00  0.00    -0.345 N 
HETATM   31  C   UNL     1     -46.291  58.185 -60.480  1.00  0.00     0.154 C 
HETATM   32  C   UNL     1     -47.112  58.116 -58.145  1.00  0.00     0.128 C 
HETATM   33  C   UNL     1     -46.748  59.537 -61.041  1.00  0.00     0.254 C 
HETATM   34  N   UNL     1     -47.980  60.068 -60.300  1.00  0.00    -0.073 N 
HETATM   35  H   UNL     1     -48.670  59.309 -60.240  1.00  0.00     0.279 HD
HETATM   36  C   UNL     1     -48.644  61.157 -61.111  1.00  0.00     0.269 C 
HETATM   37  C   UNL     1     -47.658  60.549 -58.900  1.00  0.00     0.236 C 
HETATM   38  C   UNL     1     -47.788  59.452 -57.848  1.00  0.00     0.048 C 
HETATM   39  O   UNL     1     -43.833  58.745 -59.591  1.00  0.00    -0.265 OA
ENDBRANCH   6  29
TORSDOF 7
ENDMDL
MODEL 8
REMARK VINA RESULT:      -7.9      2.657      8.508
REMARK  7 active torsions:
REMARK  status: ('A' for Active; 'I' for Inactive)
REMARK    1  A    between atoms: C_4  and  C_5 
REMARK    2  A    between atoms: C_5  and  C_6 
REMARK    3  A    between atoms: C_6  and  C_7 
REMARK    4  A    between atoms: C_7  and  N_8 
REMARK    5  A    between atoms: C_12  and  O_13 
REMARK    6  A    between atoms: C_12  and  C_14 
REMARK    7  A    between atoms: C_19  and  C_20 
REMARK       I    between atoms: C_20  and  N_21 
ROOT
HETATM    1  C   UNL     1     -43.347  60.772 -56.050  1.00  0.00    -0.023 A 
HETATM    2  C   UNL     1     -42.151  60.485 -55.350  1.00  0.00     0.024 A 
HETATM    3  C   UNL     1     -42.169  59.662 -54.204  1.00  0.00     0.001 A 
HETATM    4  C   UNL     1     -43.377  59.125 -53.790  1.00  0.00     0.086 A 
HETATM    5  O   UNL     1     -43.202  58.356 -52.680  1.00  0.00    -0.304 OA
HETATM    6  C   UNL     1     -41.873  58.393 -52.357  1.00  0.00     0.144 A 
HETATM    7  C   UNL     1     -41.203  59.171 -53.291  1.00  0.00     0.057 A 
HETATM    8  C   UNL     1     -44.578  59.338 -54.452  1.00  0.00     0.039 A 
HETATM    9  C   UNL     1     -44.534  60.158 -55.593  1.00  0.00     0.013 A 
ENDROOT
BRANCH   1  10
HETATM   10  C   UNL     1     -43.337  61.633 -57.324  1.00  0.00     0.088 C 
HETATM   11  C   UNL     1     -44.616  61.555 -58.180  1.00  0.00     0.071 C 
HETATM   12  C   UNL     1     -44.782  60.201 -58.849  1.00  0.00     0.238 C 
HETATM   13  N   UNL     1     -43.585  59.900 -59.723  1.00  0.00    -0.071 N 
HETATM   14  H   UNL     1     -43.556  60.603 -60.477  1.00  0.00     0.279 HD
HETATM   15  C   UNL     1     -42.279  60.006 -58.960  1.00  0.00     0.238 C 
HETATM   16  C   UNL     1     -42.167  61.363 -58.292  1.00  0.00     0.071 C 
BRANCH  13  17
HETATM   17  C   UNL     1     -43.673  58.531 -60.394  1.00  0.00     0.235 C 
BRANCH  17  18
HETATM   18  C   UNL     1     -42.428  57.687 -60.116  1.00  0.00     0.038 C 
BRANCH  18  19
HETATM   19  C   UNL     1     -42.795  56.262 -59.652  1.00  0.00     0.040 C 
HETATM   20  C   UNL     1     -44.141  55.836 -60.243  1.00  0.00     0.017 C 
BRANCH  19  21
HETATM   21  C   UNL     1     -42.799  56.179 -58.160  1.00  0.00     0.057 A 
HETATM   22  O   UNL     1     -43.044  54.939 -57.644  1.00  0.00    -0.319 OA
HETATM   23  C   UNL     1     -43.012  55.053 -56.287  1.00  0.00     0.049 A 
HETATM   24  C   UNL     1     -43.302  53.827 -55.517  1.00  0.00     0.076 C 
HETATM   25  C   UNL     1     -42.711  56.349 -55.929  1.00  0.00     0.035 A 
HETATM   26  C   UNL     1     -42.571  57.075 -57.137  1.00  0.00     0.035 A 
ENDBRANCH  19  21
ENDBRANCH  18  19
ENDBRANCH  17  18
ENDBRANCH  13  17
BRANCH  10  27
HETATM   27  O   UNL     1     -43.211  62.998 -56.916  1.00  0.00    -0.385 OA
HETATM   28  H   UNL     1     -44.033  63.296 -56.486  1.00  0.00     0.211 HD
ENDBRANCH  10  27
ENDBRANCH   1  10
BRANCH   6  29
HETATM   29  C   UNL     1     -41.327  57.638 -51.241  1.00  0.00     0.277 C 
HETATM   30  N   UNL     1     -41.982  56.501 -50.736  1.00  0.00    -0.345 N 
HETATM   31  C   UNL     1     -41.365  55.824 -49.589  1.00  0.00     0.154 C 
HETATM   32  C   UNL     1     -43.134  55.831 -51.321  1.00  0.00     0.128 C 
HETATM   33  C   UNL     1     -40.387  54.717 -49.998  1.00  0.00     0.254 C 
HETATM   34  N   UNL     1     -41.070  53.654 -50.866  1.00  0.00    -0.073 N 
HETATM   35  H   UNL     1     -41.948  53.381 -50.408  1.00  0.00     0.279 HD
HETATM   36  C   UNL     1     -40.228  52.399 -50.907  1.00  0.00     0.269 C 
HETATM   37  C   UNL     1     -41.380  54.150 -52.263  1.00  0.00     0.236 C 
HETATM   38  C   UNL     1     -42.759  54.792 -52.376  1.00  0.00     0.048 C 
HETATM   39  O   UNL     1     -40.269  57.987 -50.713  1.00  0.00    -0.265 OA
ENDBRANCH   6  29
TORSDOF 7
ENDMDL
MODEL 9
REMARK VINA RESULT:      -7.9      2.434      8.884
REMARK  7 active torsions:
REMARK  status: ('A' for Active; 'I' for Inactive)
REMARK    1  A    between atoms: C_4  and  C_5 
REMARK    2  A    between atoms: C_5  and  C_6 
REMARK    3  A    between atoms: C_6  and  C_7 
REMARK    4  A    between atoms: C_7  and  N_8 
REMARK    5  A    between atoms: C_12  and  O_13 
REMARK    6  A    between atoms: C_12  and  C_14 
REMARK    7  A    between atoms: C_19  and  C_20 
REMARK       I    between atoms: C_20  and  N_21 
ROOT
HETATM    1  C   UNL     1     -44.215  60.502 -52.951  1.00  0.00    -0.023 A 
HETATM    2  C   UNL     1     -42.951  59.867 -52.952  1.00  0.00     0.024 A 
HETATM    3  C   UNL     1     -42.754  58.657 -52.252  1.00  0.00     0.001 A 
HETATM    4  C   UNL     1     -43.828  58.095 -51.582  1.00  0.00     0.086 A 
HETATM    5  O   UNL     1     -43.457  56.935 -50.975  1.00  0.00    -0.304 OA
HETATM    6  C   UNL     1     -42.129  56.736 -51.240  1.00  0.00     0.144 A 
HETATM    7  C   UNL     1     -41.671  57.768 -52.046  1.00  0.00     0.057 A 
HETATM    8  C   UNL     1     -45.101  58.648 -51.571  1.00  0.00     0.039 A 
HETATM    9  C   UNL     1     -45.273  59.850 -52.279  1.00  0.00     0.013 A 
ENDROOT
BRANCH   1  10
HETATM   10  C   UNL     1     -44.456  61.798 -53.742  1.00  0.00     0.088 C 
HETATM   11  C   UNL     1     -45.728  61.811 -54.612  1.00  0.00     0.071 C 
HETATM   12  C   UNL     1     -45.627  60.863 -55.796  1.00  0.00     0.238 C 
HETATM   13  N   UNL     1     -44.438  61.227 -56.657  1.00  0.00    -0.071 N 
HETATM   14  H   UNL     1     -44.599  62.169 -57.043  1.00  0.00     0.279 HD
HETATM   15  C   UNL     1     -43.150  61.284 -55.858  1.00  0.00     0.238 C 
HETATM   16  C   UNL     1     -43.304  62.223 -54.676  1.00  0.00     0.071 C 
BRANCH  13  17
HETATM   17  C   UNL     1     -44.257  60.285 -57.845  1.00  0.00     0.235 C 
BRANCH  17  18
HETATM   18  C   UNL     1     -43.189  59.226 -57.567  1.00  0.00     0.038 C 
BRANCH  18  19
HETATM   19  C   UNL     1     -43.805  57.922 -57.017  1.00  0.00     0.040 C 
HETATM   20  C   UNL     1     -42.986  57.398 -55.836  1.00  0.00     0.017 C 
BRANCH  19  21
HETATM   21  C   UNL     1     -43.924  56.900 -58.101  1.00  0.00     0.057 A 
HETATM   22  O   UNL     1     -45.044  56.997 -58.876  1.00  0.00    -0.319 OA
HETATM   23  C   UNL     1     -44.986  55.995 -59.796  1.00  0.00     0.049 A 
HETATM   24  C   UNL     1     -46.133  55.882 -60.719  1.00  0.00     0.076 C 
HETATM   25  C   UNL     1     -43.820  55.278 -59.641  1.00  0.00     0.035 A 
HETATM   26  C   UNL     1     -43.133  55.863 -58.549  1.00  0.00     0.035 A 
ENDBRANCH  19  21
ENDBRANCH  18  19
ENDBRANCH  17  18
ENDBRANCH  13  17
BRANCH  10  27
HETATM   27  O   UNL     1     -44.610  62.857 -52.793  1.00  0.00    -0.385 OA
HETATM   28  H   UNL     1     -44.978  62.508 -51.960  1.00  0.00     0.211 HD
ENDBRANCH  10  27
ENDBRANCH   1  10
BRANCH   6  29
HETATM   29  C   UNL     1     -41.416  55.556 -50.777  1.00  0.00     0.277 C 
HETATM   30  N   UNL     1     -41.823  54.262 -51.146  1.00  0.00    -0.345 N 
HETATM   31  C   UNL     1     -41.054  53.136 -50.604  1.00  0.00     0.154 C 
HETATM   32  C   UNL     1     -42.838  53.919 -52.132  1.00  0.00     0.128 C 
HETATM   33  C   UNL     1     -39.891  52.709 -51.507  1.00  0.00     0.254 C 
HETATM   34  N   UNL     1     -40.378  52.322 -52.908  1.00  0.00    -0.073 N 
HETATM   35  H   UNL     1     -41.173  51.679 -52.805  1.00  0.00     0.279 HD
HETATM   36  C   UNL     1     -39.310  51.531 -53.628  1.00  0.00     0.269 C 
HETATM   37  C   UNL     1     -40.817  53.518 -53.726  1.00  0.00     0.236 C 
HETATM   38  C   UNL     1     -42.297  53.845 -53.558  1.00  0.00     0.048 C 
HETATM   39  O   UNL     1     -40.431  55.674 -50.044  1.00  0.00    -0.265 OA
ENDBRANCH   6  29
TORSDOF 7
ENDMDL
MODEL 10
REMARK VINA RESULT:      -7.9     16.529     20.309
REMARK  7 active torsions:
REMARK  status: ('A' for Active; 'I' for Inactive)
REMARK    1  A    between atoms: C_4  and  C_5 
REMARK    2  A    between atoms: C_5  and  C_6 
REMARK    3  A    between atoms: C_6  and  C_7 
REMARK    4  A    between atoms: C_7  and  N_8 
REMARK    5  A    between atoms: C_12  and  O_13 
REMARK    6  A    between atoms: C_12  and  C_14 
REMARK    7  A    between atoms: C_19  and  C_20 
REMARK       I    between atoms: C_20  and  N_21 
ROOT
HETATM    1  C   UNL     1     -36.391  41.342 -54.346  1.00  0.00    -0.023 A 
HETATM    2  C   UNL     1     -37.025  40.272 -53.670  1.00  0.00     0.024 A 
HETATM    3  C   UNL     1     -36.801  40.060 -52.293  1.00  0.00     0.001 A 
HETATM    4  C   UNL     1     -35.965  40.930 -51.614  1.00  0.00     0.086 A 
HETATM    5  O   UNL     1     -35.873  40.578 -50.302  1.00  0.00    -0.304 OA
HETATM    6  C   UNL     1     -36.648  39.465 -50.119  1.00  0.00     0.144 A 
HETATM    7  C   UNL     1     -37.254  39.133 -51.322  1.00  0.00     0.057 A 
HETATM    8  C   UNL     1     -35.341  42.017 -52.210  1.00  0.00     0.039 A 
HETATM    9  C   UNL     1     -35.583  42.211 -53.581  1.00  0.00     0.013 A 
ENDROOT
BRANCH   1  10
HETATM   10  C   UNL     1     -36.658  41.611 -55.836  1.00  0.00     0.088 C 
HETATM   11  C   UNL     1     -37.237  40.421 -56.626  1.00  0.00     0.071 C 
HETATM   12  C   UNL     1     -36.229  39.297 -56.798  1.00  0.00     0.238 C 
HETATM   13  N   UNL     1     -34.995  39.805 -57.509  1.00  0.00    -0.071 N 
HETATM   14  H   UNL     1     -35.272  40.104 -58.456  1.00  0.00     0.279 HD
HETATM   15  C   UNL     1     -34.393  41.013 -56.816  1.00  0.00     0.238 C 
HETATM   16  C   UNL     1     -35.439  42.099 -56.646  1.00  0.00     0.071 C 
BRANCH  13  17
HETATM   17  C   UNL     1     -33.924  38.730 -57.677  1.00  0.00     0.235 C 
BRANCH  17  18
HETATM   18  C   UNL     1     -32.622  39.117 -56.973  1.00  0.00     0.038 C 
BRANCH  18  19
HETATM   19  C   UNL     1     -32.168  38.032 -55.974  1.00  0.00     0.040 C 
HETATM   20  C   UNL     1     -32.687  36.658 -56.402  1.00  0.00     0.017 C 
BRANCH  19  21
HETATM   21  C   UNL     1     -32.605  38.378 -54.588  1.00  0.00     0.057 A 
HETATM   22  O   UNL     1     -31.988  39.463 -54.034  1.00  0.00    -0.319 OA
HETATM   23  C   UNL     1     -32.503  39.625 -52.783  1.00  0.00     0.049 A 
HETATM   24  C   UNL     1     -31.938  40.725 -51.976  1.00  0.00     0.076 C 
HETATM   25  C   UNL     1     -33.472  38.675 -52.545  1.00  0.00     0.035 A 
HETATM   26  C   UNL     1     -33.540  37.873 -53.709  1.00  0.00     0.035 A 
ENDBRANCH  19  21
ENDBRANCH  18  19
ENDBRANCH  17  18
ENDBRANCH  13  17
BRANCH  10  27
HETATM   27  O   UNL     1     -37.632  42.655 -55.915  1.00  0.00    -0.385 OA
HETATM   28  H   UNL     1     -37.278  43.474 -55.522  1.00  0.00     0.211 HD
ENDBRANCH  10  27
ENDBRANCH   1  10
BRANCH   6  29
HETATM   29  C   UNL     1     -36.815  38.845 -48.814  1.00  0.00     0.277 C 
HETATM   30  N   UNL     1     -36.109  37.682 -48.459  1.00  0.00    -0.345 N 
HETATM   31  C   UNL     1     -36.368  37.118 -47.129  1.00  0.00     0.154 C 
HETATM   32  C   UNL     1     -35.033  37.056 -49.214  1.00  0.00     0.128 C 
HETATM   33  C   UNL     1     -35.427  37.664 -46.049  1.00  0.00     0.254 C 
HETATM   34  N   UNL     1     -33.957  37.405 -46.398  1.00  0.00    -0.073 N 
HETATM   35  H   UNL     1     -33.862  36.418 -46.672  1.00  0.00     0.279 HD
HETATM   36  C   UNL     1     -33.095  37.568 -45.167  1.00  0.00     0.269 C 
HETATM   37  C   UNL     1     -33.462  38.278 -47.532  1.00  0.00     0.236 C 
HETATM   38  C   UNL     1     -33.657  37.641 -48.904  1.00  0.00     0.048 C 
HETATM   39  O   UNL     1     -37.589  39.336 -47.987  1.00  0.00    -0.265 OA
ENDBRANCH   6  29
TORSDOF 7
ENDMDL
