MODEL 1
REMARK VINA RESULT:      -7.4      0.000      0.000
REMARK  6 active torsions:
REMARK  status: ('A' for Active; 'I' for Inactive)
REMARK    1  A    between atoms: O_2  and  C_3 
REMARK    2  A    between atoms: C_3  and  C_4 
REMARK    3  A    between atoms: C_4  and  N_5 
REMARK       I    between atoms: N_5  and  C_6 
REMARK    4  A    between atoms: C_6  and  C_7 
REMARK    5  A    between atoms: C_12  and  C_13 
REMARK    6  A    between atoms: C_21  and  C_22 
ROOT
HETATM    1  C   UNL     1     -43.349  56.029 -56.751  1.00  0.00     0.170 A 
HETATM    2  N   UNL     1     -42.633  55.064 -56.120  1.00  0.00    -0.163 NA
HETATM    3  N   UNL     1     -42.882  55.280 -54.818  1.00  0.00    -0.238 N 
HETATM    4  C   UNL     1     -43.763  56.299 -54.581  1.00  0.00     0.145 A 
HETATM    5  N   UNL     1     -44.147  56.619 -53.319  1.00  0.00    -0.365 N 
HETATM    6  C   UNL     1     -43.448  56.090 -52.152  1.00  0.00     0.118 C 
HETATM    7  C   UNL     1     -43.024  54.636 -52.444  1.00  0.00     0.066 C 
HETATM    8  C   UNL     1     -42.285  54.453 -53.785  1.00  0.00     0.221 C 
HETATM    9  C   UNL     1     -44.081  56.812 -55.817  1.00  0.00     0.115 A 
HETATM   10 CL   UNL     1     -45.118  58.118 -56.131  1.00  0.00    -0.077 Cl
HETATM   11  H   UNL     1     -44.702  57.459 -53.155  1.00  0.00     0.162 HD
ENDROOT
BRANCH   1  12
HETATM   12  C   UNL     1     -43.294  56.174 -58.214  1.00  0.00     0.273 C 
HETATM   13  N   UNL     1     -44.133  55.307 -58.882  1.00  0.00    -0.353 N 
HETATM   14  H   UNL     1     -44.564  54.585 -58.310  1.00  0.00     0.162 HD
HETATM   15  O   UNL     1     -42.556  56.965 -58.796  1.00  0.00    -0.266 OA
BRANCH  13  16
HETATM   16  C   UNL     1     -44.080  55.133 -60.319  1.00  0.00     0.149 C 
BRANCH  16  17
HETATM   17  C   UNL     1     -45.467  55.186 -60.964  1.00  0.00     0.186 C 
BRANCH  17  18
HETATM   18  O   UNL     1     -46.272  56.143 -60.264  1.00  0.00    -0.394 OA
HETATM   19  C   UNL     1     -47.418  56.511 -61.022  1.00  0.00     0.201 C 
ENDBRANCH  17  18
ENDBRANCH  16  17
ENDBRANCH  13  16
ENDBRANCH   1  12
BRANCH   8  20
HETATM   20  C   UNL     1     -40.795  54.707 -53.700  1.00  0.00     0.409 C 
HETATM   21  F   UNL     1     -40.446  55.982 -53.947  1.00  0.00    -0.169 F 
HETATM   22  F   UNL     1     -40.343  54.401 -52.456  1.00  0.00    -0.169 F 
HETATM   23  F   UNL     1     -40.100  53.923 -54.556  1.00  0.00    -0.169 F 
ENDBRANCH   8  20
BRANCH   6  24
HETATM   24  C   UNL     1     -42.337  57.004 -51.655  1.00  0.00    -0.035 A 
HETATM   25  C   UNL     1     -41.500  56.670 -50.574  1.00  0.00     0.011 A 
HETATM   26  C   UNL     1     -40.489  57.535 -50.147  1.00  0.00     0.024 A 
HETATM   27  C   UNL     1     -40.292  58.746 -50.801  1.00  0.00     0.034 A 
HETATM   28 CL   UNL     1     -39.052  59.815 -50.272  1.00  0.00    -0.084 Cl
HETATM   29  C   UNL     1     -41.092  59.093 -51.885  1.00  0.00     0.024 A 
HETATM   30  C   UNL     1     -42.102  58.226 -52.312  1.00  0.00     0.011 A 
ENDBRANCH   6  24
TORSDOF 6
ENDMDL
MODEL 2
REMARK VINA RESULT:      -7.4      1.580      2.221
REMARK  6 active torsions:
REMARK  status: ('A' for Active; 'I' for Inactive)
REMARK    1  A    between atoms: O_2  and  C_3 
REMARK    2  A    between atoms: C_3  and  C_4 
REMARK    3  A    between atoms: C_4  and  N_5 
REMARK       I    between atoms: N_5  and  C_6 
REMARK    4  A    between atoms: C_6  and  C_7 
REMARK    5  A    between atoms: C_12  and  C_13 
REMARK    6  A    between atoms: C_21  and  C_22 
ROOT
HETATM    1  C   UNL     1     -43.090  56.039 -57.118  1.00  0.00     0.170 A 
HETATM    2  N   UNL     1     -42.412  55.065 -56.460  1.00  0.00    -0.163 NA
HETATM    3  N   UNL     1     -42.737  55.262 -55.172  1.00  0.00    -0.238 N 
HETATM    4  C   UNL     1     -43.631  56.277 -54.971  1.00  0.00     0.145 A 
HETATM    5  N   UNL     1     -44.089  56.578 -53.730  1.00  0.00    -0.365 N 
HETATM    6  C   UNL     1     -43.459  56.031 -52.532  1.00  0.00     0.118 C 
HETATM    7  C   UNL     1     -43.017  54.582 -52.820  1.00  0.00     0.066 C 
HETATM    8  C   UNL     1     -42.201  54.419 -54.119  1.00  0.00     0.221 C 
HETATM    9  C   UNL     1     -43.876  56.808 -56.216  1.00  0.00     0.115 A 
HETATM   10 CL   UNL     1     -44.894  58.119 -56.571  1.00  0.00    -0.077 Cl
HETATM   11  H   UNL     1     -44.653  57.416 -53.587  1.00  0.00     0.162 HD
ENDROOT
BRANCH   1  12
HETATM   12  C   UNL     1     -42.949  56.206 -58.573  1.00  0.00     0.273 C 
HETATM   13  N   UNL     1     -42.047  57.187 -58.926  1.00  0.00    -0.353 N 
HETATM   14  H   UNL     1     -41.708  57.768 -58.162  1.00  0.00     0.162 HD
HETATM   15  O   UNL     1     -43.589  55.563 -59.400  1.00  0.00    -0.266 OA
BRANCH  13  16
HETATM   16  C   UNL     1     -41.913  57.661 -60.288  1.00  0.00     0.149 C 
BRANCH  16  17
HETATM   17  C   UNL     1     -42.037  59.183 -60.390  1.00  0.00     0.186 C 
BRANCH  17  18
HETATM   18  O   UNL     1     -42.474  59.703 -59.129  1.00  0.00    -0.394 OA
HETATM   19  C   UNL     1     -41.699  60.828 -58.733  1.00  0.00     0.201 C 
ENDBRANCH  17  18
ENDBRANCH  16  17
ENDBRANCH  13  16
ENDBRANCH   1  12
BRANCH   8  20
HETATM   20  C   UNL     1     -40.719  54.672 -53.942  1.00  0.00     0.409 C 
HETATM   21  F   UNL     1     -40.347  55.937 -54.210  1.00  0.00    -0.169 F 
HETATM   22  F   UNL     1     -40.353  54.409 -52.661  1.00  0.00    -0.169 F 
HETATM   23  F   UNL     1     -39.972  53.856 -54.721  1.00  0.00    -0.169 F 
ENDBRANCH   8  20
BRANCH   6  24
HETATM   24  C   UNL     1     -42.380  56.938 -51.957  1.00  0.00    -0.035 A 
HETATM   25  C   UNL     1     -41.672  56.630 -50.780  1.00  0.00     0.011 A 
HETATM   26  C   UNL     1     -40.686  57.488 -50.283  1.00  0.00     0.024 A 
HETATM   27  C   UNL     1     -40.385  58.664 -50.962  1.00  0.00     0.034 A 
HETATM   28 CL   UNL     1     -39.177  59.722 -50.348  1.00  0.00    -0.084 Cl
HETATM   29  C   UNL     1     -41.055  58.983 -52.138  1.00  0.00     0.024 A 
HETATM   30  C   UNL     1     -42.040  58.123 -52.635  1.00  0.00     0.011 A 
ENDBRANCH   6  24
TORSDOF 6
ENDMDL
MODEL 3
REMARK VINA RESULT:      -7.2      4.660      7.479
REMARK  6 active torsions:
REMARK  status: ('A' for Active; 'I' for Inactive)
REMARK    1  A    between atoms: O_2  and  C_3 
REMARK    2  A    between atoms: C_3  and  C_4 
REMARK    3  A    between atoms: C_4  and  N_5 
REMARK       I    between atoms: N_5  and  C_6 
REMARK    4  A    between atoms: C_6  and  C_7 
REMARK    5  A    between atoms: C_12  and  C_13 
REMARK    6  A    between atoms: C_21  and  C_22 
ROOT
HETATM    1  C   UNL     1     -43.911  59.936 -51.312  1.00  0.00     0.170 A 
HETATM    2  N   UNL     1     -42.864  59.891 -52.174  1.00  0.00    -0.163 NA
HETATM    3  N   UNL     1     -43.013  58.710 -52.797  1.00  0.00    -0.238 N 
HETATM    4  C   UNL     1     -44.129  58.017 -52.420  1.00  0.00     0.145 A 
HETATM    5  N   UNL     1     -44.441  56.823 -52.983  1.00  0.00    -0.365 N 
HETATM    6  C   UNL     1     -43.481  56.094 -53.806  1.00  0.00     0.118 C 
HETATM    7  C   UNL     1     -42.668  57.107 -54.636  1.00  0.00     0.066 C 
HETATM    8  C   UNL     1     -42.072  58.265 -53.810  1.00  0.00     0.221 C 
HETATM    9  C   UNL     1     -44.733  58.783 -51.450  1.00  0.00     0.115 A 
HETATM   10 CL   UNL     1     -46.151  58.401 -50.599  1.00  0.00    -0.077 Cl
HETATM   11  H   UNL     1     -45.204  56.265 -52.599  1.00  0.00     0.162 HD
ENDROOT
BRANCH   1  12
HETATM   12  C   UNL     1     -44.077  61.065 -50.384  1.00  0.00     0.273 C 
HETATM   13  N   UNL     1     -44.365  60.675 -49.093  1.00  0.00    -0.353 N 
HETATM   14  H   UNL     1     -44.575  59.687 -48.970  1.00  0.00     0.162 HD
HETATM   15  O   UNL     1     -43.998  62.244 -50.719  1.00  0.00    -0.266 OA
BRANCH  13  16
HETATM   16  C   UNL     1     -44.775  61.618 -48.073  1.00  0.00     0.149 C 
BRANCH  16  17
HETATM   17  C   UNL     1     -45.289  60.923 -46.810  1.00  0.00     0.186 C 
BRANCH  17  18
HETATM   18  O   UNL     1     -46.274  59.950 -47.178  1.00  0.00    -0.394 OA
HETATM   19  C   UNL     1     -46.668  59.162 -46.061  1.00  0.00     0.201 C 
ENDBRANCH  17  18
ENDBRANCH  16  17
ENDBRANCH  13  16
ENDBRANCH   1  12
BRANCH   8  20
HETATM   20  C   UNL     1     -40.734  57.940 -53.182  1.00  0.00     0.409 C 
HETATM   21  F   UNL     1     -40.819  57.516 -51.908  1.00  0.00    -0.169 F 
HETATM   22  F   UNL     1     -40.115  56.959 -53.889  1.00  0.00    -0.169 F 
HETATM   23  F   UNL     1     -39.896  59.002 -53.201  1.00  0.00    -0.169 F 
ENDBRANCH   8  20
BRANCH   6  24
HETATM   24  C   UNL     1     -42.654  55.090 -53.013  1.00  0.00    -0.035 A 
HETATM   25  C   UNL     1     -42.819  54.888 -51.631  1.00  0.00     0.011 A 
HETATM   26  C   UNL     1     -42.042  53.956 -50.937  1.00  0.00     0.024 A 
HETATM   27  C   UNL     1     -41.093  53.203 -51.619  1.00  0.00     0.034 A 
HETATM   28 CL   UNL     1     -40.131  52.060 -50.766  1.00  0.00    -0.084 Cl
HETATM   29  C   UNL     1     -40.922  53.368 -52.989  1.00  0.00     0.024 A 
HETATM   30  C   UNL     1     -41.702  54.300 -53.682  1.00  0.00     0.011 A 
ENDBRANCH   6  24
TORSDOF 6
ENDMDL
MODEL 4
REMARK VINA RESULT:      -7.1     16.718     19.234
REMARK  6 active torsions:
REMARK  status: ('A' for Active; 'I' for Inactive)
REMARK    1  A    between atoms: O_2  and  C_3 
REMARK    2  A    between atoms: C_3  and  C_4 
REMARK    3  A    between atoms: C_4  and  N_5 
REMARK       I    between atoms: N_5  and  C_6 
REMARK    4  A    between atoms: C_6  and  C_7 
REMARK    5  A    between atoms: C_12  and  C_13 
REMARK    6  A    between atoms: C_21  and  C_22 
ROOT
HETATM    1  C   UNL     1     -35.629  39.723 -52.419  1.00  0.00     0.170 A 
HETATM    2  N   UNL     1     -34.622  40.111 -53.241  1.00  0.00    -0.163 NA
HETATM    3  N   UNL     1     -35.228  40.910 -54.135  1.00  0.00    -0.238 N 
HETATM    4  C   UNL     1     -36.561  41.098 -53.901  1.00  0.00     0.145 A 
HETATM    5  N   UNL     1     -37.309  41.908 -54.693  1.00  0.00    -0.365 N 
HETATM    6  C   UNL     1     -36.808  42.395 -55.974  1.00  0.00     0.118 C 
HETATM    7  C   UNL     1     -35.300  42.689 -55.838  1.00  0.00     0.066 C 
HETATM    8  C   UNL     1     -34.487  41.536 -55.216  1.00  0.00     0.221 C 
HETATM    9  C   UNL     1     -36.857  40.335 -52.795  1.00  0.00     0.115 A 
HETATM   10 CL   UNL     1     -38.379  40.162 -52.065  1.00  0.00    -0.077 Cl
HETATM   11  H   UNL     1     -38.322  41.934 -54.578  1.00  0.00     0.162 HD
ENDROOT
BRANCH   1  12
HETATM   12  C   UNL     1     -35.384  38.775 -51.322  1.00  0.00     0.273 C 
HETATM   13  N   UNL     1     -34.580  39.286 -50.325  1.00  0.00    -0.353 N 
HETATM   14  H   UNL     1     -34.138  40.179 -50.533  1.00  0.00     0.162 HD
HETATM   15  O   UNL     1     -35.822  37.628 -51.298  1.00  0.00    -0.266 OA
BRANCH  13  16
HETATM   16  C   UNL     1     -34.041  38.460 -49.264  1.00  0.00     0.149 C 
BRANCH  16  17
HETATM   17  C   UNL     1     -32.646  37.925 -49.595  1.00  0.00     0.186 C 
BRANCH  17  18
HETATM   18  O   UNL     1     -31.720  39.017 -49.622  1.00  0.00    -0.394 OA
HETATM   19  C   UNL     1     -31.561  39.597 -48.333  1.00  0.00     0.201 C 
ENDBRANCH  17  18
ENDBRANCH  16  17
ENDBRANCH  13  16
ENDBRANCH   1  12
BRANCH   8  20
HETATM   20  C   UNL     1     -34.037  40.496 -56.219  1.00  0.00     0.409 C 
HETATM   21  F   UNL     1     -34.863  39.440 -56.317  1.00  0.00    -0.169 F 
HETATM   22  F   UNL     1     -33.949  41.052 -57.456  1.00  0.00    -0.169 F 
HETATM   23  F   UNL     1     -32.803  40.020 -55.934  1.00  0.00    -0.169 F 
ENDBRANCH   8  20
BRANCH   6  24
HETATM   24  C   UNL     1     -37.194  41.502 -57.145  1.00  0.00    -0.035 A 
HETATM   25  C   UNL     1     -37.885  40.287 -56.984  1.00  0.00     0.011 A 
HETATM   26  C   UNL     1     -38.223  39.494 -58.085  1.00  0.00     0.024 A 
HETATM   27  C   UNL     1     -37.884  39.911 -59.368  1.00  0.00     0.034 A 
HETATM   28 CL   UNL     1     -38.294  38.934 -60.723  1.00  0.00    -0.084 Cl
HETATM   29  C   UNL     1     -37.219  41.118 -59.558  1.00  0.00     0.024 A 
HETATM   30  C   UNL     1     -36.882  41.909 -58.455  1.00  0.00     0.011 A 
ENDBRANCH   6  24
TORSDOF 6
ENDMDL
MODEL 5
REMARK VINA RESULT:      -7.0      4.130      5.981
REMARK  6 active torsions:
REMARK  status: ('A' for Active; 'I' for Inactive)
REMARK    1  A    between atoms: O_2  and  C_3 
REMARK    2  A    between atoms: C_3  and  C_4 
REMARK    3  A    between atoms: C_4  and  N_5 
REMARK       I    between atoms: N_5  and  C_6 
REMARK    4  A    between atoms: C_6  and  C_7 
REMARK    5  A    between atoms: C_12  and  C_13 
REMARK    6  A    between atoms: C_21  and  C_22 
ROOT
HETATM    1  C   UNL     1     -41.553  54.528 -53.622  1.00  0.00     0.170 A 
HETATM    2  N   UNL     1     -41.372  55.196 -52.455  1.00  0.00    -0.163 NA
HETATM    3  N   UNL     1     -42.461  55.976 -52.360  1.00  0.00    -0.238 N 
HETATM    4  C   UNL     1     -43.360  55.806 -53.376  1.00  0.00     0.145 A 
HETATM    5  N   UNL     1     -44.529  56.494 -53.405  1.00  0.00    -0.365 N 
HETATM    6  C   UNL     1     -44.767  57.632 -52.523  1.00  0.00     0.118 C 
HETATM    7  C   UNL     1     -44.120  57.341 -51.153  1.00  0.00     0.066 C 
HETATM    8  C   UNL     1     -42.652  56.875 -51.236  1.00  0.00     0.221 C 
HETATM    9  C   UNL     1     -42.797  54.876 -54.219  1.00  0.00     0.115 A 
HETATM   10 CL   UNL     1     -43.461  54.296 -55.669  1.00  0.00    -0.077 Cl
HETATM   11  H   UNL     1     -45.124  56.448 -54.233  1.00  0.00     0.162 HD
ENDROOT
BRANCH   1  12
HETATM   12  C   UNL     1     -40.531  53.600 -54.127  1.00  0.00     0.273 C 
HETATM   13  N   UNL     1     -40.481  52.409 -53.434  1.00  0.00    -0.353 N 
HETATM   14  H   UNL     1     -41.037  52.374 -52.582  1.00  0.00     0.162 HD
HETATM   15  O   UNL     1     -39.769  53.860 -55.055  1.00  0.00    -0.266 OA
BRANCH  13  16
HETATM   16  C   UNL     1     -39.416  51.446 -53.624  1.00  0.00     0.149 C 
BRANCH  16  17
HETATM   17  C   UNL     1     -39.939  50.075 -54.056  1.00  0.00     0.186 C 
BRANCH  17  18
HETATM   18  O   UNL     1     -39.443  49.079 -53.154  1.00  0.00    -0.394 OA
HETATM   19  C   UNL     1     -39.607  49.476 -51.798  1.00  0.00     0.201 C 
ENDBRANCH  17  18
ENDBRANCH  16  17
ENDBRANCH  13  16
ENDBRANCH   1  12
BRANCH   8  20
HETATM   20  C   UNL     1     -41.655  58.012 -51.292  1.00  0.00     0.409 C 
HETATM   21  F   UNL     1     -41.302  58.365 -52.541  1.00  0.00    -0.169 F 
HETATM   22  F   UNL     1     -42.175  59.116 -50.696  1.00  0.00    -0.169 F 
HETATM   23  F   UNL     1     -40.519  57.721 -50.618  1.00  0.00    -0.169 F 
ENDBRANCH   8  20
BRANCH   6  24
HETATM   24  C   UNL     1     -44.388  58.966 -53.151  1.00  0.00    -0.035 A 
HETATM   25  C   UNL     1     -43.838  59.073 -54.441  1.00  0.00     0.011 A 
HETATM   26  C   UNL     1     -43.504  60.318 -54.985  1.00  0.00     0.024 A 
HETATM   27  C   UNL     1     -43.726  61.476 -54.249  1.00  0.00     0.034 A 
HETATM   28 CL   UNL     1     -43.310  63.007 -54.914  1.00  0.00    -0.084 Cl
HETATM   29  C   UNL     1     -44.287  61.401 -52.979  1.00  0.00     0.024 A 
HETATM   30  C   UNL     1     -44.622  60.156 -52.437  1.00  0.00     0.011 A 
ENDBRANCH   6  24
TORSDOF 6
ENDMDL
MODEL 6
REMARK VINA RESULT:      -6.9      4.685      6.924
REMARK  6 active torsions:
REMARK  status: ('A' for Active; 'I' for Inactive)
REMARK    1  A    between atoms: O_2  and  C_3 
REMARK    2  A    between atoms: C_3  and  C_4 
REMARK    3  A    between atoms: C_4  and  N_5 
REMARK       I    between atoms: N_5  and  C_6 
REMARK    4  A    between atoms: C_6  and  C_7 
REMARK    5  A    between atoms: C_12  and  C_13 
REMARK    6  A    between atoms: C_21  and  C_22 
ROOT
HETATM    1  C   UNL     1     -41.432  55.467 -50.684  1.00  0.00     0.170 A 
HETATM    2  N   UNL     1     -40.889  56.685 -50.936  1.00  0.00    -0.163 NA
HETATM    3  N   UNL     1     -41.957  57.483 -51.101  1.00  0.00    -0.238 N 
HETATM    4  C   UNL     1     -43.157  56.856 -50.914  1.00  0.00     0.145 A 
HETATM    5  N   UNL     1     -44.329  57.533 -51.008  1.00  0.00    -0.365 N 
HETATM    6  C   UNL     1     -44.389  58.877 -51.573  1.00  0.00     0.118 C 
HETATM    7  C   UNL     1     -43.125  59.652 -51.147  1.00  0.00     0.066 C 
HETATM    8  C   UNL     1     -41.807  58.895 -51.404  1.00  0.00     0.221 C 
HETATM    9  C   UNL     1     -42.852  55.541 -50.648  1.00  0.00     0.115 A 
HETATM   10 CL   UNL     1     -43.958  54.287 -50.360  1.00  0.00    -0.077 Cl
HETATM   11  H   UNL     1     -45.212  57.023 -50.993  1.00  0.00     0.162 HD
ENDROOT
BRANCH   1  12
HETATM   12  C   UNL     1     -40.578  54.283 -50.503  1.00  0.00     0.273 C 
HETATM   13  N   UNL     1     -40.503  53.486 -51.626  1.00  0.00    -0.353 N 
HETATM   14  H   UNL     1     -41.149  53.721 -52.375  1.00  0.00     0.162 HD
HETATM   15  O   UNL     1     -40.007  54.006 -49.452  1.00  0.00    -0.266 OA
BRANCH  13  16
HETATM   16  C   UNL     1     -39.896  52.171 -51.601  1.00  0.00     0.149 C 
BRANCH  16  17
HETATM   17  C   UNL     1     -39.496  51.687 -52.997  1.00  0.00     0.186 C 
BRANCH  17  18
HETATM   18  O   UNL     1     -39.786  50.289 -53.109  1.00  0.00    -0.394 OA
HETATM   19  C   UNL     1     -39.812  49.871 -54.469  1.00  0.00     0.201 C 
ENDBRANCH  17  18
ENDBRANCH  16  17
ENDBRANCH  13  16
ENDBRANCH   1  12
BRANCH   8  20
HETATM   20  C   UNL     1     -41.260  59.080 -52.803  1.00  0.00     0.409 C 
HETATM   21  F   UNL     1     -41.652  58.130 -53.671  1.00  0.00    -0.169 F 
HETATM   22  F   UNL     1     -41.668  60.274 -53.307  1.00  0.00    -0.169 F 
HETATM   23  F   UNL     1     -39.908  59.109 -52.818  1.00  0.00    -0.169 F 
ENDBRANCH   8  20
BRANCH   6  24
HETATM   24  C   UNL     1     -44.685  58.886 -53.067  1.00  0.00    -0.035 A 
HETATM   25  C   UNL     1     -44.787  57.710 -53.832  1.00  0.00     0.011 A 
HETATM   26  C   UNL     1     -45.062  57.759 -55.202  1.00  0.00     0.024 A 
HETATM   27  C   UNL     1     -45.250  58.986 -55.827  1.00  0.00     0.034 A 
HETATM   28 CL   UNL     1     -45.582  59.048 -57.513  1.00  0.00    -0.084 Cl
HETATM   29  C   UNL     1     -45.175  60.164 -55.090  1.00  0.00     0.024 A 
HETATM   30  C   UNL     1     -44.901  60.114 -53.720  1.00  0.00     0.011 A 
ENDBRANCH   6  24
TORSDOF 6
ENDMDL
MODEL 7
REMARK VINA RESULT:      -6.9      3.405      5.174
REMARK  6 active torsions:
REMARK  status: ('A' for Active; 'I' for Inactive)
REMARK    1  A    between atoms: O_2  and  C_3 
REMARK    2  A    between atoms: C_3  and  C_4 
REMARK    3  A    between atoms: C_4  and  N_5 
REMARK       I    between atoms: N_5  and  C_6 
REMARK    4  A    between atoms: C_6  and  C_7 
REMARK    5  A    between atoms: C_12  and  C_13 
REMARK    6  A    between atoms: C_21  and  C_22 
ROOT
HETATM    1  C   UNL     1     -43.714  57.908 -52.842  1.00  0.00     0.170 A 
HETATM    2  N   UNL     1     -44.178  56.985 -51.963  1.00  0.00    -0.163 NA
HETATM    3  N   UNL     1     -43.064  56.390 -51.505  1.00  0.00    -0.238 N 
HETATM    4  C   UNL     1     -41.905  56.919 -52.001  1.00  0.00     0.145 A 
HETATM    5  N   UNL     1     -40.692  56.454 -51.608  1.00  0.00    -0.365 N 
HETATM    6  C   UNL     1     -40.560  55.208 -50.860  1.00  0.00     0.118 C 
HETATM    7  C   UNL     1     -41.746  55.088 -49.881  1.00  0.00     0.066 C 
HETATM    8  C   UNL     1     -43.125  55.315 -50.531  1.00  0.00     0.221 C 
HETATM    9  C   UNL     1     -42.292  57.904 -52.880  1.00  0.00     0.115 A 
HETATM   10 CL   UNL     1     -41.267  58.883 -53.814  1.00  0.00    -0.077 Cl
HETATM   11  H   UNL     1     -39.848  56.773 -52.083  1.00  0.00     0.162 HD
ENDROOT
BRANCH   1  12
HETATM   12  C   UNL     1     -44.642  58.744 -53.619  1.00  0.00     0.273 C 
HETATM   13  N   UNL     1     -44.754  58.356 -54.938  1.00  0.00    -0.353 N 
HETATM   14  H   UNL     1     -44.085  57.654 -55.247  1.00  0.00     0.162 HD
HETATM   15  O   UNL     1     -45.241  59.712 -53.159  1.00  0.00    -0.266 OA
BRANCH  13  16
HETATM   16  C   UNL     1     -45.442  59.162 -55.926  1.00  0.00     0.149 C 
BRANCH  16  17
HETATM   17  C   UNL     1     -45.378  58.548 -57.326  1.00  0.00     0.186 C 
BRANCH  17  18
HETATM   18  O   UNL     1     -44.415  57.488 -57.329  1.00  0.00    -0.394 OA
HETATM   19  C   UNL     1     -43.351  57.754 -58.235  1.00  0.00     0.201 C 
ENDBRANCH  17  18
ENDBRANCH  16  17
ENDBRANCH  13  16
ENDBRANCH   1  12
BRANCH   8  20
HETATM   20  C   UNL     1     -43.716  54.069 -51.157  1.00  0.00     0.409 C 
HETATM   21  F   UNL     1     -43.842  54.139 -52.494  1.00  0.00    -0.169 F 
HETATM   22  F   UNL     1     -42.931  52.995 -50.884  1.00  0.00    -0.169 F 
HETATM   23  F   UNL     1     -44.937  53.780 -50.650  1.00  0.00    -0.169 F 
ENDBRANCH   8  20
BRANCH   6  24
HETATM   24  C   UNL     1     -40.328  53.996 -51.753  1.00  0.00    -0.035 A 
HETATM   25  C   UNL     1     -40.575  54.010 -53.137  1.00  0.00     0.011 A 
HETATM   26  C   UNL     1     -40.348  52.877 -53.925  1.00  0.00     0.024 A 
HETATM   27  C   UNL     1     -39.861  51.713 -53.339  1.00  0.00     0.034 A 
HETATM   28 CL   UNL     1     -39.588  50.317 -54.306  1.00  0.00    -0.084 Cl
HETATM   29  C   UNL     1     -39.590  51.678 -51.976  1.00  0.00     0.024 A 
HETATM   30  C   UNL     1     -39.816  52.813 -51.190  1.00  0.00     0.011 A 
ENDBRANCH   6  24
TORSDOF 6
ENDMDL
MODEL 8
REMARK VINA RESULT:      -6.6      4.526      6.316
REMARK  6 active torsions:
REMARK  status: ('A' for Active; 'I' for Inactive)
REMARK    1  A    between atoms: O_2  and  C_3 
REMARK    2  A    between atoms: C_3  and  C_4 
REMARK    3  A    between atoms: C_4  and  N_5 
REMARK       I    between atoms: N_5  and  C_6 
REMARK    4  A    between atoms: C_6  and  C_7 
REMARK    5  A    between atoms: C_12  and  C_13 
REMARK    6  A    between atoms: C_21  and  C_22 
ROOT
HETATM    1  C   UNL     1     -41.602  55.223 -53.120  1.00  0.00     0.170 A 
HETATM    2  N   UNL     1     -41.134  56.338 -53.735  1.00  0.00    -0.163 NA
HETATM    3  N   UNL     1     -41.275  57.299 -52.808  1.00  0.00    -0.238 N 
HETATM    4  C   UNL     1     -41.759  56.852 -51.610  1.00  0.00     0.145 A 
HETATM    5  N   UNL     1     -41.924  57.692 -50.558  1.00  0.00    -0.365 N 
HETATM    6  C   UNL     1     -41.859  59.141 -50.722  1.00  0.00     0.118 C 
HETATM    7  C   UNL     1     -40.772  59.474 -51.765  1.00  0.00     0.066 C 
HETATM    8  C   UNL     1     -40.892  58.673 -53.077  1.00  0.00     0.221 C 
HETATM    9  C   UNL     1     -41.989  55.506 -51.781  1.00  0.00     0.115 A 
HETATM   10 CL   UNL     1     -42.620  54.435 -50.625  1.00  0.00    -0.077 Cl
HETATM   11  H   UNL     1     -42.404  57.367 -49.719  1.00  0.00     0.162 HD
ENDROOT
BRANCH   1  12
HETATM   12  C   UNL     1     -41.676  53.940 -53.836  1.00  0.00     0.273 C 
HETATM   13  N   UNL     1     -40.744  53.019 -53.406  1.00  0.00    -0.353 N 
HETATM   14  H   UNL     1     -40.035  53.376 -52.770  1.00  0.00     0.162 HD
HETATM   15  O   UNL     1     -42.466  53.710 -54.748  1.00  0.00    -0.266 OA
BRANCH  13  16
HETATM   16  C   UNL     1     -40.500  51.778 -54.113  1.00  0.00     0.149 C 
BRANCH  16  17
HETATM   17  C   UNL     1     -39.429  50.922 -53.434  1.00  0.00     0.186 C 
BRANCH  17  18
HETATM   18  O   UNL     1     -39.385  51.246 -52.039  1.00  0.00    -0.394 OA
HETATM   19  C   UNL     1     -39.544  50.087 -51.230  1.00  0.00     0.201 C 
ENDBRANCH  17  18
ENDBRANCH  16  17
ENDBRANCH  13  16
ENDBRANCH   1  12
BRANCH   8  20
HETATM   20  C   UNL     1     -41.833  59.296 -54.087  1.00  0.00     0.409 C 
HETATM   21  F   UNL     1     -43.085  58.808 -54.037  1.00  0.00    -0.169 F 
HETATM   22  F   UNL     1     -41.916  60.636 -53.879  1.00  0.00    -0.169 F 
HETATM   23  F   UNL     1     -41.387  59.139 -55.355  1.00  0.00    -0.169 F 
ENDBRANCH   8  20
BRANCH   6  24
HETATM   24  C   UNL     1     -43.219  59.777 -50.975  1.00  0.00    -0.035 A 
HETATM   25  C   UNL     1     -44.393  59.022 -51.152  1.00  0.00     0.011 A 
HETATM   26  C   UNL     1     -45.625  59.642 -51.381  1.00  0.00     0.024 A 
HETATM   27  C   UNL     1     -45.704  61.030 -51.426  1.00  0.00     0.034 A 
HETATM   28 CL   UNL     1     -47.217  61.794 -51.713  1.00  0.00    -0.084 Cl
HETATM   29  C   UNL     1     -44.562  61.801 -51.234  1.00  0.00     0.024 A 
HETATM   30  C   UNL     1     -43.331  61.179 -51.004  1.00  0.00     0.011 A 
ENDBRANCH   6  24
TORSDOF 6
ENDMDL
MODEL 9
REMARK VINA RESULT:      -6.5      4.076      6.535
REMARK  6 active torsions:
REMARK  status: ('A' for Active; 'I' for Inactive)
REMARK    1  A    between atoms: O_2  and  C_3 
REMARK    2  A    between atoms: C_3  and  C_4 
REMARK    3  A    between atoms: C_4  and  N_5 
REMARK       I    between atoms: N_5  and  C_6 
REMARK    4  A    between atoms: C_6  and  C_7 
REMARK    5  A    between atoms: C_12  and  C_13 
REMARK    6  A    between atoms: C_21  and  C_22 
ROOT
HETATM    1  C   UNL     1     -41.616  54.442 -53.368  1.00  0.00     0.170 A 
HETATM    2  N   UNL     1     -41.403  55.481 -52.521  1.00  0.00    -0.163 NA
HETATM    3  N   UNL     1     -42.297  56.403 -52.915  1.00  0.00    -0.238 N 
HETATM    4  C   UNL     1     -43.110  55.992 -53.935  1.00  0.00     0.145 A 
HETATM    5  N   UNL     1     -44.091  56.794 -54.422  1.00  0.00    -0.365 N 
HETATM    6  C   UNL     1     -44.155  58.212 -54.082  1.00  0.00     0.118 C 
HETATM    7  C   UNL     1     -43.722  58.391 -52.613  1.00  0.00     0.066 C 
HETATM    8  C   UNL     1     -42.392  57.695 -52.258  1.00  0.00     0.221 C 
HETATM    9  C   UNL     1     -42.689  54.723 -54.258  1.00  0.00     0.115 A 
HETATM   10 CL   UNL     1     -43.322  53.730 -55.480  1.00  0.00    -0.077 Cl
HETATM   11  H   UNL     1     -44.599  56.520 -55.263  1.00  0.00     0.162 HD
ENDROOT
BRANCH   1  12
HETATM   12  C   UNL     1     -40.779  53.234 -53.305  1.00  0.00     0.273 C 
HETATM   13  N   UNL     1     -40.466  52.852 -52.017  1.00  0.00    -0.353 N 
HETATM   14  H   UNL     1     -40.714  53.518 -51.289  1.00  0.00     0.162 HD
HETATM   15  O   UNL     1     -40.369  52.633 -54.294  1.00  0.00    -0.266 OA
BRANCH  13  16
HETATM   16  C   UNL     1     -39.486  51.825 -51.732  1.00  0.00     0.149 C 
BRANCH  16  17
HETATM   17  C   UNL     1     -39.975  50.829 -50.678  1.00  0.00     0.186 C 
BRANCH  17  18
HETATM   18  O   UNL     1     -39.832  49.498 -51.189  1.00  0.00    -0.394 OA
HETATM   19  C   UNL     1     -39.596  49.503 -52.591  1.00  0.00     0.201 C 
ENDBRANCH  17  18
ENDBRANCH  16  17
ENDBRANCH  13  16
ENDBRANCH   1  12
BRANCH   8  20
HETATM   20  C   UNL     1     -41.168  58.532 -52.559  1.00  0.00     0.409 C 
HETATM   21  F   UNL     1     -41.405  59.856 -52.580  1.00  0.00    -0.169 F 
HETATM   22  F   UNL     1     -40.212  58.311 -51.619  1.00  0.00    -0.169 F 
HETATM   23  F   UNL     1     -40.610  58.201 -53.747  1.00  0.00    -0.169 F 
ENDBRANCH   8  20
BRANCH   6  24
HETATM   24  C   UNL     1     -43.433  59.101 -55.086  1.00  0.00    -0.035 A 
HETATM   25  C   UNL     1     -42.733  58.589 -56.193  1.00  0.00     0.011 A 
HETATM   26  C   UNL     1     -42.083  59.438 -57.095  1.00  0.00     0.024 A 
HETATM   27  C   UNL     1     -42.132  60.815 -56.907  1.00  0.00     0.034 A 
HETATM   28 CL   UNL     1     -41.328  61.860 -58.011  1.00  0.00    -0.084 Cl
HETATM   29  C   UNL     1     -42.834  61.349 -55.831  1.00  0.00     0.024 A 
HETATM   30  C   UNL     1     -43.484  60.498 -54.932  1.00  0.00     0.011 A 
ENDBRANCH   6  24
TORSDOF 6
ENDMDL
MODEL 10
REMARK VINA RESULT:      -6.4      4.114      7.145
REMARK  6 active torsions:
REMARK  status: ('A' for Active; 'I' for Inactive)
REMARK    1  A    between atoms: O_2  and  C_3 
REMARK    2  A    between atoms: C_3  and  C_4 
REMARK    3  A    between atoms: C_4  and  N_5 
REMARK       I    between atoms: N_5  and  C_6 
REMARK    4  A    between atoms: C_6  and  C_7 
REMARK    5  A    between atoms: C_12  and  C_13 
REMARK    6  A    between atoms: C_21  and  C_22 
ROOT
HETATM    1  C   UNL     1     -42.388  56.279 -51.794  1.00  0.00     0.170 A 
HETATM    2  N   UNL     1     -42.429  57.622 -51.979  1.00  0.00    -0.163 NA
HETATM    3  N   UNL     1     -43.317  57.782 -52.973  1.00  0.00    -0.238 N 
HETATM    4  C   UNL     1     -43.891  56.617 -53.402  1.00  0.00     0.145 A 
HETATM    5  N   UNL     1     -44.836  56.613 -54.375  1.00  0.00    -0.365 N 
HETATM    6  C   UNL     1     -45.090  57.792 -55.196  1.00  0.00     0.118 C 
HETATM    7  C   UNL     1     -44.949  59.050 -54.315  1.00  0.00     0.066 C 
HETATM    8  C   UNL     1     -43.648  59.098 -53.489  1.00  0.00     0.221 C 
HETATM    9  C   UNL     1     -43.304  55.618 -52.660  1.00  0.00     0.115 A 
HETATM   10 CL   UNL     1     -43.612  53.954 -52.785  1.00  0.00    -0.077 Cl
HETATM   11  H   UNL     1     -45.156  55.727 -54.768  1.00  0.00     0.162 HD
ENDROOT
BRANCH   1  12
HETATM   12  C   UNL     1     -41.471  55.679 -50.813  1.00  0.00     0.273 C 
HETATM   13  N   UNL     1     -40.720  54.643 -51.328  1.00  0.00    -0.353 N 
HETATM   14  H   UNL     1     -40.990  54.324 -52.256  1.00  0.00     0.162 HD
HETATM   15  O   UNL     1     -41.393  56.037 -49.641  1.00  0.00    -0.266 OA
BRANCH  13  16
HETATM   16  C   UNL     1     -39.915  53.779 -50.489  1.00  0.00     0.149 C 
BRANCH  16  17
HETATM   17  C   UNL     1     -39.932  52.325 -50.965  1.00  0.00     0.186 C 
BRANCH  17  18
HETATM   18  O   UNL     1     -40.357  52.284 -52.332  1.00  0.00    -0.394 OA
HETATM   19  C   UNL     1     -39.478  51.498 -53.127  1.00  0.00     0.201 C 
ENDBRANCH  17  18
ENDBRANCH  16  17
ENDBRANCH  13  16
ENDBRANCH   1  12
BRANCH   8  20
HETATM   20  C   UNL     1     -42.470  59.682 -54.241  1.00  0.00     0.409 C 
HETATM   21  F   UNL     1     -42.818  60.548 -55.210  1.00  0.00    -0.169 F 
HETATM   22  F   UNL     1     -41.655  60.348 -53.382  1.00  0.00    -0.169 F 
HETATM   23  F   UNL     1     -41.709  58.720 -54.812  1.00  0.00    -0.169 F 
ENDBRANCH   8  20
BRANCH   6  24
HETATM   24  C   UNL     1     -44.282  57.808 -56.487  1.00  0.00    -0.035 A 
HETATM   25  C   UNL     1     -43.398  56.775 -56.847  1.00  0.00     0.011 A 
HETATM   26  C   UNL     1     -42.674  56.825 -58.042  1.00  0.00     0.024 A 
HETATM   27  C   UNL     1     -42.832  57.906 -58.902  1.00  0.00     0.034 A 
HETATM   28 CL   UNL     1     -41.938  57.971 -60.370  1.00  0.00    -0.084 Cl
HETATM   29  C   UNL     1     -43.715  58.932 -58.581  1.00  0.00     0.024 A 
HETATM   30  C   UNL     1     -44.439  58.880 -57.385  1.00  0.00     0.011 A 
ENDBRANCH   6  24
TORSDOF 6
ENDMDL
