MODEL 1
REMARK VINA RESULT:      -7.4      0.000      0.000
REMARK  4 active torsions:
REMARK  status: ('A' for Active; 'I' for Inactive)
REMARK    1  A    between atoms: C_6  and  N_7 
REMARK       I    between atoms: N_7  and  C_8 
REMARK    2  A    between atoms: C_8  and  C_9 
REMARK    3  A    between atoms: C_9  and  O_10 
REMARK    4  A    between atoms: O_10  and  C_11 
ROOT
HETATM    1  N   UNL     1     -40.563  53.881 -51.769  1.00  0.00    -0.323 N 
HETATM    2  C   UNL     1     -41.825  54.453 -51.791  1.00  0.00     0.256 C 
HETATM    3  O   UNL     1     -42.880  53.834 -51.903  1.00  0.00    -0.270 OA
HETATM    4  H   UNL     1     -39.778  54.506 -51.604  1.00  0.00     0.169 HD
ENDROOT
BRANCH   2   5
HETATM    5  C   UNL     1     -41.800  55.999 -51.617  1.00  0.00     0.141 C 
HETATM    6  C   UNL     1     -43.214  56.593 -51.498  1.00  0.00     0.057 C 
HETATM    7  C   UNL     1     -41.084  56.296 -50.281  1.00  0.00     0.057 C 
BRANCH   5   8
HETATM    8  O   UNL     1     -41.015  56.679 -52.604  1.00  0.00    -0.331 OA
BRANCH   8   9
HETATM    9  C   UNL     1     -41.519  57.012 -53.828  1.00  0.00     0.072 A 
HETATM   10  C   UNL     1     -41.908  56.138 -54.841  1.00  0.00     0.060 A 
HETATM   11  C   UNL     1     -42.414  56.645 -56.042  1.00  0.00     0.036 A 
HETATM   12 CL   UNL     1     -42.910  55.559 -57.283  1.00  0.00    -0.084 Cl
HETATM   13  C   UNL     1     -42.527  58.018 -56.249  1.00  0.00     0.024 A 
HETATM   14  C   UNL     1     -42.121  58.896 -55.248  1.00  0.00     0.004 A 
HETATM   15  C   UNL     1     -41.617  58.392 -54.047  1.00  0.00     0.037 A 
ENDBRANCH   8   9
ENDBRANCH   5   8
ENDBRANCH   2   5
BRANCH   1  16
HETATM   16  C   UNL     1     -40.230  52.507 -51.865  1.00  0.00     0.060 A 
HETATM   17  C   UNL     1     -40.051  51.696 -50.747  1.00  0.00     0.050 A 
HETATM   18  C   UNL     1     -39.722  50.366 -50.939  1.00  0.00     0.119 A 
HETATM   19  N   UNL     1     -39.548  49.801 -52.153  1.00  0.00    -0.264 NA
HETATM   20  C   UNL     1     -39.721  50.589 -53.244  1.00  0.00     0.054 A 
HETATM   21  C   UNL     1     -39.475  49.926 -54.569  1.00  0.00     0.072 C 
HETATM   22  C   UNL     1     -40.076  51.938 -53.142  1.00  0.00     0.085 A 
HETATM   23 CL   UNL     1     -40.284  52.917 -54.559  1.00  0.00    -0.080 Cl
ENDBRANCH   1  16
TORSDOF 4
ENDMDL
MODEL 2
REMARK VINA RESULT:      -7.4      3.393      7.232
REMARK  4 active torsions:
REMARK  status: ('A' for Active; 'I' for Inactive)
REMARK    1  A    between atoms: C_6  and  N_7 
REMARK       I    between atoms: N_7  and  C_8 
REMARK    2  A    between atoms: C_8  and  C_9 
REMARK    3  A    between atoms: C_9  and  O_10 
REMARK    4  A    between atoms: O_10  and  C_11 
ROOT
HETATM    1  N   UNL     1     -42.198  55.732 -56.805  1.00  0.00    -0.323 N 
HETATM    2  C   UNL     1     -42.691  55.764 -55.510  1.00  0.00     0.256 C 
HETATM    3  O   UNL     1     -43.850  56.029 -55.201  1.00  0.00    -0.270 OA
HETATM    4  H   UNL     1     -41.233  55.432 -56.921  1.00  0.00     0.169 HD
ENDROOT
BRANCH   2   5
HETATM    5  C   UNL     1     -41.627  55.385 -54.439  1.00  0.00     0.141 C 
HETATM    6  C   UNL     1     -40.244  55.126 -55.061  1.00  0.00     0.057 C 
HETATM    7  C   UNL     1     -41.468  56.605 -53.504  1.00  0.00     0.057 C 
BRANCH   5   8
HETATM    8  O   UNL     1     -42.034  54.319 -53.573  1.00  0.00    -0.331 OA
BRANCH   8   9
HETATM    9  C   UNL     1     -41.205  53.280 -53.264  1.00  0.00     0.072 A 
HETATM   10  C   UNL     1     -40.885  52.192 -54.074  1.00  0.00     0.060 A 
HETATM   11  C   UNL     1     -40.008  51.209 -53.606  1.00  0.00     0.036 A 
HETATM   12 CL   UNL     1     -39.604  49.877 -54.620  1.00  0.00    -0.084 Cl
HETATM   13  C   UNL     1     -39.453  51.293 -52.331  1.00  0.00     0.024 A 
HETATM   14  C   UNL     1     -39.784  52.367 -51.510  1.00  0.00     0.004 A 
HETATM   15  C   UNL     1     -40.659  53.351 -51.977  1.00  0.00     0.037 A 
ENDBRANCH   8   9
ENDBRANCH   5   8
ENDBRANCH   2   5
BRANCH   1  16
HETATM   16  C   UNL     1     -42.901  55.986 -58.009  1.00  0.00     0.060 A 
HETATM   17  C   UNL     1     -43.631  55.005 -58.675  1.00  0.00     0.050 A 
HETATM   18  C   UNL     1     -44.282  55.346 -59.848  1.00  0.00     0.119 A 
HETATM   19  N   UNL     1     -44.242  56.577 -60.401  1.00  0.00    -0.264 NA
HETATM   20  C   UNL     1     -43.530  57.535 -59.755  1.00  0.00     0.054 A 
HETATM   21  C   UNL     1     -43.480  58.874 -60.431  1.00  0.00     0.072 C 
HETATM   22  C   UNL     1     -42.861  57.283 -58.552  1.00  0.00     0.085 A 
HETATM   23 CL   UNL     1     -41.955  58.530 -57.755  1.00  0.00    -0.080 Cl
ENDBRANCH   1  16
TORSDOF 4
ENDMDL
MODEL 3
REMARK VINA RESULT:      -6.9      2.859      6.892
REMARK  4 active torsions:
REMARK  status: ('A' for Active; 'I' for Inactive)
REMARK    1  A    between atoms: C_6  and  N_7 
REMARK       I    between atoms: N_7  and  C_8 
REMARK    2  A    between atoms: C_8  and  C_9 
REMARK    3  A    between atoms: C_9  and  O_10 
REMARK    4  A    between atoms: O_10  and  C_11 
ROOT
HETATM    1  N   UNL     1     -41.848  56.838 -52.754  1.00  0.00    -0.323 N 
HETATM    2  C   UNL     1     -41.865  56.741 -54.137  1.00  0.00     0.256 C 
HETATM    3  O   UNL     1     -41.982  57.689 -54.910  1.00  0.00    -0.270 OA
HETATM    4  H   UNL     1     -41.678  55.979 -52.237  1.00  0.00     0.169 HD
ENDROOT
BRANCH   2   5
HETATM    5  C   UNL     1     -41.679  55.285 -54.653  1.00  0.00     0.141 C 
HETATM    6  C   UNL     1     -42.359  55.060 -56.014  1.00  0.00     0.057 C 
HETATM    7  C   UNL     1     -40.165  55.071 -54.875  1.00  0.00     0.057 C 
BRANCH   5   8
HETATM    8  O   UNL     1     -42.048  54.283 -53.697  1.00  0.00    -0.331 OA
BRANCH   8   9
HETATM    9  C   UNL     1     -41.199  53.275 -53.340  1.00  0.00     0.072 A 
HETATM   10  C   UNL     1     -40.842  52.168 -54.107  1.00  0.00     0.060 A 
HETATM   11  C   UNL     1     -39.949  51.223 -53.592  1.00  0.00     0.036 A 
HETATM   12 CL   UNL     1     -39.498  49.867 -54.553  1.00  0.00    -0.084 Cl
HETATM   13  C   UNL     1     -39.415  51.364 -52.313  1.00  0.00     0.024 A 
HETATM   14  C   UNL     1     -39.784  52.457 -51.535  1.00  0.00     0.004 A 
HETATM   15  C   UNL     1     -40.675  53.403 -52.048  1.00  0.00     0.037 A 
ENDBRANCH   8   9
ENDBRANCH   5   8
ENDBRANCH   2   5
BRANCH   1  16
HETATM   16  C   UNL     1     -41.955  58.008 -51.963  1.00  0.00     0.060 A 
HETATM   17  C   UNL     1     -40.847  58.648 -51.412  1.00  0.00     0.050 A 
HETATM   18  C   UNL     1     -41.051  59.784 -50.648  1.00  0.00     0.119 A 
HETATM   19  N   UNL     1     -42.267  60.309 -50.389  1.00  0.00    -0.264 NA
HETATM   20  C   UNL     1     -43.348  59.688 -50.925  1.00  0.00     0.054 A 
HETATM   21  C   UNL     1     -44.680  60.285 -50.573  1.00  0.00     0.072 C 
HETATM   22  C   UNL     1     -43.232  58.548 -51.727  1.00  0.00     0.085 A 
HETATM   23 CL   UNL     1     -44.637  57.776 -52.391  1.00  0.00    -0.080 Cl
ENDBRANCH   1  16
TORSDOF 4
ENDMDL
MODEL 4
REMARK VINA RESULT:      -6.9      2.697      6.697
REMARK  4 active torsions:
REMARK  status: ('A' for Active; 'I' for Inactive)
REMARK    1  A    between atoms: C_6  and  N_7 
REMARK       I    between atoms: N_7  and  C_8 
REMARK    2  A    between atoms: C_8  and  C_9 
REMARK    3  A    between atoms: C_9  and  O_10 
REMARK    4  A    between atoms: O_10  and  C_11 
ROOT
HETATM    1  N   UNL     1     -42.317  56.012 -54.388  1.00  0.00    -0.323 N 
HETATM    2  C   UNL     1     -42.753  55.070 -53.470  1.00  0.00     0.256 C 
HETATM    3  O   UNL     1     -43.712  54.319 -53.629  1.00  0.00    -0.270 OA
HETATM    4  H   UNL     1     -41.469  56.522 -54.155  1.00  0.00     0.169 HD
ENDROOT
BRANCH   2   5
HETATM    5  C   UNL     1     -41.874  55.011 -52.187  1.00  0.00     0.141 C 
HETATM    6  C   UNL     1     -41.874  56.344 -51.421  1.00  0.00     0.057 C 
HETATM    7  C   UNL     1     -42.509  53.962 -51.248  1.00  0.00     0.057 C 
BRANCH   5   8
HETATM    8  O   UNL     1     -40.545  54.527 -52.420  1.00  0.00    -0.331 OA
BRANCH   8   9
HETATM    9  C   UNL     1     -40.281  53.204 -52.626  1.00  0.00     0.072 A 
HETATM   10  C   UNL     1     -39.922  52.261 -51.666  1.00  0.00     0.060 A 
HETATM   11  C   UNL     1     -39.690  50.934 -52.044  1.00  0.00     0.036 A 
HETATM   12 CL   UNL     1     -39.264  49.771 -50.848  1.00  0.00    -0.084 Cl
HETATM   13  C   UNL     1     -39.802  50.539 -53.375  1.00  0.00     0.024 A 
HETATM   14  C   UNL     1     -40.141  51.481 -54.342  1.00  0.00     0.004 A 
HETATM   15  C   UNL     1     -40.374  52.806 -53.966  1.00  0.00     0.037 A 
ENDBRANCH   8   9
ENDBRANCH   5   8
ENDBRANCH   2   5
BRANCH   1  16
HETATM   16  C   UNL     1     -42.863  56.299 -55.664  1.00  0.00     0.060 A 
HETATM   17  C   UNL     1     -42.617  55.508 -56.783  1.00  0.00     0.050 A 
HETATM   18  C   UNL     1     -43.190  55.870 -57.989  1.00  0.00     0.119 A 
HETATM   19  N   UNL     1     -43.968  56.961 -58.156  1.00  0.00    -0.264 NA
HETATM   20  C   UNL     1     -44.208  57.735 -57.067  1.00  0.00     0.054 A 
HETATM   21  C   UNL     1     -45.043  58.958 -57.312  1.00  0.00     0.072 C 
HETATM   22  C   UNL     1     -43.688  57.430 -55.805  1.00  0.00     0.085 A 
HETATM   23 CL   UNL     1     -44.012  58.444 -54.435  1.00  0.00    -0.080 Cl
ENDBRANCH   1  16
TORSDOF 4
ENDMDL
MODEL 5
REMARK VINA RESULT:      -6.8      3.163      7.354
REMARK  4 active torsions:
REMARK  status: ('A' for Active; 'I' for Inactive)
REMARK    1  A    between atoms: C_6  and  N_7 
REMARK       I    between atoms: N_7  and  C_8 
REMARK    2  A    between atoms: C_8  and  C_9 
REMARK    3  A    between atoms: C_9  and  O_10 
REMARK    4  A    between atoms: O_10  and  C_11 
ROOT
HETATM    1  N   UNL     1     -42.916  56.501 -52.626  1.00  0.00    -0.323 N 
HETATM    2  C   UNL     1     -41.903  55.975 -53.411  1.00  0.00     0.256 C 
HETATM    3  O   UNL     1     -41.114  56.636 -54.083  1.00  0.00    -0.270 OA
HETATM    4  H   UNL     1     -43.455  55.842 -52.070  1.00  0.00     0.169 HD
ENDROOT
BRANCH   2   5
HETATM    5  C   UNL     1     -41.817  54.423 -53.343  1.00  0.00     0.141 C 
HETATM    6  C   UNL     1     -42.643  53.846 -52.181  1.00  0.00     0.057 C 
HETATM    7  C   UNL     1     -42.443  53.874 -54.644  1.00  0.00     0.057 C 
BRANCH   5   8
HETATM    8  O   UNL     1     -40.475  53.919 -53.349  1.00  0.00    -0.331 OA
BRANCH   8   9
HETATM    9  C   UNL     1     -40.200  52.589 -53.209  1.00  0.00     0.072 A 
HETATM   10  C   UNL     1     -39.903  51.914 -52.027  1.00  0.00     0.060 A 
HETATM   11  C   UNL     1     -39.649  50.539 -52.056  1.00  0.00     0.036 A 
HETATM   12 CL   UNL     1     -39.298  49.708 -50.589  1.00  0.00    -0.084 Cl
HETATM   13  C   UNL     1     -39.679  49.829 -53.254  1.00  0.00     0.024 A 
HETATM   14  C   UNL     1     -39.957  50.503 -54.440  1.00  0.00     0.004 A 
HETATM   15  C   UNL     1     -40.212  51.876 -54.414  1.00  0.00     0.037 A 
ENDBRANCH   8   9
ENDBRANCH   5   8
ENDBRANCH   2   5
BRANCH   1  16
HETATM   16  C   UNL     1     -43.247  57.866 -52.433  1.00  0.00     0.060 A 
HETATM   17  C   UNL     1     -44.249  58.507 -53.157  1.00  0.00     0.050 A 
HETATM   18  C   UNL     1     -44.498  59.844 -52.902  1.00  0.00     0.119 A 
HETATM   19  N   UNL     1     -43.816  60.578 -51.998  1.00  0.00    -0.264 NA
HETATM   20  C   UNL     1     -42.838  59.956 -51.292  1.00  0.00     0.054 A 
HETATM   21  C   UNL     1     -42.080  60.825 -50.330  1.00  0.00     0.072 C 
HETATM   22  C   UNL     1     -42.535  58.602 -51.469  1.00  0.00     0.085 A 
HETATM   23 CL   UNL     1     -41.275  57.840 -50.551  1.00  0.00    -0.080 Cl
ENDBRANCH   1  16
TORSDOF 4
ENDMDL
MODEL 6
REMARK VINA RESULT:      -6.8      2.056      2.860
REMARK  4 active torsions:
REMARK  status: ('A' for Active; 'I' for Inactive)
REMARK    1  A    between atoms: C_6  and  N_7 
REMARK       I    between atoms: N_7  and  C_8 
REMARK    2  A    between atoms: C_8  and  C_9 
REMARK    3  A    between atoms: C_9  and  O_10 
REMARK    4  A    between atoms: O_10  and  C_11 
ROOT
HETATM    1  N   UNL     1     -41.151  53.287 -53.557  1.00  0.00    -0.323 N 
HETATM    2  C   UNL     1     -40.874  54.276 -54.488  1.00  0.00     0.256 C 
HETATM    3  O   UNL     1     -40.052  54.182 -55.396  1.00  0.00    -0.270 OA
HETATM    4  H   UNL     1     -41.903  53.474 -52.899  1.00  0.00     0.169 HD
ENDROOT
BRANCH   2   5
HETATM    5  C   UNL     1     -41.748  55.550 -54.307  1.00  0.00     0.141 C 
HETATM    6  C   UNL     1     -43.233  55.210 -54.093  1.00  0.00     0.057 C 
HETATM    7  C   UNL     1     -41.267  56.255 -53.019  1.00  0.00     0.057 C 
BRANCH   5   8
HETATM    8  O   UNL     1     -41.566  56.527 -55.341  1.00  0.00    -0.331 OA
BRANCH   8   9
HETATM    9  C   UNL     1     -42.458  56.675 -56.363  1.00  0.00     0.072 A 
HETATM   10  C   UNL     1     -42.724  55.764 -57.383  1.00  0.00     0.060 A 
HETATM   11  C   UNL     1     -43.679  56.069 -58.358  1.00  0.00     0.036 A 
HETATM   12 CL   UNL     1     -44.014  54.931 -59.606  1.00  0.00    -0.084 Cl
HETATM   13  C   UNL     1     -44.366  57.281 -58.333  1.00  0.00     0.024 A 
HETATM   14  C   UNL     1     -44.091  58.203 -57.328  1.00  0.00     0.004 A 
HETATM   15  C   UNL     1     -43.138  57.899 -56.352  1.00  0.00     0.037 A 
ENDBRANCH   8   9
ENDBRANCH   5   8
ENDBRANCH   2   5
BRANCH   1  16
HETATM   16  C   UNL     1     -40.568  51.999 -53.458  1.00  0.00     0.060 A 
HETATM   17  C   UNL     1     -40.404  51.161 -54.558  1.00  0.00     0.050 A 
HETATM   18  C   UNL     1     -39.828  49.918 -54.363  1.00  0.00     0.119 A 
HETATM   19  N   UNL     1     -39.425  49.455 -53.161  1.00  0.00    -0.264 NA
HETATM   20  C   UNL     1     -39.585  50.269 -52.087  1.00  0.00     0.054 A 
HETATM   21  C   UNL     1     -39.160  49.694 -50.767  1.00  0.00     0.072 C 
HETATM   22  C   UNL     1     -40.136  51.550 -52.197  1.00  0.00     0.085 A 
HETATM   23 CL   UNL     1     -40.330  52.563 -50.802  1.00  0.00    -0.080 Cl
ENDBRANCH   1  16
TORSDOF 4
ENDMDL
MODEL 7
REMARK VINA RESULT:      -6.7      2.658      3.819
REMARK  4 active torsions:
REMARK  status: ('A' for Active; 'I' for Inactive)
REMARK    1  A    between atoms: C_6  and  N_7 
REMARK       I    between atoms: N_7  and  C_8 
REMARK    2  A    between atoms: C_8  and  C_9 
REMARK    3  A    between atoms: C_9  and  O_10 
REMARK    4  A    between atoms: O_10  and  C_11 
ROOT
HETATM    1  N   UNL     1     -41.260  55.241 -54.315  1.00  0.00    -0.323 N 
HETATM    2  C   UNL     1     -42.486  55.435 -54.931  1.00  0.00     0.256 C 
HETATM    3  O   UNL     1     -43.349  54.572 -55.075  1.00  0.00    -0.270 OA
HETATM    4  H   UNL     1     -40.667  56.060 -54.205  1.00  0.00     0.169 HD
ENDROOT
BRANCH   2   5
HETATM    5  C   UNL     1     -42.707  56.899 -55.410  1.00  0.00     0.141 C 
HETATM    6  C   UNL     1     -44.183  57.321 -55.323  1.00  0.00     0.057 C 
HETATM    7  C   UNL     1     -41.928  57.817 -54.443  1.00  0.00     0.057 C 
BRANCH   5   8
HETATM    8  O   UNL     1     -42.145  57.175 -56.699  1.00  0.00    -0.331 OA
BRANCH   8   9
HETATM    9  C   UNL     1     -42.866  57.035 -57.849  1.00  0.00     0.072 A 
HETATM   10  C   UNL     1     -43.389  55.854 -58.372  1.00  0.00     0.060 A 
HETATM   11  C   UNL     1     -44.115  55.883 -59.567  1.00  0.00     0.036 A 
HETATM   12 CL   UNL     1     -44.773  54.422 -60.199  1.00  0.00    -0.084 Cl
HETATM   13  C   UNL     1     -44.317  57.078 -60.254  1.00  0.00     0.024 A 
HETATM   14  C   UNL     1     -43.780  58.258 -59.746  1.00  0.00     0.004 A 
HETATM   15  C   UNL     1     -43.055  58.231 -58.552  1.00  0.00     0.037 A 
ENDBRANCH   8   9
ENDBRANCH   5   8
ENDBRANCH   2   5
BRANCH   1  16
HETATM   16  C   UNL     1     -40.756  54.049 -53.737  1.00  0.00     0.060 A 
HETATM   17  C   UNL     1     -40.259  52.995 -54.499  1.00  0.00     0.050 A 
HETATM   18  C   UNL     1     -39.793  51.868 -53.846  1.00  0.00     0.119 A 
HETATM   19  N   UNL     1     -39.802  51.717 -52.505  1.00  0.00    -0.264 NA
HETATM   20  C   UNL     1     -40.287  52.741 -51.759  1.00  0.00     0.054 A 
HETATM   21  C   UNL     1     -40.315  52.509 -50.276  1.00  0.00     0.072 C 
HETATM   22  C   UNL     1     -40.757  53.926 -52.335  1.00  0.00     0.085 A 
HETATM   23 CL   UNL     1     -41.375  55.215 -51.352  1.00  0.00    -0.080 Cl
ENDBRANCH   1  16
TORSDOF 4
ENDMDL
MODEL 8
REMARK VINA RESULT:      -6.7      1.627      2.114
REMARK  4 active torsions:
REMARK  status: ('A' for Active; 'I' for Inactive)
REMARK    1  A    between atoms: C_6  and  N_7 
REMARK       I    between atoms: N_7  and  C_8 
REMARK    2  A    between atoms: C_8  and  C_9 
REMARK    3  A    between atoms: C_9  and  O_10 
REMARK    4  A    between atoms: O_10  and  C_11 
ROOT
HETATM    1  N   UNL     1     -41.256  55.180 -52.913  1.00  0.00    -0.323 N 
HETATM    2  C   UNL     1     -42.565  55.533 -53.202  1.00  0.00     0.256 C 
HETATM    3  O   UNL     1     -43.537  54.790 -53.094  1.00  0.00    -0.270 OA
HETATM    4  H   UNL     1     -40.557  55.915 -52.984  1.00  0.00     0.169 HD
ENDROOT
BRANCH   2   5
HETATM    5  C   UNL     1     -42.715  57.014 -53.655  1.00  0.00     0.141 C 
HETATM    6  C   UNL     1     -44.186  57.414 -53.856  1.00  0.00     0.057 C 
HETATM    7  C   UNL     1     -42.170  57.898 -52.511  1.00  0.00     0.057 C 
BRANCH   5   8
HETATM    8  O   UNL     1     -41.907  57.356 -54.789  1.00  0.00    -0.331 OA
BRANCH   8   9
HETATM    9  C   UNL     1     -42.405  57.356 -56.060  1.00  0.00     0.072 A 
HETATM   10  C   UNL     1     -42.808  56.249 -56.803  1.00  0.00     0.060 A 
HETATM   11  C   UNL     1     -43.304  56.423 -58.099  1.00  0.00     0.036 A 
HETATM   12 CL   UNL     1     -43.816  55.051 -59.005  1.00  0.00    -0.084 Cl
HETATM   13  C   UNL     1     -43.395  57.692 -58.667  1.00  0.00     0.024 A 
HETATM   14  C   UNL     1     -42.976  58.800 -57.936  1.00  0.00     0.004 A 
HETATM   15  C   UNL     1     -42.481  58.628 -56.641  1.00  0.00     0.037 A 
ENDBRANCH   8   9
ENDBRANCH   5   8
ENDBRANCH   2   5
BRANCH   1  16
HETATM   16  C   UNL     1     -40.776  53.932 -52.445  1.00  0.00     0.060 A 
HETATM   17  C   UNL     1     -40.705  53.613 -51.091  1.00  0.00     0.050 A 
HETATM   18  C   UNL     1     -40.217  52.370 -50.729  1.00  0.00     0.119 A 
HETATM   19  N   UNL     1     -39.788  51.442 -51.611  1.00  0.00    -0.264 NA
HETATM   20  C   UNL     1     -39.855  51.751 -52.930  1.00  0.00     0.054 A 
HETATM   21  C   UNL     1     -39.328  50.705 -53.869  1.00  0.00     0.072 C 
HETATM   22  C   UNL     1     -40.356  52.975 -53.386  1.00  0.00     0.085 A 
HETATM   23 CL   UNL     1     -40.423  53.338 -55.082  1.00  0.00    -0.080 Cl
ENDBRANCH   1  16
TORSDOF 4
ENDMDL
MODEL 9
REMARK VINA RESULT:      -6.7      2.388      6.212
REMARK  4 active torsions:
REMARK  status: ('A' for Active; 'I' for Inactive)
REMARK    1  A    between atoms: C_6  and  N_7 
REMARK       I    between atoms: N_7  and  C_8 
REMARK    2  A    between atoms: C_8  and  C_9 
REMARK    3  A    between atoms: C_9  and  O_10 
REMARK    4  A    between atoms: O_10  and  C_11 
ROOT
HETATM    1  N   UNL     1     -42.812  57.013 -54.062  1.00  0.00    -0.323 N 
HETATM    2  C   UNL     1     -41.753  57.063 -53.169  1.00  0.00     0.256 C 
HETATM    3  O   UNL     1     -40.607  57.404 -53.450  1.00  0.00    -0.270 OA
HETATM    4  H   UNL     1     -43.724  56.775 -53.680  1.00  0.00     0.169 HD
ENDROOT
BRANCH   2   5
HETATM    5  C   UNL     1     -42.157  56.675 -51.717  1.00  0.00     0.141 C 
HETATM    6  C   UNL     1     -41.079  57.065 -50.691  1.00  0.00     0.057 C 
HETATM    7  C   UNL     1     -43.419  57.492 -51.361  1.00  0.00     0.057 C 
BRANCH   5   8
HETATM    8  O   UNL     1     -42.561  55.308 -51.576  1.00  0.00    -0.331 OA
BRANCH   8   9
HETATM    9  C   UNL     1     -41.685  54.273 -51.729  1.00  0.00     0.072 A 
HETATM   10  C   UNL     1     -41.342  53.634 -52.919  1.00  0.00     0.060 A 
HETATM   11  C   UNL     1     -40.416  52.586 -52.905  1.00  0.00     0.036 A 
HETATM   12 CL   UNL     1     -39.984  51.812 -54.381  1.00  0.00    -0.084 Cl
HETATM   13  C   UNL     1     -39.834  52.160 -51.713  1.00  0.00     0.024 A 
HETATM   14  C   UNL     1     -40.187  52.783 -50.519  1.00  0.00     0.004 A 
HETATM   15  C   UNL     1     -41.111  53.830 -50.531  1.00  0.00     0.037 A 
ENDBRANCH   8   9
ENDBRANCH   5   8
ENDBRANCH   2   5
BRANCH   1  16
HETATM   16  C   UNL     1     -42.801  57.334 -55.442  1.00  0.00     0.060 A 
HETATM   17  C   UNL     1     -42.668  58.640 -55.909  1.00  0.00     0.050 A 
HETATM   18  C   UNL     1     -42.672  58.857 -57.275  1.00  0.00     0.119 A 
HETATM   19  N   UNL     1     -42.813  57.878 -58.194  1.00  0.00    -0.264 NA
HETATM   20  C   UNL     1     -42.944  56.605 -57.742  1.00  0.00     0.054 A 
HETATM   21  C   UNL     1     -43.140  55.558 -58.799  1.00  0.00     0.072 C 
HETATM   22  C   UNL     1     -42.927  56.292 -56.379  1.00  0.00     0.085 A 
HETATM   23 CL   UNL     1     -43.101  54.654 -55.835  1.00  0.00    -0.080 Cl
ENDBRANCH   1  16
TORSDOF 4
ENDMDL
MODEL 10
REMARK VINA RESULT:      -6.6      2.750      3.793
REMARK  4 active torsions:
REMARK  status: ('A' for Active; 'I' for Inactive)
REMARK    1  A    between atoms: C_6  and  N_7 
REMARK       I    between atoms: N_7  and  C_8 
REMARK    2  A    between atoms: C_8  and  C_9 
REMARK    3  A    between atoms: C_9  and  O_10 
REMARK    4  A    between atoms: O_10  and  C_11 
ROOT
HETATM    1  N   UNL     1     -40.800  54.230 -52.709  1.00  0.00    -0.323 N 
HETATM    2  C   UNL     1     -42.068  54.723 -52.446  1.00  0.00     0.256 C 
HETATM    3  O   UNL     1     -43.085  54.041 -52.349  1.00  0.00    -0.270 OA
HETATM    4  H   UNL     1     -40.035  54.901 -52.698  1.00  0.00     0.169 HD
ENDROOT
BRANCH   2   5
HETATM    5  C   UNL     1     -42.096  56.265 -52.238  1.00  0.00     0.141 C 
HETATM    6  C   UNL     1     -41.687  56.666 -50.811  1.00  0.00     0.057 C 
HETATM    7  C   UNL     1     -41.038  56.872 -53.187  1.00  0.00     0.057 C 
BRANCH   5   8
HETATM    8  O   UNL     1     -43.329  56.879 -52.635  1.00  0.00    -0.331 OA
BRANCH   8   9
HETATM    9  C   UNL     1     -43.802  58.009 -52.035  1.00  0.00     0.072 A 
HETATM   10  C   UNL     1     -43.236  59.282 -52.079  1.00  0.00     0.060 A 
HETATM   11  C   UNL     1     -43.853  60.343 -51.409  1.00  0.00     0.036 A 
HETATM   12 CL   UNL     1     -43.158  61.916 -51.483  1.00  0.00    -0.084 Cl
HETATM   13  C   UNL     1     -45.027  60.146 -50.684  1.00  0.00     0.024 A 
HETATM   14  C   UNL     1     -45.586  58.873 -50.620  1.00  0.00     0.004 A 
HETATM   15  C   UNL     1     -44.971  57.812 -51.290  1.00  0.00     0.037 A 
ENDBRANCH   8   9
ENDBRANCH   5   8
ENDBRANCH   2   5
BRANCH   1  16
HETATM   16  C   UNL     1     -40.417  52.881 -52.913  1.00  0.00     0.060 A 
HETATM   17  C   UNL     1     -40.362  52.297 -54.176  1.00  0.00     0.050 A 
HETATM   18  C   UNL     1     -39.981  50.970 -54.275  1.00  0.00     0.119 A 
HETATM   19  N   UNL     1     -39.669  50.195 -53.216  1.00  0.00    -0.264 NA
HETATM   20  C   UNL     1     -39.722  50.761 -51.984  1.00  0.00     0.054 A 
HETATM   21  C   UNL     1     -39.407  49.847 -50.835  1.00  0.00     0.072 C 
HETATM   22  C   UNL     1     -40.075  52.101 -51.793  1.00  0.00     0.085 A 
HETATM   23 CL   UNL     1     -40.137  52.792 -50.203  1.00  0.00    -0.080 Cl
ENDBRANCH   1  16
TORSDOF 4
ENDMDL
