MODEL 1
REMARK VINA RESULT:      -8.9      0.000      0.000
REMARK  6 active torsions:
REMARK  status: ('A' for Active; 'I' for Inactive)
REMARK    1  A    between atoms: C_2  and  C_3 
REMARK    2  A    between atoms: C_3  and  C_4 
REMARK    3  A    between atoms: C_4  and  C_5 
REMARK    4  A    between atoms: C_8  and  N_9 
REMARK       I    between atoms: N_9  and  C_10 
REMARK    5  A    between atoms: C_10  and  C_11 
REMARK    6  A    between atoms: N_16  and  C_17 
ROOT
HETATM    1  C   UNL     1     -44.293  58.870 -51.136  1.00  0.00     0.098 A 
HETATM    2  C   UNL     1     -43.586  59.488 -52.312  1.00  0.00     0.205 A 
HETATM    3  O   UNL     1     -43.603  60.697 -52.525  1.00  0.00    -0.286 OA
HETATM    4  C   UNL     1     -42.887  58.536 -53.153  1.00  0.00     0.087 A 
HETATM    5  C   UNL     1     -42.817  57.203 -52.828  1.00  0.00     0.145 A 
HETATM    6  N   UNL     1     -42.031  56.582 -53.784  1.00  0.00    -0.216 N 
HETATM    7  N   UNL     1     -41.761  57.453 -54.805  1.00  0.00    -0.170 NA
HETATM    8  C   UNL     1     -42.221  58.642 -54.388  1.00  0.00     0.069 C 
HETATM    9  C   UNL     1     -42.042  59.854 -55.225  1.00  0.00     0.073 C 
HETATM   10  N   UNL     1     -43.465  56.678 -51.761  1.00  0.00    -0.349 N 
HETATM   11  C   UNL     1     -44.199  57.533 -50.959  1.00  0.00     0.111 A 
HETATM   12  H   UNL     1     -43.622  55.680 -51.628  1.00  0.00     0.167 HD
ENDROOT
BRANCH   1  13
HETATM   13  C   UNL     1     -45.081  59.651 -50.133  1.00  0.00     0.261 C 
HETATM   14  N   UNL     1     -44.353  60.596 -49.441  1.00  0.00    -0.323 N 
HETATM   15  H   UNL     1     -43.375  60.715 -49.708  1.00  0.00     0.169 HD
HETATM   16  O   UNL     1     -46.270  59.394 -49.964  1.00  0.00    -0.267 OA
BRANCH  14  17
HETATM   17  C   UNL     1     -44.777  61.372 -48.340  1.00  0.00     0.035 A 
HETATM   18  C   UNL     1     -45.204  60.837 -47.125  1.00  0.00     0.030 A 
HETATM   19  C   UNL     1     -45.550  61.676 -46.061  1.00  0.00     0.009 A 
HETATM   20  C   UNL     1     -45.465  63.067 -46.189  1.00  0.00    -0.058 A 
HETATM   21  C   UNL     1     -45.062  63.605 -47.415  1.00  0.00     0.009 A 
HETATM   22  C   UNL     1     -44.728  62.763 -48.482  1.00  0.00     0.030 A 
BRANCH  20  23
HETATM   23  C   UNL     1     -45.771  63.960 -45.013  1.00  0.00     0.038 C 
BRANCH  23  24
HETATM   24  C   UNL     1     -44.504  64.297 -44.220  1.00  0.00     0.004 C 
BRANCH  24  25
HETATM   25  C   UNL     1     -44.439  63.522 -42.905  1.00  0.00    -0.004 C 
HETATM   26  C   UNL     1     -43.188  62.661 -42.832  1.00  0.00     0.005 C 
ENDBRANCH  24  25
ENDBRANCH  23  24
ENDBRANCH  20  23
ENDBRANCH  14  17
ENDBRANCH   1  13
BRANCH   6  27
HETATM   27  C   UNL     1     -41.485  55.267 -53.804  1.00  0.00     0.060 A 
HETATM   28  C   UNL     1     -41.493  54.451 -52.665  1.00  0.00     0.032 A 
HETATM   29  C   UNL     1     -40.933  53.171 -52.710  1.00  0.00     0.009 A 
HETATM   30  C   UNL     1     -40.356  52.686 -53.888  1.00  0.00    -0.062 A 
HETATM   31  C   UNL     1     -39.728  51.325 -53.935  1.00  0.00     0.048 C 
HETATM   32  C   UNL     1     -40.321  53.513 -55.016  1.00  0.00     0.009 A 
HETATM   33  C   UNL     1     -40.875  54.797 -54.975  1.00  0.00     0.032 A 
ENDBRANCH   6  27
TORSDOF 6
ENDMDL
MODEL 2
REMARK VINA RESULT:      -8.7      1.611     10.514
REMARK  6 active torsions:
REMARK  status: ('A' for Active; 'I' for Inactive)
REMARK    1  A    between atoms: C_2  and  C_3 
REMARK    2  A    between atoms: C_3  and  C_4 
REMARK    3  A    between atoms: C_4  and  C_5 
REMARK    4  A    between atoms: C_8  and  N_9 
REMARK       I    between atoms: N_9  and  C_10 
REMARK    5  A    between atoms: C_10  and  C_11 
REMARK    6  A    between atoms: N_16  and  C_17 
ROOT
HETATM    1  C   UNL     1     -42.588  59.206 -51.405  1.00  0.00     0.098 A 
HETATM    2  C   UNL     1     -43.996  59.484 -51.858  1.00  0.00     0.205 A 
HETATM    3  O   UNL     1     -44.497  58.916 -52.824  1.00  0.00    -0.286 OA
HETATM    4  C   UNL     1     -44.698  60.465 -51.054  1.00  0.00     0.087 A 
HETATM    5  C   UNL     1     -44.132  61.010 -49.926  1.00  0.00     0.145 A 
HETATM    6  N   UNL     1     -45.072  61.850 -49.353  1.00  0.00    -0.216 N 
HETATM    7  N   UNL     1     -46.144  61.993 -50.191  1.00  0.00    -0.170 NA
HETATM    8  C   UNL     1     -45.942  61.107 -51.179  1.00  0.00     0.069 C 
HETATM    9  C   UNL     1     -46.951  60.938 -52.254  1.00  0.00     0.073 C 
HETATM   10  N   UNL     1     -42.861  60.738 -49.545  1.00  0.00    -0.349 N 
HETATM   11  C   UNL     1     -42.124  59.854 -50.313  1.00  0.00     0.111 A 
HETATM   12  H   UNL     1     -42.343  61.291 -48.863  1.00  0.00     0.167 HD
ENDROOT
BRANCH   1  13
HETATM   13  C   UNL     1     -41.672  58.236 -52.079  1.00  0.00     0.261 C 
HETATM   14  N   UNL     1     -42.237  57.008 -52.354  1.00  0.00    -0.323 N 
HETATM   15  H   UNL     1     -43.226  56.892 -52.130  1.00  0.00     0.169 HD
HETATM   16  O   UNL     1     -40.509  58.559 -52.307  1.00  0.00    -0.267 OA
BRANCH  14  17
HETATM   17  C   UNL     1     -41.589  55.852 -52.839  1.00  0.00     0.035 A 
HETATM   18  C   UNL     1     -41.440  54.674 -52.108  1.00  0.00     0.030 A 
HETATM   19  C   UNL     1     -40.838  53.550 -52.684  1.00  0.00     0.009 A 
HETATM   20  C   UNL     1     -40.383  53.581 -54.007  1.00  0.00    -0.058 A 
HETATM   21  C   UNL     1     -40.508  54.770 -54.732  1.00  0.00     0.009 A 
HETATM   22  C   UNL     1     -41.099  55.897 -54.150  1.00  0.00     0.030 A 
BRANCH  20  23
HETATM   23  C   UNL     1     -39.801  52.342 -54.642  1.00  0.00     0.038 C 
BRANCH  23  24
HETATM   24  C   UNL     1     -40.630  51.099 -54.306  1.00  0.00     0.004 C 
BRANCH  24  25
HETATM   25  C   UNL     1     -39.747  49.866 -54.118  1.00  0.00    -0.004 C 
HETATM   26  C   UNL     1     -39.579  49.525 -52.645  1.00  0.00     0.005 C 
ENDBRANCH  24  25
ENDBRANCH  23  24
ENDBRANCH  20  23
ENDBRANCH  14  17
ENDBRANCH   1  13
BRANCH   6  27
HETATM   27  C   UNL     1     -45.068  62.492 -48.082  1.00  0.00     0.060 A 
HETATM   28  C   UNL     1     -44.856  63.871 -47.956  1.00  0.00     0.032 A 
HETATM   29  C   UNL     1     -44.840  64.470 -46.692  1.00  0.00     0.009 A 
HETATM   30  C   UNL     1     -45.032  63.704 -45.538  1.00  0.00    -0.062 A 
HETATM   31  C   UNL     1     -44.987  64.336 -44.178  1.00  0.00     0.048 C 
HETATM   32  C   UNL     1     -45.213  62.322 -45.663  1.00  0.00     0.009 A 
HETATM   33  C   UNL     1     -45.224  61.718 -46.924  1.00  0.00     0.032 A 
ENDBRANCH   6  27
TORSDOF 6
ENDMDL
MODEL 3
REMARK VINA RESULT:      -8.3      2.301     10.378
REMARK  6 active torsions:
REMARK  status: ('A' for Active; 'I' for Inactive)
REMARK    1  A    between atoms: C_2  and  C_3 
REMARK    2  A    between atoms: C_3  and  C_4 
REMARK    3  A    between atoms: C_4  and  C_5 
REMARK    4  A    between atoms: C_8  and  N_9 
REMARK       I    between atoms: N_9  and  C_10 
REMARK    5  A    between atoms: C_10  and  C_11 
REMARK    6  A    between atoms: N_16  and  C_17 
ROOT
HETATM    1  C   UNL     1     -42.104  59.862 -51.932  1.00  0.00     0.098 A 
HETATM    2  C   UNL     1     -42.654  60.974 -52.784  1.00  0.00     0.205 A 
HETATM    3  O   UNL     1     -42.468  61.023 -53.996  1.00  0.00    -0.286 OA
HETATM    4  C   UNL     1     -43.419  61.963 -52.050  1.00  0.00     0.087 A 
HETATM    5  C   UNL     1     -43.679  61.822 -50.708  1.00  0.00     0.145 A 
HETATM    6  N   UNL     1     -44.480  62.885 -50.326  1.00  0.00    -0.216 N 
HETATM    7  N   UNL     1     -44.574  63.791 -51.348  1.00  0.00    -0.170 NA
HETATM    8  C   UNL     1     -43.990  63.200 -52.401  1.00  0.00     0.069 C 
HETATM    9  C   UNL     1     -43.961  63.875 -53.722  1.00  0.00     0.073 C 
HETATM   10  N   UNL     1     -43.170  60.808 -49.969  1.00  0.00    -0.349 N 
HETATM   11  C   UNL     1     -42.381  59.868 -50.609  1.00  0.00     0.111 A 
HETATM   12  H   UNL     1     -43.151  60.803 -48.950  1.00  0.00     0.167 HD
ENDROOT
BRANCH   1  13
HETATM   13  C   UNL     1     -41.284  58.731 -52.466  1.00  0.00     0.261 C 
HETATM   14  N   UNL     1     -41.958  57.532 -52.571  1.00  0.00    -0.323 N 
HETATM   15  H   UNL     1     -42.950  57.537 -52.336  1.00  0.00     0.169 HD
HETATM   16  O   UNL     1     -40.099  58.916 -52.733  1.00  0.00    -0.267 OA
BRANCH  14  17
HETATM   17  C   UNL     1     -41.418  56.268 -52.894  1.00  0.00     0.035 A 
HETATM   18  C   UNL     1     -41.273  55.224 -51.980  1.00  0.00     0.030 A 
HETATM   19  C   UNL     1     -40.787  53.980 -52.394  1.00  0.00     0.009 A 
HETATM   20  C   UNL     1     -40.445  53.753 -53.732  1.00  0.00    -0.058 A 
HETATM   21  C   UNL     1     -40.565  54.807 -54.643  1.00  0.00     0.009 A 
HETATM   22  C   UNL     1     -41.041  56.055 -54.224  1.00  0.00     0.030 A 
BRANCH  20  23
HETATM   23  C   UNL     1     -39.989  52.387 -54.180  1.00  0.00     0.038 C 
BRANCH  23  24
HETATM   24  C   UNL     1     -39.556  51.523 -52.992  1.00  0.00     0.004 C 
BRANCH  24  25
HETATM   25  C   UNL     1     -39.692  50.032 -53.300  1.00  0.00    -0.004 C 
HETATM   26  C   UNL     1     -39.902  49.792 -54.787  1.00  0.00     0.005 C 
ENDBRANCH  24  25
ENDBRANCH  23  24
ENDBRANCH  20  23
ENDBRANCH  14  17
ENDBRANCH   1  13
BRANCH   6  27
HETATM   27  C   UNL     1     -45.190  63.103 -49.110  1.00  0.00     0.060 A 
HETATM   28  C   UNL     1     -44.610  63.784 -48.033  1.00  0.00     0.032 A 
HETATM   29  C   UNL     1     -45.326  63.967 -46.846  1.00  0.00     0.009 A 
HETATM   30  C   UNL     1     -46.627  63.471 -46.715  1.00  0.00    -0.062 A 
HETATM   31  C   UNL     1     -47.390  63.639 -45.434  1.00  0.00     0.048 C 
HETATM   32  C   UNL     1     -47.195  62.764 -47.781  1.00  0.00     0.009 A 
HETATM   33  C   UNL     1     -46.480  62.574 -48.968  1.00  0.00     0.032 A 
ENDBRANCH   6  27
TORSDOF 6
ENDMDL
MODEL 4
REMARK VINA RESULT:      -8.3      6.071     10.658
REMARK  6 active torsions:
REMARK  status: ('A' for Active; 'I' for Inactive)
REMARK    1  A    between atoms: C_2  and  C_3 
REMARK    2  A    between atoms: C_3  and  C_4 
REMARK    3  A    between atoms: C_4  and  C_5 
REMARK    4  A    between atoms: C_8  and  N_9 
REMARK       I    between atoms: N_9  and  C_10 
REMARK    5  A    between atoms: C_10  and  C_11 
REMARK    6  A    between atoms: N_16  and  C_17 
ROOT
HETATM    1  C   UNL     1     -43.311  56.827 -57.724  1.00  0.00     0.098 A 
HETATM    2  C   UNL     1     -43.059  57.814 -56.616  1.00  0.00     0.205 A 
HETATM    3  O   UNL     1     -43.480  58.966 -56.658  1.00  0.00    -0.286 OA
HETATM    4  C   UNL     1     -42.292  57.281 -55.508  1.00  0.00     0.087 A 
HETATM    5  C   UNL     1     -41.917  55.960 -55.459  1.00  0.00     0.145 A 
HETATM    6  N   UNL     1     -41.264  55.756 -54.256  1.00  0.00    -0.216 N 
HETATM    7  N   UNL     1     -41.051  56.955 -53.630  1.00  0.00    -0.170 NA
HETATM    8  C   UNL     1     -41.728  57.858 -54.355  1.00  0.00     0.069 C 
HETATM    9  C   UNL     1     -41.775  59.279 -53.932  1.00  0.00     0.073 C 
HETATM   10  N   UNL     1     -42.160  55.096 -56.474  1.00  0.00    -0.349 N 
HETATM   11  C   UNL     1     -42.837  55.569 -57.584  1.00  0.00     0.111 A 
HETATM   12  H   UNL     1     -41.702  54.190 -56.569  1.00  0.00     0.167 HD
ENDROOT
BRANCH   1  13
HETATM   13  C   UNL     1     -44.077  57.148 -58.967  1.00  0.00     0.261 C 
HETATM   14  N   UNL     1     -45.424  57.365 -58.772  1.00  0.00    -0.323 N 
HETATM   15  H   UNL     1     -45.762  57.346 -57.810  1.00  0.00     0.169 HD
HETATM   16  O   UNL     1     -43.495  57.162 -60.050  1.00  0.00    -0.267 OA
BRANCH  14  17
HETATM   17  C   UNL     1     -46.420  57.536 -59.759  1.00  0.00     0.035 A 
HETATM   18  C   UNL     1     -46.935  58.774 -60.143  1.00  0.00     0.030 A 
HETATM   19  C   UNL     1     -47.876  58.863 -61.174  1.00  0.00     0.009 A 
HETATM   20  C   UNL     1     -48.313  57.716 -61.847  1.00  0.00    -0.058 A 
HETATM   21  C   UNL     1     -47.817  56.472 -61.444  1.00  0.00     0.009 A 
HETATM   22  C   UNL     1     -46.884  56.384 -60.404  1.00  0.00     0.030 A 
BRANCH  20  23
HETATM   23  C   UNL     1     -49.274  57.830 -63.004  1.00  0.00     0.038 C 
BRANCH  23  24
HETATM   24  C   UNL     1     -49.798  59.262 -63.157  1.00  0.00     0.004 C 
BRANCH  24  25
HETATM   25  C   UNL     1     -51.319  59.292 -63.306  1.00  0.00    -0.004 C 
HETATM   26  C   UNL     1     -52.009  58.871 -62.018  1.00  0.00     0.005 C 
ENDBRANCH  24  25
ENDBRANCH  23  24
ENDBRANCH  20  23
ENDBRANCH  14  17
ENDBRANCH   1  13
BRANCH   6  27
HETATM   27  C   UNL     1     -40.861  54.542 -53.629  1.00  0.00     0.060 A 
HETATM   28  C   UNL     1     -40.905  54.383 -52.239  1.00  0.00     0.032 A 
HETATM   29  C   UNL     1     -40.486  53.184 -51.652  1.00  0.00     0.009 A 
HETATM   30  C   UNL     1     -40.015  52.131 -52.442  1.00  0.00    -0.062 A 
HETATM   31  C   UNL     1     -39.538  50.854 -51.816  1.00  0.00     0.048 C 
HETATM   32  C   UNL     1     -39.943  52.302 -53.828  1.00  0.00     0.009 A 
HETATM   33  C   UNL     1     -40.355  53.500 -54.419  1.00  0.00     0.032 A 
ENDBRANCH   6  27
TORSDOF 6
ENDMDL
MODEL 5
REMARK VINA RESULT:      -8.1      2.114      3.517
REMARK  6 active torsions:
REMARK  status: ('A' for Active; 'I' for Inactive)
REMARK    1  A    between atoms: C_2  and  C_3 
REMARK    2  A    between atoms: C_3  and  C_4 
REMARK    3  A    between atoms: C_4  and  C_5 
REMARK    4  A    between atoms: C_8  and  N_9 
REMARK       I    between atoms: N_9  and  C_10 
REMARK    5  A    between atoms: C_10  and  C_11 
REMARK    6  A    between atoms: N_16  and  C_17 
ROOT
HETATM    1  C   UNL     1     -44.622  58.727 -51.505  1.00  0.00     0.098 A 
HETATM    2  C   UNL     1     -44.383  57.242 -51.430  1.00  0.00     0.205 A 
HETATM    3  O   UNL     1     -44.681  56.581 -50.440  1.00  0.00    -0.286 OA
HETATM    4  C   UNL     1     -43.783  56.675 -52.621  1.00  0.00     0.087 A 
HETATM    5  C   UNL     1     -43.547  57.435 -53.741  1.00  0.00     0.145 A 
HETATM    6  N   UNL     1     -43.037  56.594 -54.716  1.00  0.00    -0.216 N 
HETATM    7  N   UNL     1     -42.768  55.364 -54.178  1.00  0.00    -0.170 NA
HETATM    8  C   UNL     1     -43.280  55.400 -52.938  1.00  0.00     0.069 C 
HETATM    9  C   UNL     1     -43.227  54.199 -52.068  1.00  0.00     0.073 C 
HETATM   10  N   UNL     1     -43.774  58.770 -53.778  1.00  0.00    -0.349 N 
HETATM   11  C   UNL     1     -44.290  59.374 -52.645  1.00  0.00     0.111 A 
HETATM   12  H   UNL     1     -43.401  59.389 -54.496  1.00  0.00     0.167 HD
ENDROOT
BRANCH   1  13
HETATM   13  C   UNL     1     -45.227  59.530 -50.400  1.00  0.00     0.261 C 
HETATM   14  N   UNL     1     -44.454  60.586 -49.966  1.00  0.00    -0.323 N 
HETATM   15  H   UNL     1     -43.581  60.757 -50.467  1.00  0.00     0.169 HD
HETATM   16  O   UNL     1     -46.315  59.197 -49.934  1.00  0.00    -0.267 OA
BRANCH  14  17
HETATM   17  C   UNL     1     -44.685  61.421 -48.852  1.00  0.00     0.035 A 
HETATM   18  C   UNL     1     -44.951  60.953 -47.566  1.00  0.00     0.030 A 
HETATM   19  C   UNL     1     -45.107  61.846 -46.501  1.00  0.00     0.009 A 
HETATM   20  C   UNL     1     -44.991  63.227 -46.702  1.00  0.00    -0.058 A 
HETATM   21  C   UNL     1     -44.750  63.699 -47.996  1.00  0.00     0.009 A 
HETATM   22  C   UNL     1     -44.606  62.803 -49.061  1.00  0.00     0.030 A 
BRANCH  20  23
HETATM   23  C   UNL     1     -45.090  64.177 -45.535  1.00  0.00     0.038 C 
BRANCH  23  24
HETATM   24  C   UNL     1     -45.064  63.428 -44.198  1.00  0.00     0.004 C 
BRANCH  24  25
HETATM   25  C   UNL     1     -43.891  63.873 -43.326  1.00  0.00    -0.004 C 
HETATM   26  C   UNL     1     -43.113  62.678 -42.794  1.00  0.00     0.005 C 
ENDBRANCH  24  25
ENDBRANCH  23  24
ENDBRANCH  20  23
ENDBRANCH  14  17
ENDBRANCH   1  13
BRANCH   6  27
HETATM   27  C   UNL     1     -42.819  56.830 -56.103  1.00  0.00     0.060 A 
HETATM   28  C   UNL     1     -42.391  58.077 -56.578  1.00  0.00     0.032 A 
HETATM   29  C   UNL     1     -42.203  58.283 -57.948  1.00  0.00     0.009 A 
HETATM   30  C   UNL     1     -42.439  57.253 -58.863  1.00  0.00    -0.062 A 
HETATM   31  C   UNL     1     -42.266  57.477 -60.336  1.00  0.00     0.048 C 
HETATM   32  C   UNL     1     -42.895  56.017 -58.391  1.00  0.00     0.009 A 
HETATM   33  C   UNL     1     -43.090  55.807 -57.022  1.00  0.00     0.032 A 
ENDBRANCH   6  27
TORSDOF 6
ENDMDL
MODEL 6
REMARK VINA RESULT:      -7.9      6.989     10.754
REMARK  6 active torsions:
REMARK  status: ('A' for Active; 'I' for Inactive)
REMARK    1  A    between atoms: C_2  and  C_3 
REMARK    2  A    between atoms: C_3  and  C_4 
REMARK    3  A    between atoms: C_4  and  C_5 
REMARK    4  A    between atoms: C_8  and  N_9 
REMARK       I    between atoms: N_9  and  C_10 
REMARK    5  A    between atoms: C_10  and  C_11 
REMARK    6  A    between atoms: N_16  and  C_17 
ROOT
HETATM    1  C   UNL     1     -42.623  57.596 -57.495  1.00  0.00     0.098 A 
HETATM    2  C   UNL     1     -43.389  58.796 -57.008  1.00  0.00     0.205 A 
HETATM    3  O   UNL     1     -44.006  58.793 -55.947  1.00  0.00    -0.286 OA
HETATM    4  C   UNL     1     -43.325  59.942 -57.894  1.00  0.00     0.087 A 
HETATM    5  C   UNL     1     -42.549  59.934 -59.028  1.00  0.00     0.145 A 
HETATM    6  N   UNL     1     -42.650  61.186 -59.610  1.00  0.00    -0.216 N 
HETATM    7  N   UNL     1     -43.616  61.920 -58.977  1.00  0.00    -0.170 NA
HETATM    8  C   UNL     1     -43.970  61.192 -57.907  1.00  0.00     0.069 C 
HETATM    9  C   UNL     1     -44.968  61.713 -56.940  1.00  0.00     0.073 C 
HETATM   10  N   UNL     1     -41.870  58.836 -59.438  1.00  0.00    -0.349 N 
HETATM   11  C   UNL     1     -41.947  57.694 -58.661  1.00  0.00     0.111 A 
HETATM   12  H   UNL     1     -41.482  58.727 -60.375  1.00  0.00     0.167 HD
ENDROOT
BRANCH   1  13
HETATM   13  C   UNL     1     -42.545  56.300 -56.753  1.00  0.00     0.261 C 
HETATM   14  N   UNL     1     -41.760  56.333 -55.620  1.00  0.00    -0.323 N 
HETATM   15  H   UNL     1     -41.356  57.234 -55.362  1.00  0.00     0.169 HD
HETATM   16  O   UNL     1     -43.130  55.313 -57.195  1.00  0.00    -0.267 OA
BRANCH  14  17
HETATM   17  C   UNL     1     -41.376  55.244 -54.808  1.00  0.00     0.035 A 
HETATM   18  C   UNL     1     -40.465  54.262 -55.196  1.00  0.00     0.030 A 
HETATM   19  C   UNL     1     -40.090  53.249 -54.308  1.00  0.00     0.009 A 
HETATM   20  C   UNL     1     -40.613  53.204 -53.010  1.00  0.00    -0.058 A 
HETATM   21  C   UNL     1     -41.546  54.173 -52.629  1.00  0.00     0.009 A 
HETATM   22  C   UNL     1     -41.929  55.179 -53.524  1.00  0.00     0.030 A 
BRANCH  20  23
HETATM   23  C   UNL     1     -40.148  52.149 -52.038  1.00  0.00     0.038 C 
BRANCH  23  24
HETATM   24  C   UNL     1     -39.141  51.194 -52.686  1.00  0.00     0.004 C 
BRANCH  24  25
HETATM   25  C   UNL     1     -39.799  49.881 -53.107  1.00  0.00    -0.004 C 
HETATM   26  C   UNL     1     -39.830  49.739 -54.621  1.00  0.00     0.005 C 
ENDBRANCH  24  25
ENDBRANCH  23  24
ENDBRANCH  20  23
ENDBRANCH  14  17
ENDBRANCH   1  13
BRANCH   6  27
HETATM   27  C   UNL     1     -41.898  61.762 -60.675  1.00  0.00     0.060 A 
HETATM   28  C   UNL     1     -40.685  62.422 -60.443  1.00  0.00     0.032 A 
HETATM   29  C   UNL     1     -39.978  62.992 -61.507  1.00  0.00     0.009 A 
HETATM   30  C   UNL     1     -40.471  62.915 -62.813  1.00  0.00    -0.062 A 
HETATM   31  C   UNL     1     -39.732  63.549 -63.954  1.00  0.00     0.048 C 
HETATM   32  C   UNL     1     -41.698  62.281 -63.039  1.00  0.00     0.009 A 
HETATM   33  C   UNL     1     -42.411  61.715 -61.978  1.00  0.00     0.032 A 
ENDBRANCH   6  27
TORSDOF 6
ENDMDL
MODEL 7
REMARK VINA RESULT:      -7.9     19.799     23.119
REMARK  6 active torsions:
REMARK  status: ('A' for Active; 'I' for Inactive)
REMARK    1  A    between atoms: C_2  and  C_3 
REMARK    2  A    between atoms: C_3  and  C_4 
REMARK    3  A    between atoms: C_4  and  C_5 
REMARK    4  A    between atoms: C_8  and  N_9 
REMARK       I    between atoms: N_9  and  C_10 
REMARK    5  A    between atoms: C_10  and  C_11 
REMARK    6  A    between atoms: N_16  and  C_17 
ROOT
HETATM    1  C   UNL     1     -33.010  40.078 -51.907  1.00  0.00     0.098 A 
HETATM    2  C   UNL     1     -34.020  39.267 -51.140  1.00  0.00     0.205 A 
HETATM    3  O   UNL     1     -35.078  38.897 -51.640  1.00  0.00    -0.286 OA
HETATM    4  C   UNL     1     -33.627  38.963 -49.778  1.00  0.00     0.087 A 
HETATM    5  C   UNL     1     -32.395  39.319 -49.287  1.00  0.00     0.145 A 
HETATM    6  N   UNL     1     -32.305  38.829 -47.994  1.00  0.00    -0.216 N 
HETATM    7  N   UNL     1     -33.519  38.340 -47.594  1.00  0.00    -0.170 NA
HETATM    8  C   UNL     1     -34.290  38.363 -48.692  1.00  0.00     0.069 C 
HETATM    9  C   UNL     1     -35.677  37.838 -48.648  1.00  0.00     0.073 C 
HETATM   10  N   UNL     1     -31.507  40.048 -50.004  1.00  0.00    -0.349 N 
HETATM   11  C   UNL     1     -31.856  40.419 -51.290  1.00  0.00     0.111 A 
HETATM   12  H   UNL     1     -30.699  40.517 -49.596  1.00  0.00     0.167 HD
ENDROOT
BRANCH   1  13
HETATM   13  C   UNL     1     -33.195  40.514 -53.325  1.00  0.00     0.261 C 
HETATM   14  N   UNL     1     -34.448  41.011 -53.615  1.00  0.00    -0.323 N 
HETATM   15  H   UNL     1     -35.106  41.090 -52.839  1.00  0.00     0.169 HD
HETATM   16  O   UNL     1     -32.273  40.375 -54.127  1.00  0.00    -0.267 OA
BRANCH  14  17
HETATM   17  C   UNL     1     -34.966  41.355 -54.882  1.00  0.00     0.035 A 
HETATM   18  C   UNL     1     -34.342  41.046 -56.091  1.00  0.00     0.030 A 
HETATM   19  C   UNL     1     -34.952  41.367 -57.308  1.00  0.00     0.009 A 
HETATM   20  C   UNL     1     -36.202  41.996 -57.339  1.00  0.00    -0.058 A 
HETATM   21  C   UNL     1     -36.815  42.330 -56.128  1.00  0.00     0.009 A 
HETATM   22  C   UNL     1     -36.198  42.018 -54.911  1.00  0.00     0.030 A 
BRANCH  20  23
HETATM   23  C   UNL     1     -36.882  42.274 -58.656  1.00  0.00     0.038 C 
BRANCH  23  24
HETATM   24  C   UNL     1     -37.281  40.975 -59.366  1.00  0.00     0.004 C 
BRANCH  24  25
HETATM   25  C   UNL     1     -38.431  40.271 -58.647  1.00  0.00    -0.004 C 
HETATM   26  C   UNL     1     -38.030  38.874 -58.200  1.00  0.00     0.005 C 
ENDBRANCH  24  25
ENDBRANCH  23  24
ENDBRANCH  20  23
ENDBRANCH  14  17
ENDBRANCH   1  13
BRANCH   6  27
HETATM   27  C   UNL     1     -31.179  38.747 -47.125  1.00  0.00     0.060 A 
HETATM   28  C   UNL     1     -30.734  37.521 -46.615  1.00  0.00     0.032 A 
HETATM   29  C   UNL     1     -29.637  37.474 -45.749  1.00  0.00     0.009 A 
HETATM   30  C   UNL     1     -28.970  38.647 -45.380  1.00  0.00    -0.062 A 
HETATM   31  C   UNL     1     -27.810  38.606 -44.430  1.00  0.00     0.048 C 
HETATM   32  C   UNL     1     -29.434  39.873 -45.866  1.00  0.00     0.009 A 
HETATM   33  C   UNL     1     -30.535  39.926 -46.727  1.00  0.00     0.032 A 
ENDBRANCH   6  27
TORSDOF 6
ENDMDL
MODEL 8
REMARK VINA RESULT:      -7.6      5.516      9.766
REMARK  6 active torsions:
REMARK  status: ('A' for Active; 'I' for Inactive)
REMARK    1  A    between atoms: C_2  and  C_3 
REMARK    2  A    between atoms: C_3  and  C_4 
REMARK    3  A    between atoms: C_4  and  C_5 
REMARK    4  A    between atoms: C_8  and  N_9 
REMARK       I    between atoms: N_9  and  C_10 
REMARK    5  A    between atoms: C_10  and  C_11 
REMARK    6  A    between atoms: N_16  and  C_17 
ROOT
HETATM    1  C   UNL     1     -42.575  58.107 -54.978  1.00  0.00     0.098 A 
HETATM    2  C   UNL     1     -43.009  59.461 -54.484  1.00  0.00     0.205 A 
HETATM    3  O   UNL     1     -43.414  59.641 -53.340  1.00  0.00    -0.286 OA
HETATM    4  C   UNL     1     -42.896  60.518 -55.469  1.00  0.00     0.087 A 
HETATM    5  C   UNL     1     -42.351  60.292 -56.710  1.00  0.00     0.145 A 
HETATM    6  N   UNL     1     -42.325  61.503 -57.381  1.00  0.00    -0.216 N 
HETATM    7  N   UNL     1     -43.010  62.448 -56.667  1.00  0.00    -0.170 NA
HETATM    8  C   UNL     1     -43.293  61.868 -55.490  1.00  0.00     0.069 C 
HETATM    9  C   UNL     1     -43.988  62.630 -54.424  1.00  0.00     0.073 C 
HETATM   10  N   UNL     1     -41.970  59.060 -57.125  1.00  0.00    -0.349 N 
HETATM   11  C   UNL     1     -42.114  58.002 -56.245  1.00  0.00     0.111 A 
HETATM   12  H   UNL     1     -41.784  58.822 -58.099  1.00  0.00     0.167 HD
ENDROOT
BRANCH   1  13
HETATM   13  C   UNL     1     -42.604  56.867 -54.144  1.00  0.00     0.261 C 
HETATM   14  N   UNL     1     -41.390  56.519 -53.591  1.00  0.00    -0.323 N 
HETATM   15  H   UNL     1     -40.609  57.155 -53.749  1.00  0.00     0.169 HD
HETATM   16  O   UNL     1     -43.653  56.236 -54.033  1.00  0.00    -0.267 OA
BRANCH  14  17
HETATM   17  C   UNL     1     -41.072  55.335 -52.890  1.00  0.00     0.035 A 
HETATM   18  C   UNL     1     -41.144  55.204 -51.504  1.00  0.00     0.030 A 
HETATM   19  C   UNL     1     -40.872  53.977 -50.890  1.00  0.00     0.009 A 
HETATM   20  C   UNL     1     -40.531  52.854 -51.654  1.00  0.00    -0.058 A 
HETATM   21  C   UNL     1     -40.432  52.992 -53.042  1.00  0.00     0.009 A 
HETATM   22  C   UNL     1     -40.694  54.223 -53.652  1.00  0.00     0.030 A 
BRANCH  20  23
HETATM   23  C   UNL     1     -40.309  51.519 -50.988  1.00  0.00     0.038 C 
BRANCH  23  24
HETATM   24  C   UNL     1     -39.192  50.728 -51.677  1.00  0.00     0.004 C 
BRANCH  24  25
HETATM   25  C   UNL     1     -39.742  49.526 -52.443  1.00  0.00    -0.004 C 
HETATM   26  C   UNL     1     -39.660  49.744 -53.946  1.00  0.00     0.005 C 
ENDBRANCH  24  25
ENDBRANCH  23  24
ENDBRANCH  20  23
ENDBRANCH  14  17
ENDBRANCH   1  13
BRANCH   6  27
HETATM   27  C   UNL     1     -41.684  61.857 -58.603  1.00  0.00     0.060 A 
HETATM   28  C   UNL     1     -42.222  61.496 -59.845  1.00  0.00     0.032 A 
HETATM   29  C   UNL     1     -41.560  61.842 -61.028  1.00  0.00     0.009 A 
HETATM   30  C   UNL     1     -40.354  62.549 -60.989  1.00  0.00    -0.062 A 
HETATM   31  C   UNL     1     -39.625  62.898 -62.252  1.00  0.00     0.048 C 
HETATM   32  C   UNL     1     -39.803  62.882 -59.747  1.00  0.00     0.009 A 
HETATM   33  C   UNL     1     -40.458  62.533 -58.561  1.00  0.00     0.032 A 
ENDBRANCH   6  27
TORSDOF 6
ENDMDL
MODEL 9
REMARK VINA RESULT:      -7.5      5.112      9.707
REMARK  6 active torsions:
REMARK  status: ('A' for Active; 'I' for Inactive)
REMARK    1  A    between atoms: C_2  and  C_3 
REMARK    2  A    between atoms: C_3  and  C_4 
REMARK    3  A    between atoms: C_4  and  C_5 
REMARK    4  A    between atoms: C_8  and  N_9 
REMARK       I    between atoms: N_9  and  C_10 
REMARK    5  A    between atoms: C_10  and  C_11 
REMARK    6  A    between atoms: N_16  and  C_17 
ROOT
HETATM    1  C   UNL     1     -42.497  57.610 -56.017  1.00  0.00     0.098 A 
HETATM    2  C   UNL     1     -42.603  57.893 -54.543  1.00  0.00     0.205 A 
HETATM    3  O   UNL     1     -43.151  58.902 -54.108  1.00  0.00    -0.286 OA
HETATM    4  C   UNL     1     -42.015  56.874 -53.697  1.00  0.00     0.087 A 
HETATM    5  C   UNL     1     -41.492  55.716 -54.221  1.00  0.00     0.145 A 
HETATM    6  N   UNL     1     -41.075  54.930 -53.160  1.00  0.00    -0.216 N 
HETATM    7  N   UNL     1     -41.149  55.642 -51.993  1.00  0.00    -0.170 NA
HETATM    8  C   UNL     1     -41.775  56.784 -52.314  1.00  0.00     0.069 C 
HETATM    9  C   UNL     1     -42.089  57.789 -51.268  1.00  0.00     0.073 C 
HETATM   10  N   UNL     1     -41.411  55.490 -55.554  1.00  0.00    -0.349 N 
HETATM   11  C   UNL     1     -41.904  56.460 -56.410  1.00  0.00     0.111 A 
HETATM   12  H   UNL     1     -40.832  54.764 -55.972  1.00  0.00     0.167 HD
ENDROOT
BRANCH   1  13
HETATM   13  C   UNL     1     -43.029  58.516 -57.081  1.00  0.00     0.261 C 
HETATM   14  N   UNL     1     -42.091  58.937 -57.999  1.00  0.00    -0.323 N 
HETATM   15  H   UNL     1     -41.149  58.555 -57.908  1.00  0.00     0.169 HD
HETATM   16  O   UNL     1     -44.211  58.850 -57.055  1.00  0.00    -0.267 OA
BRANCH  14  17
HETATM   17  C   UNL     1     -42.255  59.904 -59.015  1.00  0.00     0.035 A 
HETATM   18  C   UNL     1     -42.328  61.277 -58.782  1.00  0.00     0.030 A 
HETATM   19  C   UNL     1     -42.429  62.174 -59.850  1.00  0.00     0.009 A 
HETATM   20  C   UNL     1     -42.448  61.716 -61.172  1.00  0.00    -0.058 A 
HETATM   21  C   UNL     1     -42.401  60.338 -61.405  1.00  0.00     0.009 A 
HETATM   22  C   UNL     1     -42.313  59.441 -60.334  1.00  0.00     0.030 A 
BRANCH  20  23
HETATM   23  C   UNL     1     -42.485  62.696 -62.318  1.00  0.00     0.038 C 
BRANCH  23  24
HETATM   24  C   UNL     1     -41.150  62.729 -63.070  1.00  0.00     0.004 C 
BRANCH  24  25
HETATM   25  C   UNL     1     -40.244  63.849 -62.559  1.00  0.00    -0.004 C 
HETATM   26  C   UNL     1     -39.167  63.308 -61.631  1.00  0.00     0.005 C 
ENDBRANCH  24  25
ENDBRANCH  23  24
ENDBRANCH  20  23
ENDBRANCH  14  17
ENDBRANCH   1  13
BRANCH   6  27
HETATM   27  C   UNL     1     -40.656  53.569 -53.141  1.00  0.00     0.060 A 
HETATM   28  C   UNL     1     -40.795  52.742 -54.263  1.00  0.00     0.032 A 
HETATM   29  C   UNL     1     -40.390  51.405 -54.209  1.00  0.00     0.009 A 
HETATM   30  C   UNL     1     -39.843  50.873 -53.036  1.00  0.00    -0.062 A 
HETATM   31  C   UNL     1     -39.433  49.432 -52.963  1.00  0.00     0.048 C 
HETATM   32  C   UNL     1     -39.732  51.691 -51.907  1.00  0.00     0.009 A 
HETATM   33  C   UNL     1     -40.141  53.028 -51.955  1.00  0.00     0.032 A 
ENDBRANCH   6  27
TORSDOF 6
ENDMDL
MODEL 10
REMARK VINA RESULT:      -7.5      3.679     10.443
REMARK  6 active torsions:
REMARK  status: ('A' for Active; 'I' for Inactive)
REMARK    1  A    between atoms: C_2  and  C_3 
REMARK    2  A    between atoms: C_3  and  C_4 
REMARK    3  A    between atoms: C_4  and  C_5 
REMARK    4  A    between atoms: C_8  and  N_9 
REMARK       I    between atoms: N_9  and  C_10 
REMARK    5  A    between atoms: C_10  and  C_11 
REMARK    6  A    between atoms: N_16  and  C_17 
ROOT
HETATM    1  C   UNL     1     -43.974  58.558 -53.157  1.00  0.00     0.098 A 
HETATM    2  C   UNL     1     -43.985  59.273 -51.832  1.00  0.00     0.205 A 
HETATM    3  O   UNL     1     -43.160  59.037 -50.955  1.00  0.00    -0.286 OA
HETATM    4  C   UNL     1     -45.041  60.256 -51.696  1.00  0.00     0.087 A 
HETATM    5  C   UNL     1     -45.888  60.553 -52.736  1.00  0.00     0.145 A 
HETATM    6  N   UNL     1     -46.729  61.568 -52.311  1.00  0.00    -0.216 N 
HETATM    7  N   UNL     1     -46.558  61.787 -50.971  1.00  0.00    -0.170 NA
HETATM    8  C   UNL     1     -45.498  61.042 -50.623  1.00  0.00     0.069 C 
HETATM    9  C   UNL     1     -44.977  61.079 -49.234  1.00  0.00     0.073 C 
HETATM   10  N   UNL     1     -45.852  59.891 -53.917  1.00  0.00    -0.349 N 
HETATM   11  C   UNL     1     -44.901  58.899 -54.079  1.00  0.00     0.111 A 
HETATM   12  H   UNL     1     -46.599  59.925 -54.609  1.00  0.00     0.167 HD
ENDROOT
BRANCH   1  13
HETATM   13  C   UNL     1     -42.981  57.503 -53.526  1.00  0.00     0.261 C 
HETATM   14  N   UNL     1     -43.202  56.275 -52.939  1.00  0.00    -0.323 N 
HETATM   15  H   UNL     1     -44.039  56.181 -52.363  1.00  0.00     0.169 HD
HETATM   16  O   UNL     1     -42.044  57.786 -54.269  1.00  0.00    -0.267 OA
BRANCH  14  17
HETATM   17  C   UNL     1     -42.362  55.141 -52.973  1.00  0.00     0.035 A 
HETATM   18  C   UNL     1     -42.289  54.255 -54.048  1.00  0.00     0.030 A 
HETATM   19  C   UNL     1     -41.384  53.189 -54.030  1.00  0.00     0.009 A 
HETATM   20  C   UNL     1     -40.528  52.993 -52.939  1.00  0.00    -0.058 A 
HETATM   21  C   UNL     1     -40.620  53.865 -51.850  1.00  0.00     0.009 A 
HETATM   22  C   UNL     1     -41.535  54.925 -51.866  1.00  0.00     0.030 A 
BRANCH  20  23
HETATM   23  C   UNL     1     -39.508  51.883 -52.961  1.00  0.00     0.038 C 
BRANCH  23  24
HETATM   24  C   UNL     1     -39.859  50.819 -54.006  1.00  0.00     0.004 C 
BRANCH  24  25
HETATM   25  C   UNL     1     -39.630  49.406 -53.471  1.00  0.00    -0.004 C 
HETATM   26  C   UNL     1     -39.536  49.399 -51.953  1.00  0.00     0.005 C 
ENDBRANCH  24  25
ENDBRANCH  23  24
ENDBRANCH  20  23
ENDBRANCH  14  17
ENDBRANCH   1  13
BRANCH   6  27
HETATM   27  C   UNL     1     -47.641  62.369 -53.056  1.00  0.00     0.060 A 
HETATM   28  C   UNL     1     -49.026  62.261 -52.880  1.00  0.00     0.032 A 
HETATM   29  C   UNL     1     -49.898  63.049 -53.639  1.00  0.00     0.009 A 
HETATM   30  C   UNL     1     -49.402  63.952 -54.584  1.00  0.00    -0.062 A 
HETATM   31  C   UNL     1     -50.332  64.780 -55.421  1.00  0.00     0.048 C 
HETATM   32  C   UNL     1     -48.020  64.038 -54.780  1.00  0.00     0.009 A 
HETATM   33  C   UNL     1     -47.144  63.248 -54.028  1.00  0.00     0.032 A 
ENDBRANCH   6  27
TORSDOF 6
ENDMDL
