MODEL 1
REMARK VINA RESULT:     -10.1      0.000      0.000
REMARK  7 active torsions:
REMARK  status: ('A' for Active; 'I' for Inactive)
REMARK    1  A    between atoms: C_2  and  C_3 
REMARK    2  A    between atoms: N_16  and  C_17 
REMARK    3  A    between atoms: C_17  and  C_18 
REMARK       I    between atoms: C_18  and  N_19 
REMARK    4  A    between atoms: N_19  and  C_20 
REMARK    5  A    between atoms: C_21  and  C_22 
REMARK       I    between atoms: C_22  and  N_23 
REMARK    6  A    between atoms: N_23  and  C_24 
REMARK    7  A    between atoms: C_24  and  C_25 
ROOT
HETATM    1  C   UNL     1     -42.820  58.317 -55.863  1.00  0.00     0.240 C 
ENDROOT
BRANCH   1   2
HETATM    2  N   UNL     1     -43.337  57.024 -55.491  1.00  0.00    -0.259 N 
HETATM    3  C   UNL     1     -44.496  56.870 -54.815  1.00  0.00     0.326 C 
HETATM    4  N   UNL     1     -44.558  55.603 -54.304  1.00  0.00    -0.321 N 
HETATM    5  O   UNL     1     -45.343  57.721 -54.596  1.00  0.00    -0.247 OA
HETATM    6  C   UNL     1     -43.298  54.878 -54.408  1.00  0.00     0.140 C 
HETATM    7  H   UNL     1     -45.275  55.436 -53.614  1.00  0.00     0.165 HD
HETATM    8  C   UNL     1     -43.464  53.578 -55.191  1.00  0.00     0.055 C 
HETATM    9  C   UNL     1     -42.547  55.926 -55.298  1.00  0.00     0.261 C 
HETATM   10  O   UNL     1     -41.402  55.826 -55.721  1.00  0.00    -0.270 OA
BRANCH   6  11
HETATM   11  C   UNL     1     -42.633  54.647 -53.030  1.00  0.00    -0.010 C 
HETATM   12  C   UNL     1     -41.576  53.698 -52.799  1.00  0.00    -0.017 A 
HETATM   13  C   UNL     1     -41.148  53.461 -51.461  1.00  0.00    -0.025 A 
HETATM   14  C   UNL     1     -40.889  52.966 -53.802  1.00  0.00     0.013 A 
HETATM   15  C   UNL     1     -40.181  52.486 -51.171  1.00  0.00     0.012 A 
HETATM   16  C   UNL     1     -41.671  54.209 -50.402  1.00  0.00     0.012 C 
HETATM   17  C   UNL     1     -39.583  51.744 -52.183  1.00  0.00     0.001 A 
HETATM   18  C   UNL     1     -39.923  51.997 -53.501  1.00  0.00     0.001 A 
HETATM   19  C   UNL     1     -42.604  55.204 -50.637  1.00  0.00     0.002 C 
HETATM   20  C   UNL     1     -43.071  55.418 -51.929  1.00  0.00     0.011 C 
ENDBRANCH   6  11
ENDBRANCH   1   2
BRANCH   1  21
HETATM   21  C   UNL     1     -42.125  59.134 -54.772  1.00  0.00     0.240 C 
HETATM   22  N   UNL     1     -42.086  58.413 -53.582  1.00  0.00    -0.325 N 
HETATM   23  H   UNL     1     -42.846  57.756 -53.452  1.00  0.00     0.169 HD
HETATM   24  O   UNL     1     -41.744  60.292 -54.904  1.00  0.00    -0.271 OA
BRANCH  22  25
HETATM   25  C   UNL     1     -41.388  58.772 -52.410  1.00  0.00     0.050 A 
HETATM   26  C   UNL     1     -41.965  59.145 -51.187  1.00  0.00     0.058 A 
HETATM   27  C   UNL     1     -41.147  59.553 -50.118  1.00  0.00     0.019 A 
HETATM   28  C   UNL     1     -39.761  59.588 -50.255  1.00  0.00     0.001 A 
HETATM   29  C   UNL     1     -39.183  59.241 -51.470  1.00  0.00     0.002 A 
HETATM   30  C   UNL     1     -39.990  58.849 -52.541  1.00  0.00     0.030 A 
BRANCH  26  31
HETATM   31  C   UNL     1     -43.405  59.408 -50.984  1.00  0.00     0.254 C 
HETATM   32  N   UNL     1     -43.705  60.373 -50.057  1.00  0.00    -0.351 N 
HETATM   33  H   UNL     1     -43.073  60.408 -49.256  1.00  0.00     0.163 HD
HETATM   34  O   UNL     1     -44.222  58.850 -51.708  1.00  0.00    -0.268 OA
BRANCH  32  35
HETATM   35  C   UNL     1     -45.086  60.696 -49.784  1.00  0.00     0.187 C 
BRANCH  35  36
HETATM   36  C   UNL     1     -45.295  60.736 -48.316  1.00  0.00     0.070 A 
HETATM   37  O   UNL     1     -46.218  59.872 -47.801  1.00  0.00    -0.325 OA
HETATM   38  C   UNL     1     -46.252  60.079 -46.459  1.00  0.00     0.142 A 
HETATM   39  C   UNL     1     -45.365  61.066 -46.102  1.00  0.00     0.027 A 
HETATM   40  C   UNL     1     -44.748  61.495 -47.301  1.00  0.00     0.036 A 
ENDBRANCH  35  36
ENDBRANCH  32  35
ENDBRANCH  26  31
ENDBRANCH  22  25
ENDBRANCH   1  21
TORSDOF 7
ENDMDL
MODEL 2
REMARK VINA RESULT:      -9.8      3.934      6.901
REMARK  7 active torsions:
REMARK  status: ('A' for Active; 'I' for Inactive)
REMARK    1  A    between atoms: C_2  and  C_3 
REMARK    2  A    between atoms: N_16  and  C_17 
REMARK    3  A    between atoms: C_17  and  C_18 
REMARK       I    between atoms: C_18  and  N_19 
REMARK    4  A    between atoms: N_19  and  C_20 
REMARK    5  A    between atoms: C_21  and  C_22 
REMARK       I    between atoms: C_22  and  N_23 
REMARK    6  A    between atoms: N_23  and  C_24 
REMARK    7  A    between atoms: C_24  and  C_25 
ROOT
HETATM    1  C   UNL     1     -43.690  56.945 -53.622  1.00  0.00     0.240 C 
ENDROOT
BRANCH   1   2
HETATM    2  N   UNL     1     -42.848  55.898 -54.146  1.00  0.00    -0.259 N 
HETATM    3  C   UNL     1     -43.333  54.696 -54.525  1.00  0.00     0.326 C 
HETATM    4  N   UNL     1     -42.300  53.808 -54.642  1.00  0.00    -0.321 N 
HETATM    5  O   UNL     1     -44.504  54.383 -54.670  1.00  0.00    -0.247 OA
HETATM    6  C   UNL     1     -41.044  54.311 -54.103  1.00  0.00     0.140 C 
HETATM    7  H   UNL     1     -42.557  52.835 -54.720  1.00  0.00     0.165 HD
HETATM    8  C   UNL     1     -39.942  54.315 -55.161  1.00  0.00     0.055 C 
HETATM    9  C   UNL     1     -41.521  55.781 -53.847  1.00  0.00     0.261 C 
HETATM   10  O   UNL     1     -40.840  56.693 -53.392  1.00  0.00    -0.270 OA
BRANCH   6  11
HETATM   11  C   UNL     1     -40.611  53.568 -52.817  1.00  0.00    -0.010 C 
HETATM   12  C   UNL     1     -40.190  52.192 -52.789  1.00  0.00    -0.017 A 
HETATM   13  C   UNL     1     -39.964  51.570 -51.527  1.00  0.00    -0.025 A 
HETATM   14  C   UNL     1     -39.957  51.376 -53.926  1.00  0.00     0.013 A 
HETATM   15  C   UNL     1     -39.634  50.208 -51.438  1.00  0.00     0.012 A 
HETATM   16  C   UNL     1     -40.049  52.308 -50.343  1.00  0.00     0.012 C 
HETATM   17  C   UNL     1     -39.482  49.430 -52.580  1.00  0.00     0.001 A 
HETATM   18  C   UNL     1     -39.625  50.019 -53.825  1.00  0.00     0.001 A 
HETATM   19  C   UNL     1     -40.340  53.661 -50.376  1.00  0.00     0.002 C 
HETATM   20  C   UNL     1     -40.613  54.276 -51.593  1.00  0.00     0.011 C 
ENDBRANCH   6  11
ENDBRANCH   1   2
BRANCH   1  21
HETATM   21  C   UNL     1     -44.388  57.856 -54.634  1.00  0.00     0.240 C 
HETATM   22  N   UNL     1     -43.573  58.940 -54.948  1.00  0.00    -0.325 N 
HETATM   23  H   UNL     1     -42.938  59.228 -54.212  1.00  0.00     0.169 HD
HETATM   24  O   UNL     1     -45.536  57.702 -55.034  1.00  0.00    -0.271 OA
BRANCH  22  25
HETATM   25  C   UNL     1     -43.809  59.897 -55.957  1.00  0.00     0.050 A 
HETATM   26  C   UNL     1     -43.587  59.719 -57.331  1.00  0.00     0.058 A 
HETATM   27  C   UNL     1     -43.795  60.787 -58.221  1.00  0.00     0.019 A 
HETATM   28  C   UNL     1     -44.227  62.028 -57.757  1.00  0.00     0.001 A 
HETATM   29  C   UNL     1     -44.429  62.218 -56.396  1.00  0.00     0.002 A 
HETATM   30  C   UNL     1     -44.209  61.166 -55.503  1.00  0.00     0.030 A 
BRANCH  26  31
HETATM   31  C   UNL     1     -42.885  58.562 -57.924  1.00  0.00     0.254 C 
HETATM   32  N   UNL     1     -43.085  58.376 -59.269  1.00  0.00    -0.351 N 
HETATM   33  H   UNL     1     -44.019  58.617 -59.600  1.00  0.00     0.163 HD
HETATM   34  O   UNL     1     -42.104  57.919 -57.233  1.00  0.00    -0.268 OA
BRANCH  32  35
HETATM   35  C   UNL     1     -42.446  57.266 -59.937  1.00  0.00     0.187 C 
BRANCH  35  36
HETATM   36  C   UNL     1     -43.379  56.112 -59.962  1.00  0.00     0.070 A 
HETATM   37  O   UNL     1     -44.141  55.960 -61.084  1.00  0.00    -0.325 OA
HETATM   38  C   UNL     1     -44.915  54.861 -60.893  1.00  0.00     0.142 A 
HETATM   39  C   UNL     1     -44.664  54.302 -59.662  1.00  0.00     0.027 A 
HETATM   40  C   UNL     1     -43.673  55.112 -59.057  1.00  0.00     0.036 A 
ENDBRANCH  35  36
ENDBRANCH  32  35
ENDBRANCH  26  31
ENDBRANCH  22  25
ENDBRANCH   1  21
TORSDOF 7
ENDMDL
MODEL 3
REMARK VINA RESULT:      -9.6      3.369      6.990
REMARK  7 active torsions:
REMARK  status: ('A' for Active; 'I' for Inactive)
REMARK    1  A    between atoms: C_2  and  C_3 
REMARK    2  A    between atoms: N_16  and  C_17 
REMARK    3  A    between atoms: C_17  and  C_18 
REMARK       I    between atoms: C_18  and  N_19 
REMARK    4  A    between atoms: N_19  and  C_20 
REMARK    5  A    between atoms: C_21  and  C_22 
REMARK       I    between atoms: C_22  and  N_23 
REMARK    6  A    between atoms: N_23  and  C_24 
REMARK    7  A    between atoms: C_24  and  C_25 
ROOT
HETATM    1  C   UNL     1     -42.404  58.979 -54.530  1.00  0.00     0.240 C 
ENDROOT
BRANCH   1   2
HETATM    2  N   UNL     1     -43.001  57.702 -54.232  1.00  0.00    -0.259 N 
HETATM    3  C   UNL     1     -43.884  57.528 -53.224  1.00  0.00     0.326 C 
HETATM    4  N   UNL     1     -44.008  56.193 -52.956  1.00  0.00    -0.321 N 
HETATM    5  O   UNL     1     -44.440  58.396 -52.571  1.00  0.00    -0.247 OA
HETATM    6  C   UNL     1     -43.009  55.375 -53.629  1.00  0.00     0.140 C 
HETATM    7  H   UNL     1     -44.479  55.954 -52.096  1.00  0.00     0.165 HD
HETATM    8  C   UNL     1     -43.658  54.315 -54.516  1.00  0.00     0.055 C 
HETATM    9  C   UNL     1     -42.409  56.508 -54.530  1.00  0.00     0.261 C 
HETATM   10  O   UNL     1     -41.503  56.379 -55.345  1.00  0.00    -0.270 OA
BRANCH   6  11
HETATM   11  C   UNL     1     -41.986  54.761 -52.644  1.00  0.00    -0.010 C 
HETATM   12  C   UNL     1     -41.161  53.622 -52.950  1.00  0.00    -0.017 A 
HETATM   13  C   UNL     1     -40.369  53.051 -51.913  1.00  0.00    -0.025 A 
HETATM   14  C   UNL     1     -41.044  53.005 -54.223  1.00  0.00     0.013 A 
HETATM   15  C   UNL     1     -39.612  51.889 -52.135  1.00  0.00     0.012 A 
HETATM   16  C   UNL     1     -40.313  53.644 -50.649  1.00  0.00     0.012 C 
HETATM   17  C   UNL     1     -39.581  51.279 -53.384  1.00  0.00     0.001 A 
HETATM   18  C   UNL     1     -40.282  51.849 -54.434  1.00  0.00     0.001 A 
HETATM   19  C   UNL     1     -41.016  54.807 -50.386  1.00  0.00     0.002 C 
HETATM   20  C   UNL     1     -41.834  55.354 -51.369  1.00  0.00     0.011 C 
ENDBRANCH   6  11
ENDBRANCH   1   2
BRANCH   1  21
HETATM   21  C   UNL     1     -42.828  59.665 -55.830  1.00  0.00     0.240 C 
HETATM   22  N   UNL     1     -41.709  59.980 -56.595  1.00  0.00    -0.325 N 
HETATM   23  H   UNL     1     -40.863  60.158 -56.067  1.00  0.00     0.169 HD
HETATM   24  O   UNL     1     -43.980  59.977 -56.110  1.00  0.00    -0.271 OA
BRANCH  22  25
HETATM   25  C   UNL     1     -41.713  60.470 -57.918  1.00  0.00     0.050 A 
HETATM   26  C   UNL     1     -42.032  59.733 -59.069  1.00  0.00     0.058 A 
HETATM   27  C   UNL     1     -41.922  60.328 -60.339  1.00  0.00     0.019 A 
HETATM   28  C   UNL     1     -41.503  61.650 -60.472  1.00  0.00     0.001 A 
HETATM   29  C   UNL     1     -41.165  62.379 -59.338  1.00  0.00     0.002 A 
HETATM   30  C   UNL     1     -41.257  61.790 -58.074  1.00  0.00     0.030 A 
BRANCH  26  31
HETATM   31  C   UNL     1     -42.230  58.269 -59.101  1.00  0.00     0.254 C 
HETATM   32  N   UNL     1     -43.310  57.803 -58.395  1.00  0.00    -0.351 N 
HETATM   33  H   UNL     1     -43.515  58.316 -57.537  1.00  0.00     0.163 HD
HETATM   34  O   UNL     1     -41.510  57.585 -59.818  1.00  0.00    -0.268 OA
BRANCH  32  35
HETATM   35  C   UNL     1     -43.581  56.385 -58.361  1.00  0.00     0.187 C 
BRANCH  35  36
HETATM   36  C   UNL     1     -44.516  56.042 -59.461  1.00  0.00     0.070 A 
HETATM   37  O   UNL     1     -44.059  55.171 -60.407  1.00  0.00    -0.325 OA
HETATM   38  C   UNL     1     -45.060  55.004 -61.310  1.00  0.00     0.142 A 
HETATM   39  C   UNL     1     -46.155  55.757 -60.960  1.00  0.00     0.027 A 
HETATM   40  C   UNL     1     -45.804  56.432 -59.767  1.00  0.00     0.036 A 
ENDBRANCH  35  36
ENDBRANCH  32  35
ENDBRANCH  26  31
ENDBRANCH  22  25
ENDBRANCH   1  21
TORSDOF 7
ENDMDL
MODEL 4
REMARK VINA RESULT:      -9.5      2.833      6.825
REMARK  7 active torsions:
REMARK  status: ('A' for Active; 'I' for Inactive)
REMARK    1  A    between atoms: C_2  and  C_3 
REMARK    2  A    between atoms: N_16  and  C_17 
REMARK    3  A    between atoms: C_17  and  C_18 
REMARK       I    between atoms: C_18  and  N_19 
REMARK    4  A    between atoms: N_19  and  C_20 
REMARK    5  A    between atoms: C_21  and  C_22 
REMARK       I    between atoms: C_22  and  N_23 
REMARK    6  A    between atoms: N_23  and  C_24 
REMARK    7  A    between atoms: C_24  and  C_25 
ROOT
HETATM    1  C   UNL     1     -42.423  59.614 -51.976  1.00  0.00     0.240 C 
ENDROOT
BRANCH   1   2
HETATM    2  N   UNL     1     -42.098  58.332 -51.403  1.00  0.00    -0.259 N 
HETATM    3  C   UNL     1     -40.867  58.035 -50.932  1.00  0.00     0.326 C 
HETATM    4  N   UNL     1     -40.754  56.681 -50.780  1.00  0.00    -0.321 N 
HETATM    5  O   UNL     1     -39.943  58.809 -50.739  1.00  0.00    -0.247 OA
HETATM    6  C   UNL     1     -41.855  55.940 -51.381  1.00  0.00     0.140 C 
HETATM    7  H   UNL     1     -39.821  56.327 -50.632  1.00  0.00     0.165 HD
HETATM    8  C   UNL     1     -42.570  55.067 -50.353  1.00  0.00     0.055 C 
HETATM    9  C   UNL     1     -42.754  57.177 -51.724  1.00  0.00     0.261 C 
HETATM   10  O   UNL     1     -43.857  57.144 -52.256  1.00  0.00    -0.270 OA
BRANCH   6  11
HETATM   11  C   UNL     1     -41.415  55.132 -52.625  1.00  0.00    -0.010 C 
HETATM   12  C   UNL     1     -40.796  53.834 -52.560  1.00  0.00    -0.017 A 
HETATM   13  C   UNL     1     -40.294  53.253 -53.760  1.00  0.00    -0.025 A 
HETATM   14  C   UNL     1     -40.647  53.047 -51.388  1.00  0.00     0.013 A 
HETATM   15  C   UNL     1     -39.606  52.029 -53.741  1.00  0.00     0.012 A 
HETATM   16  C   UNL     1     -40.488  53.883 -54.993  1.00  0.00     0.012 C 
HETATM   17  C   UNL     1     -39.425  51.326 -52.556  1.00  0.00     0.001 A 
HETATM   18  C   UNL     1     -39.962  51.826 -51.382  1.00  0.00     0.001 A 
HETATM   19  C   UNL     1     -41.186  55.076 -55.071  1.00  0.00     0.002 C 
HETATM   20  C   UNL     1     -41.642  55.684 -53.907  1.00  0.00     0.011 C 
ENDBRANCH   6  11
ENDBRANCH   1   2
BRANCH   1  21
HETATM   21  C   UNL     1     -42.100  59.822 -53.457  1.00  0.00     0.240 C 
HETATM   22  N   UNL     1     -43.249  60.186 -54.153  1.00  0.00    -0.325 N 
HETATM   23  H   UNL     1     -44.117  59.831 -53.768  1.00  0.00     0.169 HD
HETATM   24  O   UNL     1     -41.008  59.605 -53.969  1.00  0.00    -0.271 OA
BRANCH  22  25
HETATM   25  C   UNL     1     -43.311  60.615 -55.495  1.00  0.00     0.050 A 
HETATM   26  C   UNL     1     -43.576  59.804 -56.609  1.00  0.00     0.058 A 
HETATM   27  C   UNL     1     -43.533  60.350 -57.904  1.00  0.00     0.019 A 
HETATM   28  C   UNL     1     -43.235  61.697 -58.099  1.00  0.00     0.001 A 
HETATM   29  C   UNL     1     -42.951  62.502 -57.003  1.00  0.00     0.002 A 
HETATM   30  C   UNL     1     -42.977  61.962 -55.714  1.00  0.00     0.030 A 
BRANCH  26  31
HETATM   31  C   UNL     1     -43.642  58.328 -56.575  1.00  0.00     0.254 C 
HETATM   32  N   UNL     1     -43.183  57.689 -57.699  1.00  0.00    -0.351 N 
HETATM   33  H   UNL     1     -43.371  58.177 -58.575  1.00  0.00     0.163 HD
HETATM   34  O   UNL     1     -43.988  57.769 -55.540  1.00  0.00    -0.268 OA
BRANCH  32  35
HETATM   35  C   UNL     1     -43.215  56.247 -57.762  1.00  0.00     0.187 C 
BRANCH  35  36
HETATM   36  C   UNL     1     -44.037  55.829 -58.925  1.00  0.00     0.070 A 
HETATM   37  O   UNL     1     -44.933  56.740 -59.404  1.00  0.00    -0.325 OA
HETATM   38  C   UNL     1     -45.574  56.156 -60.450  1.00  0.00     0.142 A 
HETATM   39  C   UNL     1     -45.104  54.880 -60.650  1.00  0.00     0.027 A 
HETATM   40  C   UNL     1     -44.113  54.665 -59.663  1.00  0.00     0.036 A 
ENDBRANCH  35  36
ENDBRANCH  32  35
ENDBRANCH  26  31
ENDBRANCH  22  25
ENDBRANCH   1  21
TORSDOF 7
ENDMDL
MODEL 5
REMARK VINA RESULT:      -9.4      3.312      7.344
REMARK  7 active torsions:
REMARK  status: ('A' for Active; 'I' for Inactive)
REMARK    1  A    between atoms: C_2  and  C_3 
REMARK    2  A    between atoms: N_16  and  C_17 
REMARK    3  A    between atoms: C_17  and  C_18 
REMARK       I    between atoms: C_18  and  N_19 
REMARK    4  A    between atoms: N_19  and  C_20 
REMARK    5  A    between atoms: C_21  and  C_22 
REMARK       I    between atoms: C_22  and  N_23 
REMARK    6  A    between atoms: N_23  and  C_24 
REMARK    7  A    between atoms: C_24  and  C_25 
ROOT
HETATM    1  C   UNL     1     -43.796  58.891 -53.819  1.00  0.00     0.240 C 
ENDROOT
BRANCH   1   2
HETATM    2  N   UNL     1     -42.725  58.319 -53.043  1.00  0.00    -0.259 N 
HETATM    3  C   UNL     1     -41.429  58.649 -53.236  1.00  0.00     0.326 C 
HETATM    4  N   UNL     1     -40.630  57.722 -52.625  1.00  0.00    -0.321 N 
HETATM    5  O   UNL     1     -40.992  59.567 -53.911  1.00  0.00    -0.247 OA
HETATM    6  C   UNL     1     -41.357  56.546 -52.169  1.00  0.00     0.140 C 
HETATM    7  H   UNL     1     -39.651  57.748 -52.871  1.00  0.00     0.165 HD
HETATM    8  C   UNL     1     -41.183  56.327 -50.668  1.00  0.00     0.055 C 
HETATM    9  C   UNL     1     -42.799  57.091 -52.449  1.00  0.00     0.261 C 
HETATM   10  O   UNL     1     -43.850  56.500 -52.233  1.00  0.00    -0.270 OA
BRANCH   6  11
HETATM   11  C   UNL     1     -41.005  55.279 -52.985  1.00  0.00    -0.010 C 
HETATM   12  C   UNL     1     -40.670  54.011 -52.393  1.00  0.00    -0.017 A 
HETATM   13  C   UNL     1     -40.214  52.959 -53.239  1.00  0.00    -0.025 A 
HETATM   14  C   UNL     1     -40.767  53.691 -51.013  1.00  0.00     0.013 A 
HETATM   15  C   UNL     1     -39.793  51.730 -52.706  1.00  0.00     0.012 A 
HETATM   16  C   UNL     1     -40.189  53.119 -54.627  1.00  0.00     0.012 C 
HETATM   17  C   UNL     1     -39.843  51.486 -51.338  1.00  0.00     0.001 A 
HETATM   18  C   UNL     1     -40.347  52.461 -50.493  1.00  0.00     0.001 A 
HETATM   19  C   UNL     1     -40.622  54.300 -55.206  1.00  0.00     0.002 C 
HETATM   20  C   UNL     1     -41.025  55.356 -54.397  1.00  0.00     0.011 C 
ENDBRANCH   6  11
ENDBRANCH   1   2
BRANCH   1  21
HETATM   21  C   UNL     1     -44.132  58.219 -55.152  1.00  0.00     0.240 C 
HETATM   22  N   UNL     1     -43.041  58.289 -56.014  1.00  0.00    -0.325 N 
HETATM   23  H   UNL     1     -42.435  59.090 -55.877  1.00  0.00     0.169 HD
HETATM   24  O   UNL     1     -45.233  57.770 -55.449  1.00  0.00    -0.271 OA
BRANCH  22  25
HETATM   25  C   UNL     1     -42.921  57.644 -57.262  1.00  0.00     0.050 A 
HETATM   26  C   UNL     1     -42.781  58.275 -58.508  1.00  0.00     0.058 A 
HETATM   27  C   UNL     1     -42.747  57.508 -59.686  1.00  0.00     0.019 A 
HETATM   28  C   UNL     1     -42.844  56.119 -59.635  1.00  0.00     0.001 A 
HETATM   29  C   UNL     1     -43.004  55.488 -58.407  1.00  0.00     0.002 A 
HETATM   30  C   UNL     1     -43.054  56.245 -57.233  1.00  0.00     0.030 A 
BRANCH  26  31
HETATM   31  C   UNL     1     -42.932  59.728 -58.734  1.00  0.00     0.254 C 
HETATM   32  N   UNL     1     -42.503  60.184 -59.954  1.00  0.00    -0.351 N 
HETATM   33  H   UNL     1     -41.684  59.703 -60.327  1.00  0.00     0.163 HD
HETATM   34  O   UNL     1     -43.512  60.405 -57.894  1.00  0.00    -0.268 OA
BRANCH  32  35
HETATM   35  C   UNL     1     -42.603  61.591 -60.265  1.00  0.00     0.187 C 
BRANCH  35  36
HETATM   36  C   UNL     1     -41.278  62.228 -60.065  1.00  0.00     0.070 A 
HETATM   37  O   UNL     1     -40.644  62.692 -61.181  1.00  0.00    -0.325 OA
HETATM   38  C   UNL     1     -39.462  63.224 -60.774  1.00  0.00     0.142 A 
HETATM   39  C   UNL     1     -39.325  63.107 -59.411  1.00  0.00     0.027 A 
HETATM   40  C   UNL     1     -40.497  62.461 -58.951  1.00  0.00     0.036 A 
ENDBRANCH  35  36
ENDBRANCH  32  35
ENDBRANCH  26  31
ENDBRANCH  22  25
ENDBRANCH   1  21
TORSDOF 7
ENDMDL
MODEL 6
REMARK VINA RESULT:      -9.4      3.002      6.889
REMARK  7 active torsions:
REMARK  status: ('A' for Active; 'I' for Inactive)
REMARK    1  A    between atoms: C_2  and  C_3 
REMARK    2  A    between atoms: N_16  and  C_17 
REMARK    3  A    between atoms: C_17  and  C_18 
REMARK       I    between atoms: C_18  and  N_19 
REMARK    4  A    between atoms: N_19  and  C_20 
REMARK    5  A    between atoms: C_21  and  C_22 
REMARK       I    between atoms: C_22  and  N_23 
REMARK    6  A    between atoms: N_23  and  C_24 
REMARK    7  A    between atoms: C_24  and  C_25 
ROOT
HETATM    1  C   UNL     1     -42.514  58.944 -53.174  1.00  0.00     0.240 C 
ENDROOT
BRANCH   1   2
HETATM    2  N   UNL     1     -43.065  57.615 -53.094  1.00  0.00    -0.259 N 
HETATM    3  C   UNL     1     -43.940  57.246 -52.134  1.00  0.00     0.326 C 
HETATM    4  N   UNL     1     -44.017  55.882 -52.091  1.00  0.00    -0.321 N 
HETATM    5  O   UNL     1     -44.527  57.974 -51.349  1.00  0.00    -0.247 OA
HETATM    6  C   UNL     1     -42.989  55.222 -52.884  1.00  0.00     0.140 C 
HETATM    7  H   UNL     1     -44.478  55.487 -51.284  1.00  0.00     0.165 HD
HETATM    8  C   UNL     1     -43.600  54.301 -53.938  1.00  0.00     0.055 C 
HETATM    9  C   UNL     1     -42.430  56.508 -53.582  1.00  0.00     0.261 C 
HETATM   10  O   UNL     1     -41.521  56.548 -54.402  1.00  0.00    -0.270 OA
BRANCH   6  11
HETATM   11  C   UNL     1     -41.944  54.490 -52.008  1.00  0.00    -0.010 C 
HETATM   12  C   UNL     1     -41.075  53.451 -52.495  1.00  0.00    -0.017 A 
HETATM   13  C   UNL     1     -40.263  52.744 -51.562  1.00  0.00    -0.025 A 
HETATM   14  C   UNL     1     -40.933  53.062 -53.853  1.00  0.00     0.013 A 
HETATM   15  C   UNL     1     -39.461  51.666 -51.970  1.00  0.00     0.012 A 
HETATM   16  C   UNL     1     -40.232  53.118 -50.216  1.00  0.00     0.012 C 
HETATM   17  C   UNL     1     -39.405  51.276 -53.304  1.00  0.00     0.001 A 
HETATM   18  C   UNL     1     -40.127  51.987 -54.248  1.00  0.00     0.001 A 
HETATM   19  C   UNL     1     -40.979  54.193 -49.767  1.00  0.00     0.002 C 
HETATM   20  C   UNL     1     -41.816  54.866 -50.651  1.00  0.00     0.011 C 
ENDBRANCH   6  11
ENDBRANCH   1   2
BRANCH   1  21
HETATM   21  C   UNL     1     -42.444  59.592 -54.559  1.00  0.00     0.240 C 
HETATM   22  N   UNL     1     -43.701  59.581 -55.158  1.00  0.00    -0.325 N 
HETATM   23  H   UNL     1     -44.304  58.817 -54.878  1.00  0.00     0.169 HD
HETATM   24  O   UNL     1     -41.412  59.977 -55.098  1.00  0.00    -0.271 OA
BRANCH  22  25
HETATM   25  C   UNL     1     -44.058  60.229 -56.359  1.00  0.00     0.050 A 
HETATM   26  C   UNL     1     -44.020  59.666 -57.644  1.00  0.00     0.058 A 
HETATM   27  C   UNL     1     -44.333  60.451 -58.767  1.00  0.00     0.019 A 
HETATM   28  C   UNL     1     -44.689  61.791 -58.622  1.00  0.00     0.001 A 
HETATM   29  C   UNL     1     -44.708  62.362 -57.356  1.00  0.00     0.002 A 
HETATM   30  C   UNL     1     -44.383  61.591 -56.236  1.00  0.00     0.030 A 
BRANCH  26  31
HETATM   31  C   UNL     1     -43.414  58.358 -57.968  1.00  0.00     0.254 C 
HETATM   32  N   UNL     1     -42.991  58.207 -59.265  1.00  0.00    -0.351 N 
HETATM   33  H   UNL     1     -43.572  58.675 -59.961  1.00  0.00     0.163 HD
HETATM   34  O   UNL     1     -43.227  57.546 -57.069  1.00  0.00    -0.268 OA
BRANCH  32  35
HETATM   35  C   UNL     1     -42.392  56.961 -59.679  1.00  0.00     0.187 C 
BRANCH  35  36
HETATM   36  C   UNL     1     -43.463  55.965 -59.926  1.00  0.00     0.070 A 
HETATM   37  O   UNL     1     -44.176  56.099 -61.082  1.00  0.00    -0.325 OA
HETATM   38  C   UNL     1     -45.095  55.100 -61.102  1.00  0.00     0.142 A 
HETATM   39  C   UNL     1     -44.988  54.324 -59.973  1.00  0.00     0.027 A 
HETATM   40  C   UNL     1     -43.936  54.884 -59.209  1.00  0.00     0.036 A 
ENDBRANCH  35  36
ENDBRANCH  32  35
ENDBRANCH  26  31
ENDBRANCH  22  25
ENDBRANCH   1  21
TORSDOF 7
ENDMDL
MODEL 7
REMARK VINA RESULT:      -9.3      2.161      3.946
REMARK  7 active torsions:
REMARK  status: ('A' for Active; 'I' for Inactive)
REMARK    1  A    between atoms: C_2  and  C_3 
REMARK    2  A    between atoms: N_16  and  C_17 
REMARK    3  A    between atoms: C_17  and  C_18 
REMARK       I    between atoms: C_18  and  N_19 
REMARK    4  A    between atoms: N_19  and  C_20 
REMARK    5  A    between atoms: C_21  and  C_22 
REMARK       I    between atoms: C_22  and  N_23 
REMARK    6  A    between atoms: N_23  and  C_24 
REMARK    7  A    between atoms: C_24  and  C_25 
ROOT
HETATM    1  C   UNL     1     -42.984  58.957 -51.449  1.00  0.00     0.240 C 
ENDROOT
BRANCH   1   2
HETATM    2  N   UNL     1     -43.358  57.631 -51.872  1.00  0.00    -0.259 N 
HETATM    3  C   UNL     1     -44.263  56.882 -51.206  1.00  0.00     0.326 C 
HETATM    4  N   UNL     1     -44.161  55.580 -51.613  1.00  0.00    -0.321 N 
HETATM    5  O   UNL     1     -45.012  57.247 -50.314  1.00  0.00    -0.247 OA
HETATM    6  C   UNL     1     -42.985  55.324 -52.433  1.00  0.00     0.140 C 
HETATM    7  H   UNL     1     -44.640  54.898 -51.043  1.00  0.00     0.165 HD
HETATM    8  C   UNL     1     -43.367  54.753 -53.797  1.00  0.00     0.055 C 
HETATM    9  C   UNL     1     -42.539  56.816 -52.601  1.00  0.00     0.261 C 
HETATM   10  O   UNL     1     -41.571  57.213 -53.237  1.00  0.00    -0.270 OA
BRANCH   6  11
HETATM   11  C   UNL     1     -41.939  54.444 -51.707  1.00  0.00    -0.010 C 
HETATM   12  C   UNL     1     -41.092  53.490 -52.374  1.00  0.00    -0.017 A 
HETATM   13  C   UNL     1     -40.277  52.628 -51.585  1.00  0.00    -0.025 A 
HETATM   14  C   UNL     1     -40.973  53.330 -53.779  1.00  0.00     0.013 A 
HETATM   15  C   UNL     1     -39.496  51.623 -52.179  1.00  0.00     0.012 A 
HETATM   16  C   UNL     1     -40.222  52.772 -50.196  1.00  0.00     0.012 C 
HETATM   17  C   UNL     1     -39.464  51.461 -53.559  1.00  0.00     0.001 A 
HETATM   18  C   UNL     1     -40.189  52.327 -54.361  1.00  0.00     0.001 A 
HETATM   19  C   UNL     1     -40.948  53.766 -49.563  1.00  0.00     0.002 C 
HETATM   20  C   UNL     1     -41.787  54.587 -50.308  1.00  0.00     0.011 C 
ENDBRANCH   6  11
ENDBRANCH   1   2
BRANCH   1  21
HETATM   21  C   UNL     1     -43.818  60.124 -51.980  1.00  0.00     0.240 C 
HETATM   22  N   UNL     1     -45.048  60.171 -51.330  1.00  0.00    -0.325 N 
HETATM   23  H   UNL     1     -45.398  59.277 -51.005  1.00  0.00     0.169 HD
HETATM   24  O   UNL     1     -43.488  60.852 -52.910  1.00  0.00    -0.271 OA
BRANCH  22  25
HETATM   25  C   UNL     1     -46.011  61.197 -51.437  1.00  0.00     0.050 A 
HETATM   26  C   UNL     1     -46.307  62.156 -50.457  1.00  0.00     0.058 A 
HETATM   27  C   UNL     1     -47.347  63.079 -50.666  1.00  0.00     0.019 A 
HETATM   28  C   UNL     1     -48.090  63.059 -51.844  1.00  0.00     0.001 A 
HETATM   29  C   UNL     1     -47.817  62.098 -52.811  1.00  0.00     0.002 A 
HETATM   30  C   UNL     1     -46.795  61.168 -52.603  1.00  0.00     0.030 A 
BRANCH  26  31
HETATM   31  C   UNL     1     -45.790  62.128 -49.072  1.00  0.00     0.254 C 
HETATM   32  N   UNL     1     -46.727  62.317 -48.088  1.00  0.00    -0.351 N 
HETATM   33  H   UNL     1     -47.476  62.967 -48.328  1.00  0.00     0.163 HD
HETATM   34  O   UNL     1     -44.615  61.839 -48.879  1.00  0.00    -0.268 OA
BRANCH  32  35
HETATM   35  C   UNL     1     -46.316  62.313 -46.703  1.00  0.00     0.187 C 
BRANCH  35  36
HETATM   36  C   UNL     1     -46.491  60.948 -46.148  1.00  0.00     0.070 A 
HETATM   37  O   UNL     1     -47.724  60.379 -46.289  1.00  0.00    -0.325 OA
HETATM   38  C   UNL     1     -47.664  59.151 -45.713  1.00  0.00     0.142 A 
HETATM   39  C   UNL     1     -46.409  58.920 -45.201  1.00  0.00     0.027 A 
HETATM   40  C   UNL     1     -45.651  60.082 -45.478  1.00  0.00     0.036 A 
ENDBRANCH  35  36
ENDBRANCH  32  35
ENDBRANCH  26  31
ENDBRANCH  22  25
ENDBRANCH   1  21
TORSDOF 7
ENDMDL
MODEL 8
REMARK VINA RESULT:      -9.3      3.346      5.337
REMARK  7 active torsions:
REMARK  status: ('A' for Active; 'I' for Inactive)
REMARK    1  A    between atoms: C_2  and  C_3 
REMARK    2  A    between atoms: N_16  and  C_17 
REMARK    3  A    between atoms: C_17  and  C_18 
REMARK       I    between atoms: C_18  and  N_19 
REMARK    4  A    between atoms: N_19  and  C_20 
REMARK    5  A    between atoms: C_21  and  C_22 
REMARK       I    between atoms: C_22  and  N_23 
REMARK    6  A    between atoms: N_23  and  C_24 
REMARK    7  A    between atoms: C_24  and  C_25 
ROOT
HETATM    1  C   UNL     1     -44.526  58.372 -51.867  1.00  0.00     0.240 C 
ENDROOT
BRANCH   1   2
HETATM    2  N   UNL     1     -43.221  57.875 -51.511  1.00  0.00    -0.259 N 
HETATM    3  C   UNL     1     -42.079  58.499 -51.874  1.00  0.00     0.326 C 
HETATM    4  N   UNL     1     -41.024  57.645 -51.711  1.00  0.00    -0.321 N 
HETATM    5  O   UNL     1     -41.967  59.616 -52.354  1.00  0.00    -0.247 OA
HETATM    6  C   UNL     1     -41.431  56.271 -51.445  1.00  0.00     0.140 C 
HETATM    7  H   UNL     1     -40.154  57.926 -52.139  1.00  0.00     0.165 HD
HETATM    8  C   UNL     1     -40.853  55.762 -50.126  1.00  0.00     0.055 C 
HETATM    9  C   UNL     1     -42.961  56.556 -51.265  1.00  0.00     0.261 C 
HETATM   10  O   UNL     1     -43.824  55.728 -51.001  1.00  0.00    -0.270 OA
BRANCH   6  11
HETATM   11  C   UNL     1     -41.113  55.321 -52.624  1.00  0.00    -0.010 C 
HETATM   12  C   UNL     1     -40.667  53.962 -52.462  1.00  0.00    -0.017 A 
HETATM   13  C   UNL     1     -40.258  53.233 -53.615  1.00  0.00    -0.025 A 
HETATM   14  C   UNL     1     -40.607  53.253 -51.233  1.00  0.00     0.013 A 
HETATM   15  C   UNL     1     -39.734  51.935 -53.504  1.00  0.00     0.012 A 
HETATM   16  C   UNL     1     -40.383  53.788 -54.892  1.00  0.00     0.012 C 
HETATM   17  C   UNL     1     -39.632  51.305 -52.269  1.00  0.00     0.001 A 
HETATM   18  C   UNL     1     -40.086  51.957 -51.135  1.00  0.00     0.001 A 
HETATM   19  C   UNL     1     -40.922  55.052 -55.059  1.00  0.00     0.002 C 
HETATM   20  C   UNL     1     -41.282  55.800 -53.944  1.00  0.00     0.011 C 
ENDBRANCH   6  11
ENDBRANCH   1   2
BRANCH   1  21
HETATM   21  C   UNL     1     -45.310  59.119 -50.786  1.00  0.00     0.240 C 
HETATM   22  N   UNL     1     -44.710  60.346 -50.517  1.00  0.00    -0.325 N 
HETATM   23  H   UNL     1     -43.708  60.376 -50.666  1.00  0.00     0.169 HD
HETATM   24  O   UNL     1     -46.271  58.659 -50.179  1.00  0.00    -0.271 OA
BRANCH  22  25
HETATM   25  C   UNL     1     -45.235  61.370 -49.702  1.00  0.00     0.050 A 
HETATM   26  C   UNL     1     -46.260  62.261 -50.054  1.00  0.00     0.058 A 
HETATM   27  C   UNL     1     -46.636  63.287 -49.169  1.00  0.00     0.019 A 
HETATM   28  C   UNL     1     -46.004  63.431 -47.935  1.00  0.00     0.001 A 
HETATM   29  C   UNL     1     -44.974  62.566 -47.588  1.00  0.00     0.002 A 
HETATM   30  C   UNL     1     -44.585  61.553 -48.469  1.00  0.00     0.030 A 
BRANCH  26  31
HETATM   31  C   UNL     1     -46.826  62.394 -51.412  1.00  0.00     0.254 C 
HETATM   32  N   UNL     1     -48.051  63.006 -51.485  1.00  0.00    -0.351 N 
HETATM   33  H   UNL     1     -48.675  62.810 -50.702  1.00  0.00     0.163 HD
HETATM   34  O   UNL     1     -46.147  62.062 -52.377  1.00  0.00    -0.268 OA
BRANCH  32  35
HETATM   35  C   UNL     1     -48.688  63.175 -52.770  1.00  0.00     0.187 C 
BRANCH  35  36
HETATM   36  C   UNL     1     -50.108  62.757 -52.667  1.00  0.00     0.070 A 
HETATM   37  O   UNL     1     -50.497  61.700 -53.438  1.00  0.00    -0.325 OA
HETATM   38  C   UNL     1     -51.817  61.494 -53.195  1.00  0.00     0.142 A 
HETATM   39  C   UNL     1     -52.286  62.406 -52.280  1.00  0.00     0.027 A 
HETATM   40  C   UNL     1     -51.184  63.226 -51.940  1.00  0.00     0.036 A 
ENDBRANCH  35  36
ENDBRANCH  32  35
ENDBRANCH  26  31
ENDBRANCH  22  25
ENDBRANCH   1  21
TORSDOF 7
ENDMDL
MODEL 9
REMARK VINA RESULT:      -9.2      3.387      6.964
REMARK  7 active torsions:
REMARK  status: ('A' for Active; 'I' for Inactive)
REMARK    1  A    between atoms: C_2  and  C_3 
REMARK    2  A    between atoms: N_16  and  C_17 
REMARK    3  A    between atoms: C_17  and  C_18 
REMARK       I    between atoms: C_18  and  N_19 
REMARK    4  A    between atoms: N_19  and  C_20 
REMARK    5  A    between atoms: C_21  and  C_22 
REMARK       I    between atoms: C_22  and  N_23 
REMARK    6  A    between atoms: N_23  and  C_24 
REMARK    7  A    between atoms: C_24  and  C_25 
ROOT
HETATM    1  C   UNL     1     -42.083  58.178 -53.467  1.00  0.00     0.240 C 
ENDROOT
BRANCH   1   2
HETATM    2  N   UNL     1     -42.662  56.889 -53.752  1.00  0.00    -0.259 N 
HETATM    3  C   UNL     1     -43.606  56.324 -52.968  1.00  0.00     0.326 C 
HETATM    4  N   UNL     1     -43.709  54.995 -53.270  1.00  0.00    -0.321 N 
HETATM    5  O   UNL     1     -44.232  56.856 -52.065  1.00  0.00    -0.247 OA
HETATM    6  C   UNL     1     -42.642  54.516 -54.138  1.00  0.00     0.140 C 
HETATM    7  H   UNL     1     -44.231  54.430 -52.616  1.00  0.00     0.165 HD
HETATM    8  C   UNL     1     -43.197  53.904 -55.422  1.00  0.00     0.055 C 
HETATM    9  C   UNL     1     -42.015  55.915 -54.460  1.00  0.00     0.261 C 
HETATM   10  O   UNL     1     -41.053  56.125 -55.188  1.00  0.00    -0.270 OA
BRANCH   6  11
HETATM   11  C   UNL     1     -41.672  53.556 -53.409  1.00  0.00    -0.010 C 
HETATM   12  C   UNL     1     -41.415  53.599 -51.993  1.00  0.00    -0.017 A 
HETATM   13  C   UNL     1     -40.388  52.768 -51.458  1.00  0.00    -0.025 A 
HETATM   14  C   UNL     1     -42.114  54.396 -51.050  1.00  0.00     0.013 A 
HETATM   15  C   UNL     1     -40.038  52.831 -50.100  1.00  0.00     0.012 A 
HETATM   16  C   UNL     1     -39.711  51.856 -52.273  1.00  0.00     0.012 C 
HETATM   17  C   UNL     1     -40.707  53.679 -49.225  1.00  0.00     0.001 A 
HETATM   18  C   UNL     1     -41.759  54.448 -49.696  1.00  0.00     0.001 A 
HETATM   19  C   UNL     1     -40.038  51.732 -53.612  1.00  0.00     0.002 C 
HETATM   20  C   UNL     1     -41.003  52.566 -54.165  1.00  0.00     0.011 C 
ENDBRANCH   6  11
ENDBRANCH   1   2
BRANCH   1  21
HETATM   21  C   UNL     1     -42.234  59.265 -54.532  1.00  0.00     0.240 C 
HETATM   22  N   UNL     1     -43.468  59.150 -55.166  1.00  0.00    -0.325 N 
HETATM   23  H   UNL     1     -43.846  58.211 -55.204  1.00  0.00     0.169 HD
HETATM   24  O   UNL     1     -41.356  60.061 -54.847  1.00  0.00    -0.271 OA
BRANCH  22  25
HETATM   25  C   UNL     1     -44.024  60.066 -56.083  1.00  0.00     0.050 A 
HETATM   26  C   UNL     1     -43.987  59.959 -57.482  1.00  0.00     0.058 A 
HETATM   27  C   UNL     1     -44.518  60.987 -58.281  1.00  0.00     0.019 A 
HETATM   28  C   UNL     1     -45.091  62.116 -57.701  1.00  0.00     0.001 A 
HETATM   29  C   UNL     1     -45.113  62.240 -56.317  1.00  0.00     0.002 A 
HETATM   30  C   UNL     1     -44.573  61.229 -55.516  1.00  0.00     0.030 A 
BRANCH  26  31
HETATM   31  C   UNL     1     -43.187  58.963 -58.226  1.00  0.00     0.254 C 
HETATM   32  N   UNL     1     -43.688  58.598 -59.450  1.00  0.00    -0.351 N 
HETATM   33  H   UNL     1     -44.706  58.560 -59.502  1.00  0.00     0.163 HD
HETATM   34  O   UNL     1     -42.103  58.611 -57.776  1.00  0.00    -0.268 OA
BRANCH  32  35
HETATM   35  C   UNL     1     -42.980  57.625 -60.248  1.00  0.00     0.187 C 
BRANCH  35  36
HETATM   36  C   UNL     1     -43.643  56.306 -60.106  1.00  0.00     0.070 A 
HETATM   37  O   UNL     1     -44.415  55.888 -61.152  1.00  0.00    -0.325 OA
HETATM   38  C   UNL     1     -44.923  54.676 -60.812  1.00  0.00     0.142 A 
HETATM   39  C   UNL     1     -44.491  54.306 -59.561  1.00  0.00     0.027 A 
HETATM   40  C   UNL     1     -43.667  55.360 -59.101  1.00  0.00     0.036 A 
ENDBRANCH  35  36
ENDBRANCH  32  35
ENDBRANCH  26  31
ENDBRANCH  22  25
ENDBRANCH   1  21
TORSDOF 7
ENDMDL
MODEL 10
REMARK VINA RESULT:      -8.9      2.367      5.447
REMARK  7 active torsions:
REMARK  status: ('A' for Active; 'I' for Inactive)
REMARK    1  A    between atoms: C_2  and  C_3 
REMARK    2  A    between atoms: N_16  and  C_17 
REMARK    3  A    between atoms: C_17  and  C_18 
REMARK       I    between atoms: C_18  and  N_19 
REMARK    4  A    between atoms: N_19  and  C_20 
REMARK    5  A    between atoms: C_21  and  C_22 
REMARK       I    between atoms: C_22  and  N_23 
REMARK    6  A    between atoms: N_23  and  C_24 
REMARK    7  A    between atoms: C_24  and  C_25 
ROOT
HETATM    1  C   UNL     1     -44.003  57.132 -51.647  1.00  0.00     0.240 C 
ENDROOT
BRANCH   1   2
HETATM    2  N   UNL     1     -42.887  56.628 -50.887  1.00  0.00    -0.259 N 
HETATM    3  C   UNL     1     -41.652  57.171 -50.961  1.00  0.00     0.326 C 
HETATM    4  N   UNL     1     -40.742  56.301 -50.426  1.00  0.00    -0.321 N 
HETATM    5  O   UNL     1     -41.338  58.226 -51.487  1.00  0.00    -0.247 OA
HETATM    6  C   UNL     1     -41.295  54.978 -50.166  1.00  0.00     0.140 C 
HETATM    7  H   UNL     1     -39.771  56.505 -50.609  1.00  0.00     0.165 HD
HETATM    8  C   UNL     1     -41.147  54.589 -48.697  1.00  0.00     0.055 C 
HETATM    9  C   UNL     1     -42.792  55.334 -50.460  1.00  0.00     0.261 C 
HETATM   10  O   UNL     1     -43.745  54.569 -50.382  1.00  0.00    -0.270 OA
BRANCH   6  11
HETATM   11  C   UNL     1     -40.718  53.899 -51.114  1.00  0.00    -0.010 C 
HETATM   12  C   UNL     1     -40.642  54.045 -52.544  1.00  0.00    -0.017 A 
HETATM   13  C   UNL     1     -40.235  52.926 -53.326  1.00  0.00    -0.025 A 
HETATM   14  C   UNL     1     -40.925  55.232 -53.269  1.00  0.00     0.013 A 
HETATM   15  C   UNL     1     -40.225  52.987 -54.729  1.00  0.00     0.012 A 
HETATM   16  C   UNL     1     -39.819  51.741 -52.714  1.00  0.00     0.012 C 
HETATM   17  C   UNL     1     -40.577  54.153 -55.399  1.00  0.00     0.001 A 
HETATM   18  C   UNL     1     -40.909  55.282 -54.669  1.00  0.00     0.001 A 
HETATM   19  C   UNL     1     -39.780  51.638 -51.334  1.00  0.00     0.002 C 
HETATM   20  C   UNL     1     -40.219  52.701 -50.552  1.00  0.00     0.011 C 
ENDBRANCH   6  11
ENDBRANCH   1   2
BRANCH   1  21
HETATM   21  C   UNL     1     -44.815  58.271 -51.028  1.00  0.00     0.240 C 
HETATM   22  N   UNL     1     -44.005  59.386 -50.827  1.00  0.00    -0.325 N 
HETATM   23  H   UNL     1     -43.026  59.182 -50.662  1.00  0.00     0.169 HD
HETATM   24  O   UNL     1     -45.985  58.181 -50.672  1.00  0.00    -0.271 OA
BRANCH  22  25
HETATM   25  C   UNL     1     -44.434  60.669 -50.429  1.00  0.00     0.050 A 
HETATM   26  C   UNL     1     -44.739  61.739 -51.283  1.00  0.00     0.058 A 
HETATM   27  C   UNL     1     -45.084  62.992 -50.747  1.00  0.00     0.019 A 
HETATM   28  C   UNL     1     -45.133  63.187 -49.368  1.00  0.00     0.001 A 
HETATM   29  C   UNL     1     -44.811  62.139 -48.515  1.00  0.00     0.002 A 
HETATM   30  C   UNL     1     -44.453  60.895 -49.041  1.00  0.00     0.030 A 
BRANCH  26  31
HETATM   31  C   UNL     1     -44.475  61.753 -52.737  1.00  0.00     0.254 C 
HETATM   32  N   UNL     1     -45.369  61.056 -53.508  1.00  0.00    -0.351 N 
HETATM   33  H   UNL     1     -45.737  60.207 -53.076  1.00  0.00     0.163 HD
HETATM   34  O   UNL     1     -43.567  62.452 -53.172  1.00  0.00    -0.268 OA
BRANCH  32  35
HETATM   35  C   UNL     1     -45.190  61.006 -54.940  1.00  0.00     0.187 C 
BRANCH  35  36
HETATM   36  C   UNL     1     -44.621  59.687 -55.313  1.00  0.00     0.070 A 
HETATM   37  O   UNL     1     -45.256  59.001 -56.307  1.00  0.00    -0.325 OA
HETATM   38  C   UNL     1     -44.581  57.835 -56.480  1.00  0.00     0.142 A 
HETATM   39  C   UNL     1     -43.520  57.759 -55.609  1.00  0.00     0.027 A 
HETATM   40  C   UNL     1     -43.546  58.954 -54.851  1.00  0.00     0.036 A 
ENDBRANCH  35  36
ENDBRANCH  32  35
ENDBRANCH  26  31
ENDBRANCH  22  25
ENDBRANCH   1  21
TORSDOF 7
ENDMDL
