MODEL 1
REMARK VINA RESULT:      -8.1      0.000      0.000
REMARK  4 active torsions:
REMARK  status: ('A' for Active; 'I' for Inactive)
REMARK    1  A    between atoms: C_5  and  N_6 
REMARK       I    between atoms: N_6  and  C_7 
REMARK       I    between atoms: C_7  and  N_8 
REMARK    2  A    between atoms: N_8  and  C_9 
REMARK    3  A    between atoms: C_9  and  C_10 
REMARK    4  A    between atoms: C_13  and  C_14 
ROOT
HETATM    1  N   UNL     1     -42.057  56.623 -52.888  1.00  0.00    -0.309 N 
HETATM    2  C   UNL     1     -42.937  56.688 -51.845  1.00  0.00     0.321 C 
HETATM    3  N   UNL     1     -42.383  56.771 -50.598  1.00  0.00    -0.335 N 
HETATM    4  O   UNL     1     -44.162  56.674 -51.915  1.00  0.00    -0.247 OA
HETATM    5  H   UNL     1     -41.112  56.929 -52.686  1.00  0.00     0.170 HD
HETATM    6  H   UNL     1     -43.098  56.777 -49.882  1.00  0.00     0.164 HD
ENDROOT
BRANCH   3   7
HETATM    7  C   UNL     1     -41.025  56.454 -50.188  1.00  0.00     0.213 C 
BRANCH   7   8
HETATM    8  C   UNL     1     -40.724  55.014 -50.389  1.00  0.00     0.190 A 
HETATM    9  O   UNL     1     -40.573  54.237 -49.282  1.00  0.00    -0.194 OA
HETATM   10  N   UNL     1     -40.321  52.944 -49.740  1.00  0.00    -0.106 NA
HETATM   11  C   UNL     1     -40.330  53.067 -51.078  1.00  0.00     0.189 A 
HETATM   12  N   UNL     1     -40.610  54.346 -51.516  1.00  0.00    -0.202 NA
BRANCH  11  13
HETATM   13  C   UNL     1     -40.086  51.971 -52.009  1.00  0.00     0.014 A 
HETATM   14  C   UNL     1     -39.709  50.701 -51.551  1.00  0.00     0.015 A 
HETATM   15  C   UNL     1     -39.490  49.658 -52.456  1.00  0.00     0.001 A 
HETATM   16  C   UNL     1     -39.641  49.875 -53.825  1.00  0.00     0.000 A 
HETATM   17  C   UNL     1     -40.008  51.134 -54.293  1.00  0.00     0.001 A 
HETATM   18  C   UNL     1     -40.228  52.177 -53.390  1.00  0.00     0.015 A 
ENDBRANCH  11  13
ENDBRANCH   7   8
ENDBRANCH   3   7
BRANCH   1  19
HETATM   19  C   UNL     1     -42.344  56.474 -54.259  1.00  0.00     0.036 A 
HETATM   20  C   UNL     1     -42.445  57.534 -55.160  1.00  0.00     0.030 A 
HETATM   21  C   UNL     1     -42.710  57.291 -56.512  1.00  0.00     0.009 A 
HETATM   22  C   UNL     1     -42.899  55.987 -56.983  1.00  0.00    -0.062 A 
HETATM   23  C   UNL     1     -43.135  55.723 -58.439  1.00  0.00     0.048 C 
HETATM   24  C   UNL     1     -42.803  54.925 -56.079  1.00  0.00     0.009 A 
HETATM   25  C   UNL     1     -42.536  55.168 -54.730  1.00  0.00     0.030 A 
ENDBRANCH   1  19
TORSDOF 4
ENDMDL
MODEL 2
REMARK VINA RESULT:      -8.0      3.936      5.721
REMARK  4 active torsions:
REMARK  status: ('A' for Active; 'I' for Inactive)
REMARK    1  A    between atoms: C_5  and  N_6 
REMARK       I    between atoms: N_6  and  C_7 
REMARK       I    between atoms: C_7  and  N_8 
REMARK    2  A    between atoms: N_8  and  C_9 
REMARK    3  A    between atoms: C_9  and  C_10 
REMARK    4  A    between atoms: C_13  and  C_14 
ROOT
HETATM    1  N   UNL     1     -44.606  56.708 -58.742  1.00  0.00    -0.309 N 
HETATM    2  C   UNL     1     -43.364  56.216 -59.029  1.00  0.00     0.321 C 
HETATM    3  N   UNL     1     -42.518  56.070 -57.965  1.00  0.00    -0.335 N 
HETATM    4  O   UNL     1     -42.934  55.903 -60.135  1.00  0.00    -0.247 OA
HETATM    5  H   UNL     1     -44.891  56.645 -57.772  1.00  0.00     0.170 HD
HETATM    6  H   UNL     1     -41.610  55.738 -58.265  1.00  0.00     0.164 HD
ENDROOT
BRANCH   3   7
HETATM    7  C   UNL     1     -42.609  56.672 -56.645  1.00  0.00     0.213 C 
BRANCH   7   8
HETATM    8  C   UNL     1     -42.463  55.652 -55.577  1.00  0.00     0.190 A 
HETATM    9  O   UNL     1     -43.524  55.445 -54.750  1.00  0.00    -0.194 OA
HETATM   10  N   UNL     1     -43.141  54.439 -53.863  1.00  0.00    -0.106 NA
HETATM   11  C   UNL     1     -41.882  54.146 -54.230  1.00  0.00     0.189 A 
HETATM   12  N   UNL     1     -41.439  54.868 -55.320  1.00  0.00    -0.202 NA
BRANCH  11  13
HETATM   13  C   UNL     1     -41.039  53.155 -53.571  1.00  0.00     0.014 A 
HETATM   14  C   UNL     1     -40.603  52.007 -54.248  1.00  0.00     0.015 A 
HETATM   15  C   UNL     1     -39.787  51.072 -53.606  1.00  0.00     0.001 A 
HETATM   16  C   UNL     1     -39.402  51.272 -52.281  1.00  0.00     0.000 A 
HETATM   17  C   UNL     1     -39.834  52.404 -51.594  1.00  0.00     0.001 A 
HETATM   18  C   UNL     1     -40.649  53.340 -52.235  1.00  0.00     0.015 A 
ENDBRANCH  11  13
ENDBRANCH   7   8
ENDBRANCH   3   7
BRANCH   1  19
HETATM   19  C   UNL     1     -45.648  57.014 -59.640  1.00  0.00     0.036 A 
HETATM   20  C   UNL     1     -46.455  56.060 -60.259  1.00  0.00     0.030 A 
HETATM   21  C   UNL     1     -47.485  56.457 -61.120  1.00  0.00     0.009 A 
HETATM   22  C   UNL     1     -47.711  57.810 -61.392  1.00  0.00    -0.062 A 
HETATM   23  C   UNL     1     -48.845  58.236 -62.276  1.00  0.00     0.048 C 
HETATM   24  C   UNL     1     -46.899  58.766 -60.775  1.00  0.00     0.009 A 
HETATM   25  C   UNL     1     -45.872  58.369 -59.914  1.00  0.00     0.030 A 
ENDBRANCH   1  19
TORSDOF 4
ENDMDL
MODEL 3
REMARK VINA RESULT:      -7.9      1.810      6.340
REMARK  4 active torsions:
REMARK  status: ('A' for Active; 'I' for Inactive)
REMARK    1  A    between atoms: C_5  and  N_6 
REMARK       I    between atoms: N_6  and  C_7 
REMARK       I    between atoms: C_7  and  N_8 
REMARK    2  A    between atoms: N_8  and  C_9 
REMARK    3  A    between atoms: C_9  and  C_10 
REMARK    4  A    between atoms: C_13  and  C_14 
ROOT
HETATM    1  N   UNL     1     -40.981  55.003 -51.837  1.00  0.00    -0.309 N 
HETATM    2  C   UNL     1     -41.941  55.251 -50.896  1.00  0.00     0.321 C 
HETATM    3  N   UNL     1     -42.090  56.557 -50.522  1.00  0.00    -0.335 N 
HETATM    4  O   UNL     1     -42.669  54.425 -50.354  1.00  0.00    -0.247 OA
HETATM    5  H   UNL     1     -40.677  55.805 -52.376  1.00  0.00     0.170 HD
HETATM    6  H   UNL     1     -42.790  56.651 -49.798  1.00  0.00     0.164 HD
ENDROOT
BRANCH   3   7
HETATM    7  C   UNL     1     -41.165  57.663 -50.709  1.00  0.00     0.213 C 
BRANCH   7   8
HETATM    8  C   UNL     1     -41.272  58.229 -52.076  1.00  0.00     0.190 A 
HETATM    9  O   UNL     1     -40.723  59.455 -52.300  1.00  0.00    -0.194 OA
HETATM   10  N   UNL     1     -40.938  59.743 -53.647  1.00  0.00    -0.106 NA
HETATM   11  C   UNL     1     -41.609  58.672 -54.104  1.00  0.00     0.189 A 
HETATM   12  N   UNL     1     -41.807  57.692 -53.151  1.00  0.00    -0.202 NA
BRANCH  11  13
HETATM   13  C   UNL     1     -42.084  58.518 -55.474  1.00  0.00     0.014 A 
HETATM   14  C   UNL     1     -42.145  59.613 -56.348  1.00  0.00     0.015 A 
HETATM   15  C   UNL     1     -42.593  59.448 -57.662  1.00  0.00     0.001 A 
HETATM   16  C   UNL     1     -42.988  58.189 -58.114  1.00  0.00     0.000 A 
HETATM   17  C   UNL     1     -42.940  57.095 -57.254  1.00  0.00     0.001 A 
HETATM   18  C   UNL     1     -42.492  57.259 -55.941  1.00  0.00     0.015 A 
ENDBRANCH  11  13
ENDBRANCH   7   8
ENDBRANCH   3   7
BRANCH   1  19
HETATM   19  C   UNL     1     -40.575  53.758 -52.357  1.00  0.00     0.036 A 
HETATM   20  C   UNL     1     -39.901  52.783 -51.622  1.00  0.00     0.030 A 
HETATM   21  C   UNL     1     -39.557  51.563 -52.214  1.00  0.00     0.009 A 
HETATM   22  C   UNL     1     -39.863  51.304 -53.554  1.00  0.00    -0.062 A 
HETATM   23  C   UNL     1     -39.538  49.979 -54.174  1.00  0.00     0.048 C 
HETATM   24  C   UNL     1     -40.535  52.283 -54.292  1.00  0.00     0.009 A 
HETATM   25  C   UNL     1     -40.880  53.501 -53.700  1.00  0.00     0.030 A 
ENDBRANCH   1  19
TORSDOF 4
ENDMDL
MODEL 4
REMARK VINA RESULT:      -7.8      2.035      6.667
REMARK  4 active torsions:
REMARK  status: ('A' for Active; 'I' for Inactive)
REMARK    1  A    between atoms: C_5  and  N_6 
REMARK       I    between atoms: N_6  and  C_7 
REMARK       I    between atoms: C_7  and  N_8 
REMARK    2  A    between atoms: N_8  and  C_9 
REMARK    3  A    between atoms: C_9  and  C_10 
REMARK    4  A    between atoms: C_13  and  C_14 
ROOT
HETATM    1  N   UNL     1     -41.289  55.230 -52.957  1.00  0.00    -0.309 N 
HETATM    2  C   UNL     1     -42.350  55.686 -52.228  1.00  0.00     0.321 C 
HETATM    3  N   UNL     1     -42.578  57.033 -52.282  1.00  0.00    -0.335 N 
HETATM    4  O   UNL     1     -43.106  55.017 -51.531  1.00  0.00    -0.247 OA
HETATM    5  H   UNL     1     -40.953  55.851 -53.683  1.00  0.00     0.170 HD
HETATM    6  H   UNL     1     -43.354  57.295 -51.688  1.00  0.00     0.164 HD
ENDROOT
BRANCH   3   7
HETATM    7  C   UNL     1     -41.673  58.088 -52.707  1.00  0.00     0.213 C 
BRANCH   7   8
HETATM    8  C   UNL     1     -41.797  58.348 -54.163  1.00  0.00     0.190 A 
HETATM    9  O   UNL     1     -41.568  59.616 -54.603  1.00  0.00    -0.194 OA
HETATM   10  N   UNL     1     -41.725  59.587 -55.988  1.00  0.00    -0.106 NA
HETATM   11  C   UNL     1     -42.049  58.309 -56.250  1.00  0.00     0.189 A 
HETATM   12  N   UNL     1     -42.073  57.501 -55.131  1.00  0.00    -0.202 NA
BRANCH  11  13
HETATM   13  C   UNL     1     -42.340  57.788 -57.581  1.00  0.00     0.014 A 
HETATM   14  C   UNL     1     -43.058  56.596 -57.752  1.00  0.00     0.015 A 
HETATM   15  C   UNL     1     -43.339  56.116 -59.035  1.00  0.00     0.001 A 
HETATM   16  C   UNL     1     -42.901  56.818 -60.157  1.00  0.00     0.000 A 
HETATM   17  C   UNL     1     -42.180  57.999 -60.001  1.00  0.00     0.001 A 
HETATM   18  C   UNL     1     -41.900  58.481 -58.720  1.00  0.00     0.015 A 
ENDBRANCH  11  13
ENDBRANCH   7   8
ENDBRANCH   3   7
BRANCH   1  19
HETATM   19  C   UNL     1     -40.791  53.913 -53.036  1.00  0.00     0.036 A 
HETATM   20  C   UNL     1     -40.165  53.246 -51.984  1.00  0.00     0.030 A 
HETATM   21  C   UNL     1     -39.723  51.929 -52.144  1.00  0.00     0.009 A 
HETATM   22  C   UNL     1     -39.881  51.263 -53.364  1.00  0.00    -0.062 A 
HETATM   23  C   UNL     1     -39.451  49.836 -53.521  1.00  0.00     0.048 C 
HETATM   24  C   UNL     1     -40.504  51.933 -54.421  1.00  0.00     0.009 A 
HETATM   25  C   UNL     1     -40.947  53.248 -54.259  1.00  0.00     0.030 A 
ENDBRANCH   1  19
TORSDOF 4
ENDMDL
MODEL 5
REMARK VINA RESULT:      -7.6      1.872      2.925
REMARK  4 active torsions:
REMARK  status: ('A' for Active; 'I' for Inactive)
REMARK    1  A    between atoms: C_5  and  N_6 
REMARK       I    between atoms: N_6  and  C_7 
REMARK       I    between atoms: C_7  and  N_8 
REMARK    2  A    between atoms: N_8  and  C_9 
REMARK    3  A    between atoms: C_9  and  C_10 
REMARK    4  A    between atoms: C_13  and  C_14 
ROOT
HETATM    1  N   UNL     1     -42.865  57.299 -55.298  1.00  0.00    -0.309 N 
HETATM    2  C   UNL     1     -42.155  58.398 -54.906  1.00  0.00     0.321 C 
HETATM    3  N   UNL     1     -41.901  58.501 -53.567  1.00  0.00    -0.335 N 
HETATM    4  O   UNL     1     -41.733  59.296 -55.629  1.00  0.00    -0.247 OA
HETATM    5  H   UNL     1     -42.887  56.531 -54.637  1.00  0.00     0.170 HD
HETATM    6  H   UNL     1     -41.406  59.358 -53.356  1.00  0.00     0.164 HD
ENDROOT
BRANCH   3   7
HETATM    7  C   UNL     1     -42.557  57.816 -52.466  1.00  0.00     0.213 C 
BRANCH   7   8
HETATM    8  C   UNL     1     -41.873  56.539 -52.144  1.00  0.00     0.190 A 
HETATM    9  O   UNL     1     -41.392  56.378 -50.881  1.00  0.00    -0.194 OA
HETATM   10  N   UNL     1     -40.823  55.105 -50.835  1.00  0.00    -0.106 NA
HETATM   11  C   UNL     1     -41.002  54.626 -52.078  1.00  0.00     0.189 A 
HETATM   12  N   UNL     1     -41.684  55.488 -52.913  1.00  0.00    -0.202 NA
BRANCH  11  13
HETATM   13  C   UNL     1     -40.546  53.317 -52.531  1.00  0.00     0.014 A 
HETATM   14  C   UNL     1     -40.748  52.896 -53.853  1.00  0.00     0.015 A 
HETATM   15  C   UNL     1     -40.294  51.643 -54.275  1.00  0.00     0.001 A 
HETATM   16  C   UNL     1     -39.639  50.797 -53.380  1.00  0.00     0.000 A 
HETATM   17  C   UNL     1     -39.439  51.200 -52.062  1.00  0.00     0.001 A 
HETATM   18  C   UNL     1     -39.891  52.453 -51.640  1.00  0.00     0.015 A 
ENDBRANCH  11  13
ENDBRANCH   7   8
ENDBRANCH   3   7
BRANCH   1  19
HETATM   19  C   UNL     1     -43.316  56.971 -56.592  1.00  0.00     0.036 A 
HETATM   20  C   UNL     1     -42.866  55.874 -57.325  1.00  0.00     0.030 A 
HETATM   21  C   UNL     1     -43.388  55.609 -58.596  1.00  0.00     0.009 A 
HETATM   22  C   UNL     1     -44.353  56.448 -59.164  1.00  0.00    -0.062 A 
HETATM   23  C   UNL     1     -44.947  56.138 -60.505  1.00  0.00     0.048 C 
HETATM   24  C   UNL     1     -44.800  57.551 -58.431  1.00  0.00     0.009 A 
HETATM   25  C   UNL     1     -44.280  57.813 -57.161  1.00  0.00     0.030 A 
ENDBRANCH   1  19
TORSDOF 4
ENDMDL
MODEL 6
REMARK VINA RESULT:      -7.4     14.223     16.925
REMARK  4 active torsions:
REMARK  status: ('A' for Active; 'I' for Inactive)
REMARK    1  A    between atoms: C_5  and  N_6 
REMARK       I    between atoms: N_6  and  C_7 
REMARK       I    between atoms: C_7  and  N_8 
REMARK    2  A    between atoms: N_8  and  C_9 
REMARK    3  A    between atoms: C_9  and  C_10 
REMARK    4  A    between atoms: C_13  and  C_14 
ROOT
HETATM    1  N   UNL     1     -34.452  41.056 -53.805  1.00  0.00    -0.309 N 
HETATM    2  C   UNL     1     -35.376  42.020 -54.093  1.00  0.00     0.321 C 
HETATM    3  N   UNL     1     -35.713  42.152 -55.411  1.00  0.00    -0.335 N 
HETATM    4  O   UNL     1     -35.923  42.776 -53.296  1.00  0.00    -0.247 OA
HETATM    5  H   UNL     1     -34.319  40.348 -54.517  1.00  0.00     0.170 HD
HETATM    6  H   UNL     1     -36.371  42.909 -55.545  1.00  0.00     0.164 HD
ENDROOT
BRANCH   3   7
HETATM    7  C   UNL     1     -34.996  41.672 -56.582  1.00  0.00     0.213 C 
BRANCH   7   8
HETATM    8  C   UNL     1     -35.926  41.389 -57.703  1.00  0.00     0.190 A 
HETATM    9  O   UNL     1     -36.516  42.450 -58.320  1.00  0.00    -0.194 OA
HETATM   10  N   UNL     1     -37.313  41.922 -59.336  1.00  0.00    -0.106 NA
HETATM   11  C   UNL     1     -37.140  40.594 -59.225  1.00  0.00     0.189 A 
HETATM   12  N   UNL     1     -36.253  40.230 -58.231  1.00  0.00    -0.202 NA
BRANCH  11  13
HETATM   13  C   UNL     1     -37.799  39.603 -60.068  1.00  0.00     0.014 A 
HETATM   14  C   UNL     1     -38.847  38.813 -59.575  1.00  0.00     0.015 A 
HETATM   15  C   UNL     1     -39.476  37.875 -60.399  1.00  0.00     0.001 A 
HETATM   16  C   UNL     1     -39.061  37.715 -61.721  1.00  0.00     0.000 A 
HETATM   17  C   UNL     1     -38.016  38.487 -62.221  1.00  0.00     0.001 A 
HETATM   18  C   UNL     1     -37.387  39.425 -61.398  1.00  0.00     0.015 A 
ENDBRANCH  11  13
ENDBRANCH   7   8
ENDBRANCH   3   7
BRANCH   1  19
HETATM   19  C   UNL     1     -33.881  40.745 -52.555  1.00  0.00     0.036 A 
HETATM   20  C   UNL     1     -34.614  40.568 -51.381  1.00  0.00     0.030 A 
HETATM   21  C   UNL     1     -33.966  40.236 -50.186  1.00  0.00     0.009 A 
HETATM   22  C   UNL     1     -32.575  40.095 -50.140  1.00  0.00    -0.062 A 
HETATM   23  C   UNL     1     -31.886  39.692 -48.871  1.00  0.00     0.048 C 
HETATM   24  C   UNL     1     -31.840  40.277 -51.315  1.00  0.00     0.009 A 
HETATM   25  C   UNL     1     -32.488  40.606 -52.509  1.00  0.00     0.030 A 
ENDBRANCH   1  19
TORSDOF 4
ENDMDL
MODEL 7
REMARK VINA RESULT:      -7.3      1.141      5.832
REMARK  4 active torsions:
REMARK  status: ('A' for Active; 'I' for Inactive)
REMARK    1  A    between atoms: C_5  and  N_6 
REMARK       I    between atoms: N_6  and  C_7 
REMARK       I    between atoms: C_7  and  N_8 
REMARK    2  A    between atoms: N_8  and  C_9 
REMARK    3  A    between atoms: C_9  and  C_10 
REMARK    4  A    between atoms: C_13  and  C_14 
ROOT
HETATM    1  N   UNL     1     -41.142  54.741 -51.626  1.00  0.00    -0.309 N 
HETATM    2  C   UNL     1     -41.230  54.933 -50.276  1.00  0.00     0.321 C 
HETATM    3  N   UNL     1     -41.556  56.197 -49.871  1.00  0.00    -0.335 N 
HETATM    4  O   UNL     1     -41.040  54.094 -49.400  1.00  0.00    -0.247 OA
HETATM    5  H   UNL     1     -41.597  55.441 -52.200  1.00  0.00     0.170 HD
HETATM    6  H   UNL     1     -41.563  56.265 -48.861  1.00  0.00     0.164 HD
ENDROOT
BRANCH   3   7
HETATM    7  C   UNL     1     -41.484  57.437 -50.626  1.00  0.00     0.213 C 
BRANCH   7   8
HETATM    8  C   UNL     1     -42.344  57.381 -51.834  1.00  0.00     0.190 A 
HETATM    9  O   UNL     1     -43.676  57.613 -51.676  1.00  0.00    -0.194 OA
HETATM   10  N   UNL     1     -44.245  57.524 -52.946  1.00  0.00    -0.106 NA
HETATM   11  C   UNL     1     -43.205  57.233 -53.747  1.00  0.00     0.189 A 
HETATM   12  N   UNL     1     -41.996  57.166 -53.084  1.00  0.00    -0.202 NA
BRANCH  11  13
HETATM   13  C   UNL     1     -43.307  57.015 -55.185  1.00  0.00     0.014 A 
HETATM   14  C   UNL     1     -42.800  55.852 -55.781  1.00  0.00     0.015 A 
HETATM   15  C   UNL     1     -42.916  55.653 -57.159  1.00  0.00     0.001 A 
HETATM   16  C   UNL     1     -43.535  56.615 -57.956  1.00  0.00     0.000 A 
HETATM   17  C   UNL     1     -44.036  57.779 -57.378  1.00  0.00     0.001 A 
HETATM   18  C   UNL     1     -43.922  57.979 -56.001  1.00  0.00     0.015 A 
ENDBRANCH  11  13
ENDBRANCH   7   8
ENDBRANCH   3   7
BRANCH   1  19
HETATM   19  C   UNL     1     -40.769  53.570 -52.314  1.00  0.00     0.036 A 
HETATM   20  C   UNL     1     -41.190  53.251 -53.605  1.00  0.00     0.030 A 
HETATM   21  C   UNL     1     -40.749  52.075 -54.223  1.00  0.00     0.009 A 
HETATM   22  C   UNL     1     -39.898  51.190 -53.554  1.00  0.00    -0.062 A 
HETATM   23  C   UNL     1     -39.388  49.955 -54.234  1.00  0.00     0.048 C 
HETATM   24  C   UNL     1     -39.480  51.506 -52.258  1.00  0.00     0.009 A 
HETATM   25  C   UNL     1     -39.919  52.681 -51.643  1.00  0.00     0.030 A 
ENDBRANCH   1  19
TORSDOF 4
ENDMDL
MODEL 8
REMARK VINA RESULT:      -7.3     13.582     14.775
REMARK  4 active torsions:
REMARK  status: ('A' for Active; 'I' for Inactive)
REMARK    1  A    between atoms: C_5  and  N_6 
REMARK       I    between atoms: N_6  and  C_7 
REMARK       I    between atoms: C_7  and  N_8 
REMARK    2  A    between atoms: N_8  and  C_9 
REMARK    3  A    between atoms: C_9  and  C_10 
REMARK    4  A    between atoms: C_13  and  C_14 
ROOT
HETATM    1  N   UNL     1     -38.195  41.318 -55.010  1.00  0.00    -0.309 N 
HETATM    2  C   UNL     1     -39.391  41.370 -54.353  1.00  0.00     0.321 C 
HETATM    3  N   UNL     1     -39.326  41.357 -52.988  1.00  0.00    -0.335 N 
HETATM    4  O   UNL     1     -40.507  41.420 -54.861  1.00  0.00    -0.247 OA
HETATM    5  H   UNL     1     -37.380  41.565 -54.460  1.00  0.00     0.170 HD
HETATM    6  H   UNL     1     -40.251  41.360 -52.579  1.00  0.00     0.164 HD
ENDROOT
BRANCH   3   7
HETATM    7  C   UNL     1     -38.219  40.952 -52.138  1.00  0.00     0.213 C 
BRANCH   7   8
HETATM    8  C   UNL     1     -36.913  41.233 -52.784  1.00  0.00     0.190 A 
HETATM    9  O   UNL     1     -36.530  42.535 -52.900  1.00  0.00    -0.194 OA
HETATM   10  N   UNL     1     -35.278  42.524 -53.513  1.00  0.00    -0.106 NA
HETATM   11  C   UNL     1     -35.031  41.220 -53.723  1.00  0.00     0.189 A 
HETATM   12  N   UNL     1     -36.023  40.384 -53.250  1.00  0.00    -0.202 NA
BRANCH  11  13
HETATM   13  C   UNL     1     -33.833  40.700 -54.372  1.00  0.00     0.014 A 
HETATM   14  C   UNL     1     -32.808  40.097 -53.629  1.00  0.00     0.015 A 
HETATM   15  C   UNL     1     -31.671  39.594 -54.268  1.00  0.00     0.001 A 
HETATM   16  C   UNL     1     -31.545  39.693 -55.653  1.00  0.00     0.000 A 
HETATM   17  C   UNL     1     -32.552  40.297 -56.402  1.00  0.00     0.001 A 
HETATM   18  C   UNL     1     -33.689  40.799 -55.765  1.00  0.00     0.015 A 
ENDBRANCH  11  13
ENDBRANCH   7   8
ENDBRANCH   3   7
BRANCH   1  19
HETATM   19  C   UNL     1     -37.968  41.258 -56.399  1.00  0.00     0.036 A 
HETATM   20  C   UNL     1     -37.302  42.242 -57.129  1.00  0.00     0.030 A 
HETATM   21  C   UNL     1     -37.099  42.087 -58.505  1.00  0.00     0.009 A 
HETATM   22  C   UNL     1     -37.578  40.958 -59.177  1.00  0.00    -0.062 A 
HETATM   23  C   UNL     1     -37.319  40.770 -60.642  1.00  0.00     0.048 C 
HETATM   24  C   UNL     1     -38.250  39.974 -58.447  1.00  0.00     0.009 A 
HETATM   25  C   UNL     1     -38.450  40.128 -57.073  1.00  0.00     0.030 A 
ENDBRANCH   1  19
TORSDOF 4
ENDMDL
MODEL 9
REMARK VINA RESULT:      -7.3      3.981      9.041
REMARK  4 active torsions:
REMARK  status: ('A' for Active; 'I' for Inactive)
REMARK    1  A    between atoms: C_5  and  N_6 
REMARK       I    between atoms: N_6  and  C_7 
REMARK       I    between atoms: C_7  and  N_8 
REMARK    2  A    between atoms: N_8  and  C_9 
REMARK    3  A    between atoms: C_9  and  C_10 
REMARK    4  A    between atoms: C_13  and  C_14 
ROOT
HETATM    1  N   UNL     1     -41.592  53.825 -54.720  1.00  0.00    -0.309 N 
HETATM    2  C   UNL     1     -41.140  55.038 -55.158  1.00  0.00     0.321 C 
HETATM    3  N   UNL     1     -41.903  55.653 -56.111  1.00  0.00    -0.335 N 
HETATM    4  O   UNL     1     -40.125  55.621 -54.789  1.00  0.00    -0.247 OA
HETATM    5  H   UNL     1     -42.567  53.625 -54.908  1.00  0.00     0.170 HD
HETATM    6  H   UNL     1     -41.482  56.524 -56.408  1.00  0.00     0.164 HD
ENDROOT
BRANCH   3   7
HETATM    7  C   UNL     1     -42.918  55.070 -56.973  1.00  0.00     0.213 C 
BRANCH   7   8
HETATM    8  C   UNL     1     -43.091  55.866 -58.214  1.00  0.00     0.190 A 
HETATM    9  O   UNL     1     -43.497  55.210 -59.336  1.00  0.00    -0.194 OA
HETATM   10  N   UNL     1     -43.602  56.174 -60.339  1.00  0.00    -0.106 NA
HETATM   11  C   UNL     1     -43.235  57.315 -59.731  1.00  0.00     0.189 A 
HETATM   12  N   UNL     1     -42.938  57.160 -58.392  1.00  0.00    -0.202 NA
BRANCH  11  13
HETATM   13  C   UNL     1     -43.160  58.614 -60.390  1.00  0.00     0.014 A 
HETATM   14  C   UNL     1     -41.924  59.201 -60.697  1.00  0.00     0.015 A 
HETATM   15  C   UNL     1     -41.869  60.442 -61.339  1.00  0.00     0.001 A 
HETATM   16  C   UNL     1     -43.047  61.108 -61.676  1.00  0.00     0.000 A 
HETATM   17  C   UNL     1     -44.281  60.539 -61.370  1.00  0.00     0.001 A 
HETATM   18  C   UNL     1     -44.337  59.299 -60.729  1.00  0.00     0.015 A 
ENDBRANCH  11  13
ENDBRANCH   7   8
ENDBRANCH   3   7
BRANCH   1  19
HETATM   19  C   UNL     1     -40.982  52.952 -53.798  1.00  0.00     0.036 A 
HETATM   20  C   UNL     1     -40.822  53.231 -52.441  1.00  0.00     0.030 A 
HETATM   21  C   UNL     1     -40.225  52.293 -51.591  1.00  0.00     0.009 A 
HETATM   22  C   UNL     1     -39.759  51.071 -52.087  1.00  0.00    -0.062 A 
HETATM   23  C   UNL     1     -39.164  50.047 -51.168  1.00  0.00     0.048 C 
HETATM   24  C   UNL     1     -39.914  50.793 -53.448  1.00  0.00     0.009 A 
HETATM   25  C   UNL     1     -40.513  51.729 -54.295  1.00  0.00     0.030 A 
ENDBRANCH   1  19
TORSDOF 4
ENDMDL
MODEL 10
REMARK VINA RESULT:      -7.2      3.512      5.452
REMARK  4 active torsions:
REMARK  status: ('A' for Active; 'I' for Inactive)
REMARK    1  A    between atoms: C_5  and  N_6 
REMARK       I    between atoms: N_6  and  C_7 
REMARK       I    between atoms: C_7  and  N_8 
REMARK    2  A    between atoms: N_8  and  C_9 
REMARK    3  A    between atoms: C_9  and  C_10 
REMARK    4  A    between atoms: C_13  and  C_14 
ROOT
HETATM    1  N   UNL     1     -43.987  58.972 -52.317  1.00  0.00    -0.309 N 
HETATM    2  C   UNL     1     -44.755  57.923 -51.898  1.00  0.00     0.321 C 
HETATM    3  N   UNL     1     -44.762  56.824 -52.710  1.00  0.00    -0.335 N 
HETATM    4  O   UNL     1     -45.438  57.873 -50.879  1.00  0.00    -0.247 OA
HETATM    5  H   UNL     1     -43.281  58.752 -53.009  1.00  0.00     0.170 HD
HETATM    6  H   UNL     1     -45.381  56.109 -52.350  1.00  0.00     0.164 HD
ENDROOT
BRANCH   3   7
HETATM    7  C   UNL     1     -44.363  56.725 -54.104  1.00  0.00     0.213 C 
BRANCH   7   8
HETATM    8  C   UNL     1     -43.324  55.682 -54.294  1.00  0.00     0.190 A 
HETATM    9  O   UNL     1     -42.877  55.457 -55.560  1.00  0.00    -0.194 OA
HETATM   10  N   UNL     1     -41.906  54.460 -55.462  1.00  0.00    -0.106 NA
HETATM   11  C   UNL     1     -41.871  54.169 -54.151  1.00  0.00     0.189 A 
HETATM   12  N   UNL     1     -42.727  54.939 -53.389  1.00  0.00    -0.202 NA
BRANCH  11  13
HETATM   13  C   UNL     1     -41.013  53.152 -53.554  1.00  0.00     0.014 A 
HETATM   14  C   UNL     1     -40.573  52.047 -54.296  1.00  0.00     0.015 A 
HETATM   15  C   UNL     1     -39.741  51.087 -53.712  1.00  0.00     0.001 A 
HETATM   16  C   UNL     1     -39.346  51.219 -52.381  1.00  0.00     0.000 A 
HETATM   17  C   UNL     1     -39.783  52.308 -51.630  1.00  0.00     0.001 A 
HETATM   18  C   UNL     1     -40.613  53.269 -52.213  1.00  0.00     0.015 A 
ENDBRANCH  11  13
ENDBRANCH   7   8
ENDBRANCH   3   7
BRANCH   1  19
HETATM   19  C   UNL     1     -43.843  60.238 -51.716  1.00  0.00     0.036 A 
HETATM   20  C   UNL     1     -44.771  61.273 -51.833  1.00  0.00     0.030 A 
HETATM   21  C   UNL     1     -44.559  62.492 -51.180  1.00  0.00     0.009 A 
HETATM   22  C   UNL     1     -43.406  62.705 -50.417  1.00  0.00    -0.062 A 
HETATM   23  C   UNL     1     -43.201  63.993 -49.679  1.00  0.00     0.048 C 
HETATM   24  C   UNL     1     -42.473  61.670 -50.303  1.00  0.00     0.009 A 
HETATM   25  C   UNL     1     -42.687  60.452 -50.954  1.00  0.00     0.030 A 
ENDBRANCH   1  19
TORSDOF 4
ENDMDL
