MODEL 1
REMARK VINA RESULT:      -8.2      0.000      0.000
REMARK  8 active torsions:
REMARK  status: ('A' for Active; 'I' for Inactive)
REMARK    1  A    between atoms: C_3  and  N_4 
REMARK       I    between atoms: N_4  and  C_5 
REMARK    2  A    between atoms: C_5  and  C_6 
REMARK    3  A    between atoms: C_7  and  C_8 
REMARK    4  A    between atoms: C_17  and  C_18 
REMARK    5  A    between atoms: C_20  and  O_21 
REMARK    6  A    between atoms: C_23  and  O_24 
REMARK    7  A    between atoms: O_24  and  C_25 
REMARK    8  A    between atoms: C_25  and  C_26 
REMARK       I    between atoms: C_26  and  N_27 
ROOT
HETATM    1  C   UNL     1     -43.183  56.241 -54.257  1.00  0.00     0.062 A 
HETATM    2  C   UNL     1     -43.472  57.426 -53.371  1.00  0.00     0.176 A 
HETATM    3  N   UNL     1     -43.736  58.611 -54.174  1.00  0.00    -0.277 N 
HETATM    4  C   UNL     1     -43.617  58.581 -55.526  1.00  0.00     0.177 A 
HETATM    5  S   UNL     1     -43.926  60.142 -56.226  1.00  0.00    -0.046 SA
HETATM    6  C   UNL     1     -44.413  60.800 -54.703  1.00  0.00     0.077 C 
HETATM    7  C   UNL     1     -44.835  62.066 -54.570  1.00  0.00     0.036 C 
HETATM    8  C   UNL     1     -44.299  59.749 -53.644  1.00  0.00     0.267 C 
HETATM    9  O   UNL     1     -44.714  59.865 -52.501  1.00  0.00    -0.266 OA
HETATM   10  N   UNL     1     -43.343  57.551 -56.246  1.00  0.00    -0.228 NA
HETATM   11  C   UNL     1     -43.135  56.353 -55.602  1.00  0.00     0.047 A 
HETATM   12  C   UNL     1     -42.866  55.204 -56.543  1.00  0.00     0.071 C 
ENDROOT
BRANCH   7  13
HETATM   13  C   UNL     1     -45.308  62.669 -53.324  1.00  0.00    -0.032 A 
HETATM   14  C   UNL     1     -46.672  62.654 -53.001  1.00  0.00     0.051 A 
HETATM   15  C   UNL     1     -47.121  63.243 -51.813  1.00  0.00     0.102 A 
HETATM   16  C   UNL     1     -46.193  63.875 -50.968  1.00  0.00     0.102 A 
HETATM   17  C   UNL     1     -44.830  63.859 -51.273  1.00  0.00     0.040 A 
HETATM   18  C   UNL     1     -44.390  63.259 -52.451  1.00  0.00     0.014 A 
BRANCH  15  19
HETATM   19  O   UNL     1     -48.433  63.291 -51.409  1.00  0.00    -0.353 OA
HETATM   20  C   UNL     1     -49.403  63.552 -52.417  1.00  0.00     0.210 C 
ENDBRANCH  15  19
BRANCH  16  21
HETATM   21  O   UNL     1     -46.670  64.444 -49.814  1.00  0.00    -0.339 OA
BRANCH  21  22
HETATM   22  C   UNL     1     -46.267  63.759 -48.627  1.00  0.00     0.278 C 
BRANCH  22  23
HETATM   23  C   UNL     1     -47.439  62.951 -48.080  1.00  0.00     0.239 C 
HETATM   24  N   UNL     1     -48.670  63.515 -48.257  1.00  0.00    -0.368 N 
HETATM   25  H   UNL     1     -48.771  64.291 -48.905  1.00  0.00     0.159 HD
HETATM   26  H   UNL     1     -49.486  62.990 -47.975  1.00  0.00     0.159 HD
HETATM   27  O   UNL     1     -47.304  61.896 -47.468  1.00  0.00    -0.271 OA
ENDBRANCH  22  23
ENDBRANCH  21  22
ENDBRANCH  16  21
ENDBRANCH   7  13
BRANCH   2  28
HETATM   28  C   UNL     1     -42.357  57.741 -52.392  1.00  0.00     0.011 A 
HETATM   29  S   UNL     1     -40.882  58.413 -52.964  1.00  0.00    -0.104 SA
HETATM   30  C   UNL     1     -40.235  58.508 -51.388  1.00  0.00     0.050 A 
HETATM   31  C   UNL     1     -41.117  58.048 -50.438  1.00  0.00     0.008 A 
HETATM   32  C   UNL     1     -42.342  57.602 -51.015  1.00  0.00     0.017 A 
ENDBRANCH   2  28
BRANCH   1  33
HETATM   33  C   UNL     1     -42.747  54.972 -53.600  1.00  0.00     0.256 C 
HETATM   34  N   UNL     1     -41.410  54.675 -53.770  1.00  0.00    -0.323 N 
HETATM   35  H   UNL     1     -40.835  55.348 -54.256  1.00  0.00     0.169 HD
HETATM   36  O   UNL     1     -43.581  54.294 -53.012  1.00  0.00    -0.267 OA
BRANCH  34  37
HETATM   37  C   UNL     1     -40.739  53.489 -53.371  1.00  0.00     0.041 A 
HETATM   38  C   UNL     1     -40.338  53.354 -52.022  1.00  0.00    -0.035 A 
HETATM   39  C   UNL     1     -40.592  54.418 -50.989  1.00  0.00     0.050 C 
HETATM   40  C   UNL     1     -39.664  52.186 -51.615  1.00  0.00     0.009 A 
HETATM   41  C   UNL     1     -39.384  51.167 -52.521  1.00  0.00     0.001 A 
HETATM   42  C   UNL     1     -39.776  51.300 -53.846  1.00  0.00     0.002 A 
HETATM   43  C   UNL     1     -40.446  52.452 -54.266  1.00  0.00     0.030 A 
ENDBRANCH  34  37
ENDBRANCH   1  33
TORSDOF 8
ENDMDL
MODEL 2
REMARK VINA RESULT:      -8.1      0.851      1.667
REMARK  8 active torsions:
REMARK  status: ('A' for Active; 'I' for Inactive)
REMARK    1  A    between atoms: C_3  and  N_4 
REMARK       I    between atoms: N_4  and  C_5 
REMARK    2  A    between atoms: C_5  and  C_6 
REMARK    3  A    between atoms: C_7  and  C_8 
REMARK    4  A    between atoms: C_17  and  C_18 
REMARK    5  A    between atoms: C_20  and  O_21 
REMARK    6  A    between atoms: C_23  and  O_24 
REMARK    7  A    between atoms: O_24  and  C_25 
REMARK    8  A    between atoms: C_25  and  C_26 
REMARK       I    between atoms: C_26  and  N_27 
ROOT
HETATM    1  C   UNL     1     -43.204  56.144 -54.337  1.00  0.00     0.062 A 
HETATM    2  C   UNL     1     -43.508  57.352 -53.487  1.00  0.00     0.176 A 
HETATM    3  N   UNL     1     -43.782  58.509 -54.325  1.00  0.00    -0.277 N 
HETATM    4  C   UNL     1     -43.658  58.441 -55.676  1.00  0.00     0.177 A 
HETATM    5  S   UNL     1     -43.982  59.977 -56.422  1.00  0.00    -0.046 SA
HETATM    6  C   UNL     1     -44.480  60.675 -54.921  1.00  0.00     0.077 C 
HETATM    7  C   UNL     1     -44.916  61.939 -54.826  1.00  0.00     0.036 C 
HETATM    8  C   UNL     1     -44.359  59.656 -53.831  1.00  0.00     0.267 C 
HETATM    9  O   UNL     1     -44.778  59.802 -52.692  1.00  0.00    -0.266 OA
HETATM   10  N   UNL     1     -43.371  57.393 -56.364  1.00  0.00    -0.228 NA
HETATM   11  C   UNL     1     -43.153  56.217 -55.684  1.00  0.00     0.047 A 
HETATM   12  C   UNL     1     -42.869  55.044 -56.590  1.00  0.00     0.071 C 
ENDROOT
BRANCH   7  13
HETATM   13  C   UNL     1     -45.399  62.574 -53.600  1.00  0.00    -0.032 A 
HETATM   14  C   UNL     1     -44.500  63.190 -52.717  1.00  0.00     0.051 A 
HETATM   15  C   UNL     1     -44.966  63.786 -51.540  1.00  0.00     0.102 A 
HETATM   16  C   UNL     1     -46.337  63.732 -51.240  1.00  0.00     0.102 A 
HETATM   17  C   UNL     1     -47.237  63.149 -52.136  1.00  0.00     0.040 A 
HETATM   18  C   UNL     1     -46.767  62.570 -53.313  1.00  0.00     0.014 A 
BRANCH  15  19
HETATM   19  O   UNL     1     -44.170  64.404 -50.607  1.00  0.00    -0.353 OA
HETATM   20  C   UNL     1     -42.930  63.774 -50.306  1.00  0.00     0.210 C 
ENDBRANCH  15  19
BRANCH  16  21
HETATM   21  O   UNL     1     -46.756  64.324 -50.076  1.00  0.00    -0.339 OA
BRANCH  21  22
HETATM   22  C   UNL     1     -47.306  63.405 -49.129  1.00  0.00     0.278 C 
BRANCH  22  23
HETATM   23  C   UNL     1     -48.630  63.946 -48.603  1.00  0.00     0.239 C 
HETATM   24  N   UNL     1     -48.768  63.936 -47.245  1.00  0.00    -0.368 N 
HETATM   25  H   UNL     1     -47.946  63.792 -46.664  1.00  0.00     0.159 HD
HETATM   26  H   UNL     1     -49.598  64.347 -46.840  1.00  0.00     0.159 HD
HETATM   27  O   UNL     1     -49.547  64.313 -49.333  1.00  0.00    -0.271 OA
ENDBRANCH  22  23
ENDBRANCH  21  22
ENDBRANCH  16  21
ENDBRANCH   7  13
BRANCH   2  28
HETATM   28  C   UNL     1     -42.399  57.708 -52.515  1.00  0.00     0.011 A 
HETATM   29  S   UNL     1     -40.917  58.348 -53.105  1.00  0.00    -0.104 SA
HETATM   30  C   UNL     1     -40.282  58.513 -51.530  1.00  0.00     0.050 A 
HETATM   31  C   UNL     1     -41.173  58.099 -50.567  1.00  0.00     0.008 A 
HETATM   32  C   UNL     1     -42.395  57.632 -51.133  1.00  0.00     0.017 A 
ENDBRANCH   2  28
BRANCH   1  33
HETATM   33  C   UNL     1     -42.756  54.900 -53.641  1.00  0.00     0.256 C 
HETATM   34  N   UNL     1     -41.422  54.599 -53.819  1.00  0.00    -0.323 N 
HETATM   35  H   UNL     1     -40.855  55.255 -54.336  1.00  0.00     0.169 HD
HETATM   36  O   UNL     1     -43.581  54.242 -53.018  1.00  0.00    -0.267 OA
BRANCH  34  37
HETATM   37  C   UNL     1     -40.742  53.429 -53.387  1.00  0.00     0.041 A 
HETATM   38  C   UNL     1     -40.348  53.330 -52.033  1.00  0.00    -0.035 A 
HETATM   39  C   UNL     1     -40.615  54.418 -51.029  1.00  0.00     0.050 C 
HETATM   40  C   UNL     1     -39.666  52.178 -51.594  1.00  0.00     0.009 A 
HETATM   41  C   UNL     1     -39.373  51.139 -52.474  1.00  0.00     0.001 A 
HETATM   42  C   UNL     1     -39.760  51.237 -53.803  1.00  0.00     0.002 A 
HETATM   43  C   UNL     1     -40.437  52.373 -54.255  1.00  0.00     0.030 A 
ENDBRANCH  34  37
ENDBRANCH   1  33
TORSDOF 8
ENDMDL
MODEL 3
REMARK VINA RESULT:      -7.8      4.875     10.091
REMARK  8 active torsions:
REMARK  status: ('A' for Active; 'I' for Inactive)
REMARK    1  A    between atoms: C_3  and  N_4 
REMARK       I    between atoms: N_4  and  C_5 
REMARK    2  A    between atoms: C_5  and  C_6 
REMARK    3  A    between atoms: C_7  and  C_8 
REMARK    4  A    between atoms: C_17  and  C_18 
REMARK    5  A    between atoms: C_20  and  O_21 
REMARK    6  A    between atoms: C_23  and  O_24 
REMARK    7  A    between atoms: O_24  and  C_25 
REMARK    8  A    between atoms: C_25  and  C_26 
REMARK       I    between atoms: C_26  and  N_27 
ROOT
HETATM    1  C   UNL     1     -45.079  59.857 -58.221  1.00  0.00     0.062 A 
HETATM    2  C   UNL     1     -44.336  58.637 -57.742  1.00  0.00     0.176 A 
HETATM    3  N   UNL     1     -43.577  58.943 -56.538  1.00  0.00    -0.277 N 
HETATM    4  C   UNL     1     -43.528  60.207 -56.044  1.00  0.00     0.177 A 
HETATM    5  S   UNL     1     -42.505  60.300 -54.641  1.00  0.00    -0.046 SA
HETATM    6  C   UNL     1     -42.294  58.585 -54.599  1.00  0.00     0.077 C 
HETATM    7  C   UNL     1     -41.571  57.973 -53.650  1.00  0.00     0.036 C 
HETATM    8  C   UNL     1     -43.042  57.961 -55.736  1.00  0.00     0.267 C 
HETATM    9  O   UNL     1     -43.209  56.760 -55.882  1.00  0.00    -0.266 OA
HETATM   10  N   UNL     1     -44.160  61.230 -56.498  1.00  0.00    -0.228 NA
HETATM   11  C   UNL     1     -44.964  61.051 -57.601  1.00  0.00     0.047 A 
HETATM   12  C   UNL     1     -45.693  62.303 -58.022  1.00  0.00     0.071 C 
ENDROOT
BRANCH   7  13
HETATM   13  C   UNL     1     -41.395  56.526 -53.527  1.00  0.00    -0.032 A 
HETATM   14  C   UNL     1     -42.102  55.805 -52.554  1.00  0.00     0.051 A 
HETATM   15  C   UNL     1     -41.921  54.422 -52.433  1.00  0.00     0.102 A 
HETATM   16  C   UNL     1     -41.002  53.775 -53.275  1.00  0.00     0.102 A 
HETATM   17  C   UNL     1     -40.324  54.488 -54.267  1.00  0.00     0.040 A 
HETATM   18  C   UNL     1     -40.520  55.862 -54.390  1.00  0.00     0.014 A 
BRANCH  15  19
HETATM   19  O   UNL     1     -42.556  53.627 -51.510  1.00  0.00    -0.353 OA
HETATM   20  C   UNL     1     -43.666  54.199 -50.829  1.00  0.00     0.210 C 
ENDBRANCH  15  19
BRANCH  16  21
HETATM   21  O   UNL     1     -40.849  52.420 -53.125  1.00  0.00    -0.339 OA
BRANCH  21  22
HETATM   22  C   UNL     1     -40.170  51.794 -54.216  1.00  0.00     0.278 C 
BRANCH  22  23
HETATM   23  C   UNL     1     -39.889  50.335 -53.872  1.00  0.00     0.239 C 
HETATM   24  N   UNL     1     -39.638  50.084 -52.554  1.00  0.00    -0.368 N 
HETATM   25  H   UNL     1     -39.860  50.795 -51.862  1.00  0.00     0.159 HD
HETATM   26  H   UNL     1     -39.514  49.125 -52.260  1.00  0.00     0.159 HD
HETATM   27  O   UNL     1     -39.828  49.443 -54.713  1.00  0.00    -0.271 OA
ENDBRANCH  22  23
ENDBRANCH  21  22
ENDBRANCH  16  21
ENDBRANCH   7  13
BRANCH   2  28
HETATM   28  C   UNL     1     -43.390  58.054 -58.776  1.00  0.00     0.011 A 
HETATM   29  S   UNL     1     -42.117  59.019 -59.410  1.00  0.00    -0.104 SA
HETATM   30  C   UNL     1     -41.538  57.739 -60.379  1.00  0.00     0.050 A 
HETATM   31  C   UNL     1     -42.287  56.595 -60.226  1.00  0.00     0.008 A 
HETATM   32  C   UNL     1     -43.358  56.775 -59.302  1.00  0.00     0.017 A 
ENDBRANCH   2  28
BRANCH   1  33
HETATM   33  C   UNL     1     -45.795  59.765 -59.530  1.00  0.00     0.256 C 
HETATM   34  N   UNL     1     -46.898  58.936 -59.516  1.00  0.00    -0.323 N 
HETATM   35  H   UNL     1     -47.164  58.519 -58.636  1.00  0.00     0.169 HD
HETATM   36  O   UNL     1     -45.348  60.377 -60.492  1.00  0.00    -0.267 OA
BRANCH  34  37
HETATM   37  C   UNL     1     -47.698  58.556 -60.626  1.00  0.00     0.041 A 
HETATM   38  C   UNL     1     -47.633  57.221 -61.088  1.00  0.00    -0.035 A 
HETATM   39  C   UNL     1     -46.747  56.184 -60.453  1.00  0.00     0.050 C 
HETATM   40  C   UNL     1     -48.415  56.834 -62.194  1.00  0.00     0.009 A 
HETATM   41  C   UNL     1     -49.247  57.746 -62.838  1.00  0.00     0.001 A 
HETATM   42  C   UNL     1     -49.310  59.056 -62.385  1.00  0.00     0.002 A 
HETATM   43  C   UNL     1     -48.540  59.456 -61.290  1.00  0.00     0.030 A 
ENDBRANCH  34  37
ENDBRANCH   1  33
TORSDOF 8
ENDMDL
MODEL 4
REMARK VINA RESULT:      -7.6      2.076      2.726
REMARK  8 active torsions:
REMARK  status: ('A' for Active; 'I' for Inactive)
REMARK    1  A    between atoms: C_3  and  N_4 
REMARK       I    between atoms: N_4  and  C_5 
REMARK    2  A    between atoms: C_5  and  C_6 
REMARK    3  A    between atoms: C_7  and  C_8 
REMARK    4  A    between atoms: C_17  and  C_18 
REMARK    5  A    between atoms: C_20  and  O_21 
REMARK    6  A    between atoms: C_23  and  O_24 
REMARK    7  A    between atoms: O_24  and  C_25 
REMARK    8  A    between atoms: C_25  and  C_26 
REMARK       I    between atoms: C_26  and  N_27 
ROOT
HETATM    1  C   UNL     1     -42.291  56.636 -54.200  1.00  0.00     0.062 A 
HETATM    2  C   UNL     1     -42.453  57.581 -53.036  1.00  0.00     0.176 A 
HETATM    3  N   UNL     1     -43.337  58.681 -53.392  1.00  0.00    -0.277 N 
HETATM    4  C   UNL     1     -43.823  58.809 -54.653  1.00  0.00     0.177 A 
HETATM    5  S   UNL     1     -44.797  60.239 -54.817  1.00  0.00    -0.046 SA
HETATM    6  C   UNL     1     -44.714  60.569 -53.122  1.00  0.00     0.077 C 
HETATM    7  C   UNL     1     -45.342  61.612 -52.561  1.00  0.00     0.036 C 
HETATM    8  C   UNL     1     -43.880  59.523 -52.449  1.00  0.00     0.267 C 
HETATM    9  O   UNL     1     -43.762  59.399 -51.240  1.00  0.00    -0.266 OA
HETATM   10  N   UNL     1     -43.641  57.990 -55.628  1.00  0.00    -0.228 NA
HETATM   11  C   UNL     1     -42.871  56.873 -55.395  1.00  0.00     0.047 A 
HETATM   12  C   UNL     1     -42.761  55.961 -56.592  1.00  0.00     0.071 C 
ENDROOT
BRANCH   7  13
HETATM   13  C   UNL     1     -45.355  61.919 -51.131  1.00  0.00    -0.032 A 
HETATM   14  C   UNL     1     -44.466  62.864 -50.599  1.00  0.00     0.051 A 
HETATM   15  C   UNL     1     -44.475  63.146 -49.228  1.00  0.00     0.102 A 
HETATM   16  C   UNL     1     -45.360  62.447 -48.391  1.00  0.00     0.102 A 
HETATM   17  C   UNL     1     -46.268  61.531 -48.925  1.00  0.00     0.040 A 
HETATM   18  C   UNL     1     -46.263  61.266 -50.293  1.00  0.00     0.014 A 
BRANCH  15  19
HETATM   19  O   UNL     1     -43.641  64.045 -48.609  1.00  0.00    -0.353 OA
HETATM   20  C   UNL     1     -42.754  64.777 -49.446  1.00  0.00     0.210 C 
ENDBRANCH  15  19
BRANCH  16  21
HETATM   21  O   UNL     1     -45.337  62.748 -47.052  1.00  0.00    -0.339 OA
BRANCH  21  22
HETATM   22  C   UNL     1     -46.232  61.955 -46.270  1.00  0.00     0.278 C 
BRANCH  22  23
HETATM   23  C   UNL     1     -45.482  60.763 -45.688  1.00  0.00     0.239 C 
HETATM   24  N   UNL     1     -45.940  59.537 -46.078  1.00  0.00    -0.368 N 
HETATM   25  H   UNL     1     -46.575  59.474 -46.869  1.00  0.00     0.159 HD
HETATM   26  H   UNL     1     -45.435  58.715 -45.776  1.00  0.00     0.159 HD
HETATM   27  O   UNL     1     -44.567  60.871 -44.876  1.00  0.00    -0.271 OA
ENDBRANCH  22  23
ENDBRANCH  21  22
ENDBRANCH  16  21
ENDBRANCH   7  13
BRANCH   2  28
HETATM   28  C   UNL     1     -41.143  58.155 -52.531  1.00  0.00     0.011 A 
HETATM   29  S   UNL     1     -40.733  58.017 -50.868  1.00  0.00    -0.104 SA
HETATM   30  C   UNL     1     -39.232  58.794 -51.103  1.00  0.00     0.050 A 
HETATM   31  C   UNL     1     -39.034  59.149 -52.417  1.00  0.00     0.008 A 
HETATM   32  C   UNL     1     -40.136  58.784 -53.244  1.00  0.00     0.017 A 
ENDBRANCH   2  28
BRANCH   1  33
HETATM   33  C   UNL     1     -41.301  55.526 -54.060  1.00  0.00     0.256 C 
HETATM   34  N   UNL     1     -41.766  54.437 -53.351  1.00  0.00    -0.323 N 
HETATM   35  H   UNL     1     -42.727  54.448 -53.046  1.00  0.00     0.169 HD
HETATM   36  O   UNL     1     -40.181  55.670 -54.534  1.00  0.00    -0.267 OA
BRANCH  34  37
HETATM   37  C   UNL     1     -41.023  53.294 -52.954  1.00  0.00     0.041 A 
HETATM   38  C   UNL     1     -40.657  53.157 -51.595  1.00  0.00    -0.035 A 
HETATM   39  C   UNL     1     -41.019  54.177 -50.550  1.00  0.00     0.050 C 
HETATM   40  C   UNL     1     -39.913  52.031 -51.189  1.00  0.00     0.009 A 
HETATM   41  C   UNL     1     -39.532  51.055 -52.106  1.00  0.00     0.001 A 
HETATM   42  C   UNL     1     -39.891  51.190 -53.440  1.00  0.00     0.002 A 
HETATM   43  C   UNL     1     -40.629  52.300 -53.859  1.00  0.00     0.030 A 
ENDBRANCH  34  37
ENDBRANCH   1  33
TORSDOF 8
ENDMDL
MODEL 5
REMARK VINA RESULT:      -7.3      4.068     10.757
REMARK  8 active torsions:
REMARK  status: ('A' for Active; 'I' for Inactive)
REMARK    1  A    between atoms: C_3  and  N_4 
REMARK       I    between atoms: N_4  and  C_5 
REMARK    2  A    between atoms: C_5  and  C_6 
REMARK    3  A    between atoms: C_7  and  C_8 
REMARK    4  A    between atoms: C_17  and  C_18 
REMARK    5  A    between atoms: C_20  and  O_21 
REMARK    6  A    between atoms: C_23  and  O_24 
REMARK    7  A    between atoms: O_24  and  C_25 
REMARK    8  A    between atoms: C_25  and  C_26 
REMARK       I    between atoms: C_26  and  N_27 
ROOT
HETATM    1  C   UNL     1     -46.924  61.928 -52.900  1.00  0.00     0.062 A 
HETATM    2  C   UNL     1     -46.433  61.334 -54.195  1.00  0.00     0.176 A 
HETATM    3  N   UNL     1     -45.096  60.784 -54.030  1.00  0.00    -0.277 N 
HETATM    4  C   UNL     1     -44.422  60.924 -52.859  1.00  0.00     0.177 A 
HETATM    5  S   UNL     1     -42.830  60.233 -52.957  1.00  0.00    -0.046 SA
HETATM    6  C   UNL     1     -43.141  59.574 -54.525  1.00  0.00     0.077 C 
HETATM    7  C   UNL     1     -42.236  58.840 -55.188  1.00  0.00     0.036 C 
HETATM    8  C   UNL     1     -44.526  59.941 -54.956  1.00  0.00     0.267 C 
HETATM    9  O   UNL     1     -45.088  59.497 -55.946  1.00  0.00    -0.266 OA
HETATM   10  N   UNL     1     -44.868  61.462 -51.780  1.00  0.00    -0.228 NA
HETATM   11  C   UNL     1     -46.151  61.962 -51.794  1.00  0.00     0.047 A 
HETATM   12  C   UNL     1     -46.588  62.529 -50.466  1.00  0.00     0.071 C 
ENDROOT
BRANCH   7  13
HETATM   13  C   UNL     1     -42.452  58.212 -56.492  1.00  0.00    -0.032 A 
HETATM   14  C   UNL     1     -42.194  58.922 -57.673  1.00  0.00     0.051 A 
HETATM   15  C   UNL     1     -42.413  58.321 -58.918  1.00  0.00     0.102 A 
HETATM   16  C   UNL     1     -42.924  57.014 -58.968  1.00  0.00     0.102 A 
HETATM   17  C   UNL     1     -43.148  56.294 -57.791  1.00  0.00     0.040 A 
HETATM   18  C   UNL     1     -42.914  56.895 -56.555  1.00  0.00     0.014 A 
BRANCH  15  19
HETATM   19  O   UNL     1     -42.202  58.932 -60.130  1.00  0.00    -0.353 OA
HETATM   20  C   UNL     1     -41.972  60.336 -60.108  1.00  0.00     0.210 C 
ENDBRANCH  15  19
BRANCH  16  21
HETATM   21  O   UNL     1     -43.129  56.459 -60.206  1.00  0.00    -0.339 OA
BRANCH  21  22
HETATM   22  C   UNL     1     -44.508  56.357 -60.568  1.00  0.00     0.278 C 
BRANCH  22  23
HETATM   23  C   UNL     1     -44.810  54.935 -61.028  1.00  0.00     0.239 C 
HETATM   24  N   UNL     1     -44.862  53.998 -60.036  1.00  0.00    -0.368 N 
HETATM   25  H   UNL     1     -44.921  54.304 -59.069  1.00  0.00     0.159 HD
HETATM   26  H   UNL     1     -45.127  53.054 -60.278  1.00  0.00     0.159 HD
HETATM   27  O   UNL     1     -44.940  54.620 -62.208  1.00  0.00    -0.271 OA
ENDBRANCH  22  23
ENDBRANCH  21  22
ENDBRANCH  16  21
ENDBRANCH   7  13
BRANCH   2  28
HETATM   28  C   UNL     1     -46.414  62.319 -55.349  1.00  0.00     0.011 A 
HETATM   29  S   UNL     1     -45.344  63.664 -55.308  1.00  0.00    -0.104 SA
HETATM   30  C   UNL     1     -45.853  64.202 -56.845  1.00  0.00     0.050 A 
HETATM   31  C   UNL     1     -46.812  63.379 -57.390  1.00  0.00     0.008 A 
HETATM   32  C   UNL     1     -47.139  62.292 -56.528  1.00  0.00     0.017 A 
ENDBRANCH   2  28
BRANCH   1  33
HETATM   33  C   UNL     1     -48.222  62.668 -52.923  1.00  0.00     0.256 C 
HETATM   34  N   UNL     1     -49.337  61.856 -52.924  1.00  0.00    -0.323 N 
HETATM   35  H   UNL     1     -49.196  60.860 -52.847  1.00  0.00     0.169 HD
HETATM   36  O   UNL     1     -48.204  63.892 -52.975  1.00  0.00    -0.267 OA
BRANCH  34  37
HETATM   37  C   UNL     1     -50.692  62.261 -53.064  1.00  0.00     0.041 A 
HETATM   38  C   UNL     1     -51.300  62.175 -54.337  1.00  0.00    -0.035 A 
HETATM   39  C   UNL     1     -50.570  61.675 -55.554  1.00  0.00     0.050 C 
HETATM   40  C   UNL     1     -52.640  62.582 -54.492  1.00  0.00     0.009 A 
HETATM   41  C   UNL     1     -53.371  63.068 -53.412  1.00  0.00     0.001 A 
HETATM   42  C   UNL     1     -52.773  63.153 -52.162  1.00  0.00     0.002 A 
HETATM   43  C   UNL     1     -51.445  62.754 -51.992  1.00  0.00     0.030 A 
ENDBRANCH  34  37
ENDBRANCH   1  33
TORSDOF 8
ENDMDL
MODEL 6
REMARK VINA RESULT:      -7.3      3.252      4.609
REMARK  8 active torsions:
REMARK  status: ('A' for Active; 'I' for Inactive)
REMARK    1  A    between atoms: C_3  and  N_4 
REMARK       I    between atoms: N_4  and  C_5 
REMARK    2  A    between atoms: C_5  and  C_6 
REMARK    3  A    between atoms: C_7  and  C_8 
REMARK    4  A    between atoms: C_17  and  C_18 
REMARK    5  A    between atoms: C_20  and  O_21 
REMARK    6  A    between atoms: C_23  and  O_24 
REMARK    7  A    between atoms: O_24  and  C_25 
REMARK    8  A    between atoms: C_25  and  C_26 
REMARK       I    between atoms: C_26  and  N_27 
ROOT
HETATM    1  C   UNL     1     -42.981  55.637 -54.372  1.00  0.00     0.062 A 
HETATM    2  C   UNL     1     -44.007  56.736 -54.477  1.00  0.00     0.176 A 
HETATM    3  N   UNL     1     -43.919  57.393 -55.773  1.00  0.00    -0.277 N 
HETATM    4  C   UNL     1     -42.949  57.060 -56.662  1.00  0.00     0.177 A 
HETATM    5  S   UNL     1     -43.037  58.040 -58.095  1.00  0.00    -0.046 SA
HETATM    6  C   UNL     1     -44.514  58.776 -57.581  1.00  0.00     0.077 C 
HETATM    7  C   UNL     1     -45.166  59.678 -58.328  1.00  0.00     0.036 C 
HETATM    8  C   UNL     1     -44.905  58.230 -56.243  1.00  0.00     0.267 C 
HETATM    9  O   UNL     1     -45.974  58.441 -55.690  1.00  0.00    -0.266 OA
HETATM   10  N   UNL     1     -42.074  56.128 -56.524  1.00  0.00    -0.228 NA
HETATM   11  C   UNL     1     -42.098  55.390 -55.362  1.00  0.00     0.047 A 
HETATM   12  C   UNL     1     -41.059  54.297 -55.324  1.00  0.00     0.071 C 
ENDROOT
BRANCH   7  13
HETATM   13  C   UNL     1     -46.442  60.300 -57.975  1.00  0.00    -0.032 A 
HETATM   14  C   UNL     1     -46.476  61.433 -57.149  1.00  0.00     0.051 A 
HETATM   15  C   UNL     1     -47.701  62.017 -56.806  1.00  0.00     0.102 A 
HETATM   16  C   UNL     1     -48.892  61.436 -57.272  1.00  0.00     0.102 A 
HETATM   17  C   UNL     1     -48.856  60.329 -58.123  1.00  0.00     0.040 A 
HETATM   18  C   UNL     1     -47.632  59.761 -58.472  1.00  0.00     0.014 A 
BRANCH  15  19
HETATM   19  O   UNL     1     -47.844  63.119 -55.998  1.00  0.00    -0.353 OA
HETATM   20  C   UNL     1     -47.361  63.001 -54.665  1.00  0.00     0.210 C 
ENDBRANCH  15  19
BRANCH  16  21
HETATM   21  O   UNL     1     -50.073  62.035 -56.912  1.00  0.00    -0.339 OA
BRANCH  21  22
HETATM   22  C   UNL     1     -50.886  61.233 -56.054  1.00  0.00     0.278 C 
BRANCH  22  23
HETATM   23  C   UNL     1     -51.166  61.990 -54.761  1.00  0.00     0.239 C 
HETATM   24  N   UNL     1     -50.531  61.508 -53.652  1.00  0.00    -0.368 N 
HETATM   25  H   UNL     1     -49.768  60.847 -53.766  1.00  0.00     0.159 HD
HETATM   26  H   UNL     1     -50.627  62.014 -52.783  1.00  0.00     0.159 HD
HETATM   27  O   UNL     1     -51.949  62.932 -54.686  1.00  0.00    -0.271 OA
ENDBRANCH  22  23
ENDBRANCH  21  22
ENDBRANCH  16  21
ENDBRANCH   7  13
BRANCH   2  28
HETATM   28  C   UNL     1     -43.886  57.789 -53.390  1.00  0.00     0.011 A 
HETATM   29  S   UNL     1     -42.556  58.878 -53.399  1.00  0.00    -0.104 SA
HETATM   30  C   UNL     1     -43.127  59.693 -52.013  1.00  0.00     0.050 A 
HETATM   31  C   UNL     1     -44.308  59.160 -51.549  1.00  0.00     0.008 A 
HETATM   32  C   UNL     1     -44.747  58.059 -52.341  1.00  0.00     0.017 A 
ENDBRANCH   2  28
BRANCH   1  33
HETATM   33  C   UNL     1     -42.831  54.951 -53.053  1.00  0.00     0.256 C 
HETATM   34  N   UNL     1     -41.747  55.374 -52.313  1.00  0.00    -0.323 N 
HETATM   35  H   UNL     1     -41.193  56.134 -52.680  1.00  0.00     0.169 HD
HETATM   36  O   UNL     1     -43.628  54.070 -52.751  1.00  0.00    -0.267 OA
BRANCH  34  37
HETATM   37  C   UNL     1     -41.280  54.828 -51.088  1.00  0.00     0.041 A 
HETATM   38  C   UNL     1     -40.551  53.617 -51.115  1.00  0.00    -0.035 A 
HETATM   39  C   UNL     1     -40.251  52.878 -52.391  1.00  0.00     0.050 C 
HETATM   40  C   UNL     1     -40.090  53.061 -49.905  1.00  0.00     0.009 A 
HETATM   41  C   UNL     1     -40.343  53.685 -48.687  1.00  0.00     0.001 A 
HETATM   42  C   UNL     1     -41.060  54.873 -48.661  1.00  0.00     0.002 A 
HETATM   43  C   UNL     1     -41.524  55.438 -49.851  1.00  0.00     0.030 A 
ENDBRANCH  34  37
ENDBRANCH   1  33
TORSDOF 8
ENDMDL
MODEL 7
REMARK VINA RESULT:      -7.0      2.887     10.190
REMARK  8 active torsions:
REMARK  status: ('A' for Active; 'I' for Inactive)
REMARK    1  A    between atoms: C_3  and  N_4 
REMARK       I    between atoms: N_4  and  C_5 
REMARK    2  A    between atoms: C_5  and  C_6 
REMARK    3  A    between atoms: C_7  and  C_8 
REMARK    4  A    between atoms: C_17  and  C_18 
REMARK    5  A    between atoms: C_20  and  O_21 
REMARK    6  A    between atoms: C_23  and  O_24 
REMARK    7  A    between atoms: O_24  and  C_25 
REMARK    8  A    between atoms: C_25  and  C_26 
REMARK       I    between atoms: C_26  and  N_27 
ROOT
HETATM    1  C   UNL     1     -47.721  62.525 -52.000  1.00  0.00     0.062 A 
HETATM    2  C   UNL     1     -46.677  61.624 -52.610  1.00  0.00     0.176 A 
HETATM    3  N   UNL     1     -45.541  61.479 -51.712  1.00  0.00    -0.277 N 
HETATM    4  C   UNL     1     -45.475  62.178 -50.549  1.00  0.00     0.177 A 
HETATM    5  S   UNL     1     -43.988  61.865 -49.705  1.00  0.00    -0.046 SA
HETATM    6  C   UNL     1     -43.533  60.631 -50.828  1.00  0.00     0.077 C 
HETATM    7  C   UNL     1     -42.402  59.924 -50.698  1.00  0.00     0.036 C 
HETATM    8  C   UNL     1     -44.586  60.504 -51.884  1.00  0.00     0.267 C 
HETATM    9  O   UNL     1     -44.624  59.619 -52.726  1.00  0.00    -0.266 OA
HETATM   10  N   UNL     1     -46.379  62.959 -50.075  1.00  0.00    -0.228 NA
HETATM   11  C   UNL     1     -47.533  63.126 -50.807  1.00  0.00     0.047 A 
HETATM   12  C   UNL     1     -48.543  64.026 -50.137  1.00  0.00     0.071 C 
ENDROOT
BRANCH   7  13
HETATM   13  C   UNL     1     -41.984  58.835 -51.581  1.00  0.00    -0.032 A 
HETATM   14  C   UNL     1     -42.201  57.499 -51.215  1.00  0.00     0.051 A 
HETATM   15  C   UNL     1     -41.788  56.462 -52.058  1.00  0.00     0.102 A 
HETATM   16  C   UNL     1     -41.128  56.775 -53.258  1.00  0.00     0.102 A 
HETATM   17  C   UNL     1     -40.943  58.106 -53.640  1.00  0.00     0.040 A 
HETATM   18  C   UNL     1     -41.369  59.134 -52.800  1.00  0.00     0.014 A 
BRANCH  15  19
HETATM   19  O   UNL     1     -41.944  55.124 -51.788  1.00  0.00    -0.353 OA
HETATM   20  C   UNL     1     -43.271  54.671 -51.544  1.00  0.00     0.210 C 
ENDBRANCH  15  19
BRANCH  16  21
HETATM   21  O   UNL     1     -40.735  55.731 -54.057  1.00  0.00    -0.339 OA
BRANCH  21  22
HETATM   22  C   UNL     1     -41.544  55.565 -55.223  1.00  0.00     0.278 C 
BRANCH  22  23
HETATM   23  C   UNL     1     -42.330  54.263 -55.118  1.00  0.00     0.239 C 
HETATM   24  N   UNL     1     -43.608  54.311 -55.596  1.00  0.00    -0.368 N 
HETATM   25  H   UNL     1     -43.891  55.097 -56.175  1.00  0.00     0.159 HD
HETATM   26  H   UNL     1     -44.149  53.458 -55.614  1.00  0.00     0.159 HD
HETATM   27  O   UNL     1     -41.887  53.247 -54.589  1.00  0.00    -0.271 OA
ENDBRANCH  22  23
ENDBRANCH  21  22
ENDBRANCH  16  21
ENDBRANCH   7  13
BRANCH   2  28
HETATM   28  C   UNL     1     -46.172  62.102 -53.958  1.00  0.00     0.011 A 
HETATM   29  S   UNL     1     -45.295  63.575 -54.070  1.00  0.00    -0.104 SA
HETATM   30  C   UNL     1     -45.065  63.391 -55.751  1.00  0.00     0.050 A 
HETATM   31  C   UNL     1     -45.635  62.232 -56.226  1.00  0.00     0.008 A 
HETATM   32  C   UNL     1     -46.276  61.487 -55.194  1.00  0.00     0.017 A 
ENDBRANCH   2  28
BRANCH   1  33
HETATM   33  C   UNL     1     -48.893  62.902 -52.847  1.00  0.00     0.256 C 
HETATM   34  N   UNL     1     -49.906  61.966 -52.863  1.00  0.00    -0.323 N 
HETATM   35  H   UNL     1     -49.808  61.155 -52.272  1.00  0.00     0.169 HD
HETATM   36  O   UNL     1     -48.856  63.956 -53.471  1.00  0.00    -0.267 OA
BRANCH  34  37
HETATM   37  C   UNL     1     -51.079  61.987 -53.663  1.00  0.00     0.041 A 
HETATM   38  C   UNL     1     -52.283  62.464 -53.095  1.00  0.00    -0.035 A 
HETATM   39  C   UNL     1     -52.374  62.947 -51.673  1.00  0.00     0.050 C 
HETATM   40  C   UNL     1     -53.456  62.482 -53.875  1.00  0.00     0.009 A 
HETATM   41  C   UNL     1     -53.447  62.036 -55.194  1.00  0.00     0.001 A 
HETATM   42  C   UNL     1     -52.265  61.567 -55.751  1.00  0.00     0.002 A 
HETATM   43  C   UNL     1     -51.093  61.543 -54.991  1.00  0.00     0.030 A 
ENDBRANCH  34  37
ENDBRANCH   1  33
TORSDOF 8
ENDMDL
MODEL 8
REMARK VINA RESULT:      -6.6      4.290      7.489
REMARK  8 active torsions:
REMARK  status: ('A' for Active; 'I' for Inactive)
REMARK    1  A    between atoms: C_3  and  N_4 
REMARK       I    between atoms: N_4  and  C_5 
REMARK    2  A    between atoms: C_5  and  C_6 
REMARK    3  A    between atoms: C_7  and  C_8 
REMARK    4  A    between atoms: C_17  and  C_18 
REMARK    5  A    between atoms: C_20  and  O_21 
REMARK    6  A    between atoms: C_23  and  O_24 
REMARK    7  A    between atoms: O_24  and  C_25 
REMARK    8  A    between atoms: C_25  and  C_26 
REMARK       I    between atoms: C_26  and  N_27 
ROOT
HETATM    1  C   UNL     1     -43.086  58.208 -58.650  1.00  0.00     0.062 A 
HETATM    2  C   UNL     1     -43.544  58.853 -57.366  1.00  0.00     0.176 A 
HETATM    3  N   UNL     1     -43.598  57.872 -56.293  1.00  0.00    -0.277 N 
HETATM    4  C   UNL     1     -43.349  56.559 -56.533  1.00  0.00     0.177 A 
HETATM    5  S   UNL     1     -43.544  55.603 -55.094  1.00  0.00    -0.046 SA
HETATM    6  C   UNL     1     -43.772  57.007 -54.113  1.00  0.00     0.077 C 
HETATM    7  C   UNL     1     -43.957  56.935 -52.787  1.00  0.00     0.036 C 
HETATM    8  C   UNL     1     -43.707  58.233 -54.970  1.00  0.00     0.267 C 
HETATM    9  O   UNL     1     -43.680  59.378 -54.546  1.00  0.00    -0.266 OA
HETATM   10  N   UNL     1     -42.983  56.042 -57.652  1.00  0.00    -0.228 NA
HETATM   11  C   UNL     1     -42.834  56.885 -58.731  1.00  0.00     0.047 A 
HETATM   12  C   UNL     1     -42.360  56.182 -59.979  1.00  0.00     0.071 C 
ENDROOT
BRANCH   7  13
HETATM   13  C   UNL     1     -44.106  58.084 -51.893  1.00  0.00    -0.032 A 
HETATM   14  C   UNL     1     -42.976  58.748 -51.396  1.00  0.00     0.051 A 
HETATM   15  C   UNL     1     -43.123  59.839 -50.532  1.00  0.00     0.102 A 
HETATM   16  C   UNL     1     -44.414  60.238 -50.146  1.00  0.00     0.102 A 
HETATM   17  C   UNL     1     -45.540  59.599 -50.669  1.00  0.00     0.040 A 
HETATM   18  C   UNL     1     -45.385  58.522 -51.540  1.00  0.00     0.014 A 
BRANCH  15  19
HETATM   19  O   UNL     1     -42.084  60.550 -49.983  1.00  0.00    -0.353 OA
HETATM   20  C   UNL     1     -40.772  60.061 -50.235  1.00  0.00     0.210 C 
ENDBRANCH  15  19
BRANCH  16  21
HETATM   21  O   UNL     1     -44.519  61.310 -49.296  1.00  0.00    -0.339 OA
BRANCH  21  22
HETATM   22  C   UNL     1     -45.761  61.366 -48.592  1.00  0.00     0.278 C 
BRANCH  22  23
HETATM   23  C   UNL     1     -45.642  60.591 -47.285  1.00  0.00     0.239 C 
HETATM   24  N   UNL     1     -44.464  60.754 -46.614  1.00  0.00    -0.368 N 
HETATM   25  H   UNL     1     -43.843  61.515 -46.879  1.00  0.00     0.159 HD
HETATM   26  H   UNL     1     -44.359  60.318 -45.709  1.00  0.00     0.159 HD
HETATM   27  O   UNL     1     -46.506  59.821 -46.875  1.00  0.00    -0.271 OA
ENDBRANCH  22  23
ENDBRANCH  21  22
ENDBRANCH  16  21
ENDBRANCH   7  13
BRANCH   2  28
HETATM   28  C   UNL     1     -44.898  59.530 -57.474  1.00  0.00     0.011 A 
HETATM   29  S   UNL     1     -45.005  61.244 -57.404  1.00  0.00    -0.104 SA
HETATM   30  C   UNL     1     -46.696  61.215 -57.626  1.00  0.00     0.050 A 
HETATM   31  C   UNL     1     -47.179  59.933 -57.759  1.00  0.00     0.008 A 
HETATM   32  C   UNL     1     -46.143  58.958 -57.670  1.00  0.00     0.017 A 
ENDBRANCH   2  28
BRANCH   1  33
HETATM   33  C   UNL     1     -43.111  59.038 -59.892  1.00  0.00     0.256 C 
HETATM   34  N   UNL     1     -42.036  59.891 -60.026  1.00  0.00    -0.323 N 
HETATM   35  H   UNL     1     -41.307  59.845 -59.330  1.00  0.00     0.169 HD
HETATM   36  O   UNL     1     -44.066  58.933 -60.653  1.00  0.00    -0.267 OA
BRANCH  34  37
HETATM   37  C   UNL     1     -41.847  60.880 -61.029  1.00  0.00     0.041 A 
HETATM   38  C   UNL     1     -41.087  62.030 -60.717  1.00  0.00    -0.035 A 
HETATM   39  C   UNL     1     -40.471  62.253 -59.362  1.00  0.00     0.050 C 
HETATM   40  C   UNL     1     -40.899  63.022 -61.699  1.00  0.00     0.009 A 
HETATM   41  C   UNL     1     -41.452  62.887 -62.970  1.00  0.00     0.001 A 
HETATM   42  C   UNL     1     -42.200  61.758 -63.275  1.00  0.00     0.002 A 
HETATM   43  C   UNL     1     -42.395  60.765 -62.312  1.00  0.00     0.030 A 
ENDBRANCH  34  37
ENDBRANCH   1  33
TORSDOF 8
ENDMDL
MODEL 9
REMARK VINA RESULT:      -6.4      4.099      9.220
REMARK  8 active torsions:
REMARK  status: ('A' for Active; 'I' for Inactive)
REMARK    1  A    between atoms: C_3  and  N_4 
REMARK       I    between atoms: N_4  and  C_5 
REMARK    2  A    between atoms: C_5  and  C_6 
REMARK    3  A    between atoms: C_7  and  C_8 
REMARK    4  A    between atoms: C_17  and  C_18 
REMARK    5  A    between atoms: C_20  and  O_21 
REMARK    6  A    between atoms: C_23  and  O_24 
REMARK    7  A    between atoms: O_24  and  C_25 
REMARK    8  A    between atoms: C_25  and  C_26 
REMARK       I    between atoms: C_26  and  N_27 
ROOT
HETATM    1  C   UNL     1     -43.691  57.958 -52.031  1.00  0.00     0.062 A 
HETATM    2  C   UNL     1     -44.100  58.012 -53.481  1.00  0.00     0.176 A 
HETATM    3  N   UNL     1     -43.216  57.189 -54.292  1.00  0.00    -0.277 N 
HETATM    4  C   UNL     1     -42.137  56.572 -53.745  1.00  0.00     0.177 A 
HETATM    5  S   UNL     1     -41.222  55.709 -54.945  1.00  0.00    -0.046 SA
HETATM    6  C   UNL     1     -42.409  56.016 -56.164  1.00  0.00     0.077 C 
HETATM    7  C   UNL     1     -42.292  55.546 -57.415  1.00  0.00     0.036 C 
HETATM    8  C   UNL     1     -43.522  56.832 -55.585  1.00  0.00     0.267 C 
HETATM    9  O   UNL     1     -44.574  57.077 -56.155  1.00  0.00    -0.266 OA
HETATM   10  N   UNL     1     -41.807  56.571 -52.502  1.00  0.00    -0.228 NA
HETATM   11  C   UNL     1     -42.607  57.266 -51.623  1.00  0.00     0.047 A 
HETATM   12  C   UNL     1     -42.154  57.160 -50.188  1.00  0.00     0.071 C 
ENDROOT
BRANCH   7  13
HETATM   13  C   UNL     1     -43.280  55.726 -58.478  1.00  0.00    -0.032 A 
HETATM   14  C   UNL     1     -43.440  56.974 -59.096  1.00  0.00     0.051 A 
HETATM   15  C   UNL     1     -44.396  57.143 -60.105  1.00  0.00     0.102 A 
HETATM   16  C   UNL     1     -45.211  56.057 -60.466  1.00  0.00     0.102 A 
HETATM   17  C   UNL     1     -45.027  54.805 -59.875  1.00  0.00     0.040 A 
HETATM   18  C   UNL     1     -44.065  54.641 -58.880  1.00  0.00     0.014 A 
BRANCH  15  19
HETATM   19  O   UNL     1     -44.637  58.323 -60.764  1.00  0.00    -0.353 OA
HETATM   20  C   UNL     1     -45.321  59.336 -60.034  1.00  0.00     0.210 C 
ENDBRANCH  15  19
BRANCH  16  21
HETATM   21  O   UNL     1     -46.138  56.262 -61.456  1.00  0.00    -0.339 OA
BRANCH  21  22
HETATM   22  C   UNL     1     -47.471  56.430 -60.970  1.00  0.00     0.278 C 
BRANCH  22  23
HETATM   23  C   UNL     1     -48.335  57.058 -62.057  1.00  0.00     0.239 C 
HETATM   24  N   UNL     1     -47.947  58.302 -62.466  1.00  0.00    -0.368 N 
HETATM   25  H   UNL     1     -47.024  58.642 -62.210  1.00  0.00     0.159 HD
HETATM   26  H   UNL     1     -48.443  58.734 -63.232  1.00  0.00     0.159 HD
HETATM   27  O   UNL     1     -49.348  56.528 -62.505  1.00  0.00    -0.271 OA
ENDBRANCH  22  23
ENDBRANCH  21  22
ENDBRANCH  16  21
ENDBRANCH   7  13
BRANCH   2  28
HETATM   28  C   UNL     1     -44.119  59.416 -54.057  1.00  0.00     0.011 A 
HETATM   29  S   UNL     1     -42.639  60.236 -54.359  1.00  0.00    -0.104 SA
HETATM   30  C   UNL     1     -43.446  61.602 -54.987  1.00  0.00     0.050 A 
HETATM   31  C   UNL     1     -44.813  61.445 -54.979  1.00  0.00     0.008 A 
HETATM   32  C   UNL     1     -45.205  60.185 -54.441  1.00  0.00     0.017 A 
ENDBRANCH   2  28
BRANCH   1  33
HETATM   33  C   UNL     1     -44.401  58.861 -51.075  1.00  0.00     0.256 C 
HETATM   34  N   UNL     1     -43.735  60.039 -50.807  1.00  0.00    -0.323 N 
HETATM   35  H   UNL     1     -42.880  60.223 -51.310  1.00  0.00     0.169 HD
HETATM   36  O   UNL     1     -45.462  58.489 -50.588  1.00  0.00    -0.267 OA
BRANCH  34  37
HETATM   37  C   UNL     1     -44.097  61.030 -49.856  1.00  0.00     0.041 A 
HETATM   38  C   UNL     1     -43.906  62.392 -50.183  1.00  0.00    -0.035 A 
HETATM   39  C   UNL     1     -43.330  62.837 -51.501  1.00  0.00     0.050 C 
HETATM   40  C   UNL     1     -44.252  63.384 -49.245  1.00  0.00     0.009 A 
HETATM   41  C   UNL     1     -44.777  63.043 -48.002  1.00  0.00     0.001 A 
HETATM   42  C   UNL     1     -44.964  61.706 -47.680  1.00  0.00     0.002 A 
HETATM   43  C   UNL     1     -44.626  60.709 -48.599  1.00  0.00     0.030 A 
ENDBRANCH  34  37
ENDBRANCH   1  33
TORSDOF 8
ENDMDL
MODEL 10
REMARK VINA RESULT:      -6.4      3.854      5.645
REMARK  8 active torsions:
REMARK  status: ('A' for Active; 'I' for Inactive)
REMARK    1  A    between atoms: C_3  and  N_4 
REMARK       I    between atoms: N_4  and  C_5 
REMARK    2  A    between atoms: C_5  and  C_6 
REMARK    3  A    between atoms: C_7  and  C_8 
REMARK    4  A    between atoms: C_17  and  C_18 
REMARK    5  A    between atoms: C_20  and  O_21 
REMARK    6  A    between atoms: C_23  and  O_24 
REMARK    7  A    between atoms: O_24  and  C_25 
REMARK    8  A    between atoms: C_25  and  C_26 
REMARK       I    between atoms: C_26  and  N_27 
ROOT
HETATM    1  C   UNL     1     -41.671  55.341 -51.760  1.00  0.00     0.062 A 
HETATM    2  C   UNL     1     -41.944  56.320 -52.873  1.00  0.00     0.176 A 
HETATM    3  N   UNL     1     -43.035  57.213 -52.511  1.00  0.00    -0.277 N 
HETATM    4  C   UNL     1     -43.720  57.046 -51.350  1.00  0.00     0.177 A 
HETATM    5  S   UNL     1     -45.006  58.205 -51.199  1.00  0.00    -0.046 SA
HETATM    6  C   UNL     1     -44.499  59.051 -52.619  1.00  0.00     0.077 C 
HETATM    7  C   UNL     1     -45.119  60.155 -53.058  1.00  0.00     0.036 C 
HETATM    8  C   UNL     1     -43.303  58.368 -53.207  1.00  0.00     0.267 C 
HETATM    9  O   UNL     1     -42.628  58.815 -54.122  1.00  0.00    -0.266 OA
HETATM   10  N   UNL     1     -43.470  56.178 -50.434  1.00  0.00    -0.228 NA
HETATM   11  C   UNL     1     -42.416  55.316 -50.635  1.00  0.00     0.047 A 
HETATM   12  C   UNL     1     -42.185  54.372 -49.481  1.00  0.00     0.071 C 
ENDROOT
BRANCH   7  13
HETATM   13  C   UNL     1     -44.712  60.945 -54.219  1.00  0.00    -0.032 A 
HETATM   14  C   UNL     1     -45.154  60.599 -55.504  1.00  0.00     0.051 A 
HETATM   15  C   UNL     1     -44.752  61.352 -56.614  1.00  0.00     0.102 A 
HETATM   16  C   UNL     1     -43.878  62.435 -56.427  1.00  0.00     0.102 A 
HETATM   17  C   UNL     1     -43.466  62.801 -55.143  1.00  0.00     0.040 A 
HETATM   18  C   UNL     1     -43.881  62.055 -54.042  1.00  0.00     0.014 A 
BRANCH  15  19
HETATM   19  O   UNL     1     -45.120  61.091 -57.911  1.00  0.00    -0.353 OA
HETATM   20  C   UNL     1     -45.352  59.729 -58.249  1.00  0.00     0.210 C 
ENDBRANCH  15  19
BRANCH  16  21
HETATM   21  O   UNL     1     -43.503  63.147 -57.538  1.00  0.00    -0.339 OA
BRANCH  21  22
HETATM   22  C   UNL     1     -42.095  63.137 -57.779  1.00  0.00     0.278 C 
BRANCH  22  23
HETATM   23  C   UNL     1     -41.680  61.774 -58.320  1.00  0.00     0.239 C 
HETATM   24  N   UNL     1     -42.311  61.382 -59.465  1.00  0.00    -0.368 N 
HETATM   25  H   UNL     1     -42.833  62.069 -60.004  1.00  0.00     0.159 HD
HETATM   26  H   UNL     1     -42.024  60.518 -59.903  1.00  0.00     0.159 HD
HETATM   27  O   UNL     1     -40.881  61.036 -57.750  1.00  0.00    -0.271 OA
ENDBRANCH  22  23
ENDBRANCH  21  22
ENDBRANCH  16  21
ENDBRANCH   7  13
BRANCH   2  28
HETATM   28  C   UNL     1     -42.277  55.660 -54.198  1.00  0.00     0.011 A 
HETATM   29  S   UNL     1     -43.724  54.747 -54.359  1.00  0.00    -0.104 SA
HETATM   30  C   UNL     1     -43.411  54.414 -56.003  1.00  0.00     0.050 A 
HETATM   31  C   UNL     1     -42.236  54.986 -56.433  1.00  0.00     0.008 A 
HETATM   32  C   UNL     1     -41.578  55.705 -55.392  1.00  0.00     0.017 A 
ENDBRANCH   2  28
BRANCH   1  33
HETATM   33  C   UNL     1     -40.679  54.254 -52.019  1.00  0.00     0.256 C 
HETATM   34  N   UNL     1     -41.203  53.145 -52.650  1.00  0.00    -0.323 N 
HETATM   35  H   UNL     1     -42.170  53.178 -52.936  1.00  0.00     0.169 HD
HETATM   36  O   UNL     1     -39.525  54.404 -51.635  1.00  0.00    -0.267 OA
BRANCH  34  37
HETATM   37  C   UNL     1     -40.540  51.917 -52.916  1.00  0.00     0.041 A 
HETATM   38  C   UNL     1     -40.115  51.123 -51.826  1.00  0.00    -0.035 A 
HETATM   39  C   UNL     1     -40.333  51.526 -50.393  1.00  0.00     0.050 C 
HETATM   40  C   UNL     1     -39.448  49.907 -52.076  1.00  0.00     0.009 A 
HETATM   41  C   UNL     1     -39.201  49.479 -53.378  1.00  0.00     0.001 A 
HETATM   42  C   UNL     1     -39.617  50.260 -54.447  1.00  0.00     0.002 A 
HETATM   43  C   UNL     1     -40.279  51.469 -54.216  1.00  0.00     0.030 A 
ENDBRANCH  34  37
ENDBRANCH   1  33
TORSDOF 8
ENDMDL
