MODEL 1
REMARK VINA RESULT:      -9.1      0.000      0.000
REMARK  8 active torsions:
REMARK  status: ('A' for Active; 'I' for Inactive)
REMARK    1  A    between atoms: C_2  and  O_3 
REMARK    2  A    between atoms: O_3  and  C_4 
REMARK    3  A    between atoms: C_5  and  C_6 
REMARK    4  A    between atoms: C_6  and  N_7 
REMARK    5  A    between atoms: C_9  and  C_10 
REMARK    6  A    between atoms: C_10  and  C_11 
REMARK       I    between atoms: C_11  and  N_12 
REMARK    7  A    between atoms: N_12  and  C_13 
REMARK    8  A    between atoms: C_13  and  C_14 
ROOT
HETATM    1  N   UNL     1     -41.692  54.954 -52.481  1.00  0.00    -0.052 N 
HETATM    2  H   UNL     1     -41.206  54.957 -51.577  1.00  0.00     0.281 HD
HETATM    3  C   UNL     1     -42.151  56.423 -52.764  1.00  0.00     0.288 C 
HETATM    4  C   UNL     1     -43.130  56.924 -51.655  1.00  0.00     0.249 C 
HETATM    5  O   UNL     1     -43.178  58.085 -51.258  1.00  0.00    -0.271 OA
HETATM    6  N   UNL     1     -44.010  56.003 -51.145  1.00  0.00    -0.358 N 
HETATM    7  C   UNL     1     -43.779  54.572 -51.163  1.00  0.00     0.150 C 
HETATM    8  C   UNL     1     -42.955  54.092 -52.362  1.00  0.00     0.256 C 
HETATM    9  H   UNL     1     -44.620  56.382 -50.423  1.00  0.00     0.162 HD
ENDROOT
BRANCH   3  10
HETATM   10  C   UNL     1     -40.965  57.394 -52.857  1.00  0.00     0.145 C 
BRANCH  10  11
HETATM   11  C   UNL     1     -41.324  58.484 -53.842  1.00  0.00     0.220 C 
HETATM   12  N   UNL     1     -42.137  58.074 -54.864  1.00  0.00    -0.355 N 
HETATM   13  H   UNL     1     -42.374  57.096 -54.975  1.00  0.00     0.162 HD
HETATM   14  O   UNL     1     -40.923  59.633 -53.693  1.00  0.00    -0.274 OA
BRANCH  12  15
HETATM   15  C   UNL     1     -42.345  58.898 -56.034  1.00  0.00     0.179 C 
BRANCH  15  16
HETATM   16  C   UNL     1     -43.014  58.035 -57.042  1.00  0.00     0.028 A 
HETATM   17  N   UNL     1     -44.288  58.294 -57.493  1.00  0.00    -0.357 N 
HETATM   18  H   UNL     1     -44.863  59.079 -57.205  1.00  0.00     0.166 HD
HETATM   19  C   UNL     1     -44.657  57.373 -58.449  1.00  0.00     0.043 A 
HETATM   20  C   UNL     1     -43.593  56.482 -58.592  1.00  0.00    -0.005 A 
HETATM   21  C   UNL     1     -45.842  57.267 -59.187  1.00  0.00     0.033 A 
HETATM   22  C   UNL     1     -42.571  56.903 -57.698  1.00  0.00     0.040 A 
HETATM   23  C   UNL     1     -43.711  55.426 -59.513  1.00  0.00     0.056 A 
HETATM   24  C   UNL     1     -44.889  55.315 -60.254  1.00  0.00     0.117 A 
HETATM   25  C   UNL     1     -45.937  56.214 -60.100  1.00  0.00     0.044 A 
HETATM   26  F   UNL     1     -45.009  54.316 -61.139  1.00  0.00    -0.206 F 
ENDBRANCH  15  16
ENDBRANCH  12  15
ENDBRANCH  10  11
ENDBRANCH   3  10
BRANCH   1  27
HETATM   27  C   UNL     1     -40.738  54.403 -53.528  1.00  0.00     0.277 C 
BRANCH  27  28
HETATM   28  C   UNL     1     -40.366  52.942 -53.406  1.00  0.00     0.001 A 
HETATM   29  C   UNL     1     -39.847  52.473 -52.181  1.00  0.00     0.076 A 
HETATM   30  C   UNL     1     -39.486  51.130 -52.042  1.00  0.00     0.037 A 
HETATM   31  C   UNL     1     -39.687  50.236 -53.092  1.00  0.00     0.003 A 
HETATM   32  C   UNL     1     -40.262  50.673 -54.280  1.00  0.00     0.001 A 
HETATM   33  C   UNL     1     -40.612  52.015 -54.434  1.00  0.00     0.012 A 
BRANCH  29  34
HETATM   34  O   UNL     1     -39.728  53.409 -51.189  1.00  0.00    -0.351 OA
BRANCH  34  35
HETATM   35  C   UNL     1     -40.282  53.071 -49.912  1.00  0.00     0.171 C 
HETATM   36  C   UNL     1     -40.456  54.358 -49.125  1.00  0.00     0.034 C 
ENDBRANCH  34  35
ENDBRANCH  29  34
ENDBRANCH  27  28
ENDBRANCH   1  27
TORSDOF 8
ENDMDL
MODEL 2
REMARK VINA RESULT:      -8.6      2.623      7.289
REMARK  8 active torsions:
REMARK  status: ('A' for Active; 'I' for Inactive)
REMARK    1  A    between atoms: C_2  and  O_3 
REMARK    2  A    between atoms: O_3  and  C_4 
REMARK    3  A    between atoms: C_5  and  C_6 
REMARK    4  A    between atoms: C_6  and  N_7 
REMARK    5  A    between atoms: C_9  and  C_10 
REMARK    6  A    between atoms: C_10  and  C_11 
REMARK       I    between atoms: C_11  and  N_12 
REMARK    7  A    between atoms: N_12  and  C_13 
REMARK    8  A    between atoms: C_13  and  C_14 
ROOT
HETATM    1  N   UNL     1     -43.079  58.558 -53.371  1.00  0.00    -0.052 N 
HETATM    2  H   UNL     1     -43.931  58.479 -53.937  1.00  0.00     0.281 HD
HETATM    3  C   UNL     1     -43.391  57.925 -51.973  1.00  0.00     0.288 C 
HETATM    4  C   UNL     1     -44.553  58.689 -51.263  1.00  0.00     0.249 C 
HETATM    5  O   UNL     1     -45.383  58.149 -50.536  1.00  0.00    -0.271 OA
HETATM    6  N   UNL     1     -44.598  60.049 -51.440  1.00  0.00    -0.358 N 
HETATM    7  C   UNL     1     -44.014  60.734 -52.576  1.00  0.00     0.150 C 
HETATM    8  C   UNL     1     -42.769  60.043 -53.144  1.00  0.00     0.256 C 
HETATM    9  H   UNL     1     -45.377  60.495 -50.959  1.00  0.00     0.162 HD
ENDROOT
BRANCH   3  10
HETATM   10  C   UNL     1     -43.763  56.440 -52.080  1.00  0.00     0.145 C 
BRANCH  10  11
HETATM   11  C   UNL     1     -42.988  55.682 -51.025  1.00  0.00     0.220 C 
HETATM   12  N   UNL     1     -41.633  55.874 -51.076  1.00  0.00    -0.355 N 
HETATM   13  H   UNL     1     -41.215  56.402 -51.830  1.00  0.00     0.162 HD
HETATM   14  O   UNL     1     -43.559  54.984 -50.194  1.00  0.00    -0.274 OA
BRANCH  12  15
HETATM   15  C   UNL     1     -40.727  55.021 -50.340  1.00  0.00     0.179 C 
BRANCH  15  16
HETATM   16  C   UNL     1     -40.463  53.842 -51.205  1.00  0.00     0.028 A 
HETATM   17  N   UNL     1     -40.065  52.631 -50.686  1.00  0.00    -0.357 N 
HETATM   18  H   UNL     1     -39.936  52.431 -49.700  1.00  0.00     0.166 HD
HETATM   19  C   UNL     1     -39.928  51.698 -51.690  1.00  0.00     0.043 A 
HETATM   20  C   UNL     1     -40.222  52.343 -52.892  1.00  0.00    -0.005 A 
HETATM   21  C   UNL     1     -39.569  50.347 -51.621  1.00  0.00     0.033 A 
HETATM   22  C   UNL     1     -40.549  53.690 -52.576  1.00  0.00     0.040 A 
HETATM   23  C   UNL     1     -40.153  51.611 -54.091  1.00  0.00     0.056 A 
HETATM   24  C   UNL     1     -39.797  50.263 -54.030  1.00  0.00     0.117 A 
HETATM   25  C   UNL     1     -39.509  49.636 -52.823  1.00  0.00     0.044 A 
HETATM   26  F   UNL     1     -39.734  49.555 -55.165  1.00  0.00    -0.206 F 
ENDBRANCH  15  16
ENDBRANCH  12  15
ENDBRANCH  10  11
ENDBRANCH   3  10
BRANCH   1  27
HETATM   27  C   UNL     1     -41.951  57.862 -54.114  1.00  0.00     0.277 C 
BRANCH  27  28
HETATM   28  C   UNL     1     -42.335  57.077 -55.348  1.00  0.00     0.001 A 
HETATM   29  C   UNL     1     -42.551  57.772 -56.557  1.00  0.00     0.076 A 
HETATM   30  C   UNL     1     -42.916  57.073 -57.711  1.00  0.00     0.037 A 
HETATM   31  C   UNL     1     -43.015  55.683 -57.689  1.00  0.00     0.003 A 
HETATM   32  C   UNL     1     -42.739  54.982 -56.520  1.00  0.00     0.001 A 
HETATM   33  C   UNL     1     -42.388  55.671 -55.359  1.00  0.00     0.012 A 
BRANCH  29  34
HETATM   34  O   UNL     1     -42.384  59.130 -56.499  1.00  0.00    -0.351 OA
BRANCH  34  35
HETATM   35  C   UNL     1     -43.224  59.920 -57.349  1.00  0.00     0.171 C 
HETATM   36  C   UNL     1     -44.384  60.430 -56.512  1.00  0.00     0.034 C 
ENDBRANCH  34  35
ENDBRANCH  29  34
ENDBRANCH  27  28
ENDBRANCH   1  27
TORSDOF 8
ENDMDL
MODEL 3
REMARK VINA RESULT:      -8.6      3.015      3.804
REMARK  8 active torsions:
REMARK  status: ('A' for Active; 'I' for Inactive)
REMARK    1  A    between atoms: C_2  and  O_3 
REMARK    2  A    between atoms: O_3  and  C_4 
REMARK    3  A    between atoms: C_5  and  C_6 
REMARK    4  A    between atoms: C_6  and  N_7 
REMARK    5  A    between atoms: C_9  and  C_10 
REMARK    6  A    between atoms: C_10  and  C_11 
REMARK       I    between atoms: C_11  and  N_12 
REMARK    7  A    between atoms: N_12  and  C_13 
REMARK    8  A    between atoms: C_13  and  C_14 
ROOT
HETATM    1  N   UNL     1     -41.501  56.060 -52.170  1.00  0.00    -0.052 N 
HETATM    2  H   UNL     1     -40.485  55.930 -52.117  1.00  0.00     0.281 HD
HETATM    3  C   UNL     1     -41.774  57.114 -53.295  1.00  0.00     0.288 C 
HETATM    4  C   UNL     1     -41.098  58.480 -52.955  1.00  0.00     0.249 C 
HETATM    5  O   UNL     1     -40.624  59.237 -53.797  1.00  0.00    -0.271 OA
HETATM    6  N   UNL     1     -41.089  58.853 -51.634  1.00  0.00    -0.358 N 
HETATM    7  C   UNL     1     -41.177  57.917 -50.531  1.00  0.00     0.150 C 
HETATM    8  C   UNL     1     -41.994  56.660 -50.847  1.00  0.00     0.256 C 
HETATM    9  H   UNL     1     -40.632  59.748 -51.469  1.00  0.00     0.162 HD
ENDROOT
BRANCH   3  10
HETATM   10  C   UNL     1     -41.276  56.640 -54.667  1.00  0.00     0.145 C 
BRANCH  10  11
HETATM   11  C   UNL     1     -42.449  56.647 -55.623  1.00  0.00     0.220 C 
HETATM   12  N   UNL     1     -42.097  56.595 -56.945  1.00  0.00    -0.355 N 
HETATM   13  H   UNL     1     -41.126  56.652 -57.224  1.00  0.00     0.162 HD
HETATM   14  O   UNL     1     -43.604  56.672 -55.213  1.00  0.00    -0.274 OA
BRANCH  12  15
HETATM   15  C   UNL     1     -43.057  56.878 -57.988  1.00  0.00     0.179 C 
BRANCH  15  16
HETATM   16  C   UNL     1     -42.614  58.139 -58.637  1.00  0.00     0.028 A 
HETATM   17  N   UNL     1     -42.083  59.183 -57.914  1.00  0.00    -0.357 N 
HETATM   18  H   UNL     1     -41.933  59.184 -56.912  1.00  0.00     0.166 HD
HETATM   19  C   UNL     1     -41.717  60.212 -58.754  1.00  0.00     0.043 A 
HETATM   20  C   UNL     1     -42.051  59.822 -60.051  1.00  0.00    -0.005 A 
HETATM   21  C   UNL     1     -41.122  61.445 -58.460  1.00  0.00     0.033 A 
HETATM   22  C   UNL     1     -42.621  58.522 -59.964  1.00  0.00     0.040 A 
HETATM   23  C   UNL     1     -41.785  60.703 -61.114  1.00  0.00     0.056 A 
HETATM   24  C   UNL     1     -41.191  61.933 -60.830  1.00  0.00     0.117 A 
HETATM   25  C   UNL     1     -40.863  62.304 -59.531  1.00  0.00     0.044 A 
HETATM   26  F   UNL     1     -40.928  62.777 -61.837  1.00  0.00    -0.206 F 
ENDBRANCH  15  16
ENDBRANCH  12  15
ENDBRANCH  10  11
ENDBRANCH   3  10
BRANCH   1  27
HETATM   27  C   UNL     1     -42.137  54.706 -52.438  1.00  0.00     0.277 C 
BRANCH  27  28
HETATM   28  C   UNL     1     -41.194  53.547 -52.666  1.00  0.00     0.001 A 
HETATM   29  C   UNL     1     -40.578  52.941 -51.551  1.00  0.00     0.076 A 
HETATM   30  C   UNL     1     -39.694  51.873 -51.732  1.00  0.00     0.037 A 
HETATM   31  C   UNL     1     -39.459  51.366 -53.009  1.00  0.00     0.003 A 
HETATM   32  C   UNL     1     -40.113  51.910 -54.108  1.00  0.00     0.001 A 
HETATM   33  C   UNL     1     -40.986  52.986 -53.940  1.00  0.00     0.012 A 
BRANCH  29  34
HETATM   34  O   UNL     1     -40.903  53.474 -50.332  1.00  0.00    -0.351 OA
BRANCH  34  35
HETATM   35  C   UNL     1     -39.828  54.019 -49.558  1.00  0.00     0.171 C 
HETATM   36  C   UNL     1     -40.271  54.052 -48.106  1.00  0.00     0.034 C 
ENDBRANCH  34  35
ENDBRANCH  29  34
ENDBRANCH  27  28
ENDBRANCH   1  27
TORSDOF 8
ENDMDL
MODEL 4
REMARK VINA RESULT:      -8.6      2.763      7.323
REMARK  8 active torsions:
REMARK  status: ('A' for Active; 'I' for Inactive)
REMARK    1  A    between atoms: C_2  and  O_3 
REMARK    2  A    between atoms: O_3  and  C_4 
REMARK    3  A    between atoms: C_5  and  C_6 
REMARK    4  A    between atoms: C_6  and  N_7 
REMARK    5  A    between atoms: C_9  and  C_10 
REMARK    6  A    between atoms: C_10  and  C_11 
REMARK       I    between atoms: C_11  and  N_12 
REMARK    7  A    between atoms: N_12  and  C_13 
REMARK    8  A    between atoms: C_13  and  C_14 
ROOT
HETATM    1  N   UNL     1     -43.312  58.860 -53.376  1.00  0.00    -0.052 N 
HETATM    2  H   UNL     1     -44.137  58.729 -53.973  1.00  0.00     0.281 HD
HETATM    3  C   UNL     1     -43.539  58.013 -52.079  1.00  0.00     0.288 C 
HETATM    4  C   UNL     1     -44.810  58.499 -51.313  1.00  0.00     0.249 C 
HETATM    5  O   UNL     1     -45.556  57.753 -50.684  1.00  0.00    -0.271 OA
HETATM    6  N   UNL     1     -45.058  59.848 -51.319  1.00  0.00    -0.358 N 
HETATM    7  C   UNL     1     -44.573  60.752 -52.343  1.00  0.00     0.150 C 
HETATM    8  C   UNL     1     -43.233  60.333 -52.956  1.00  0.00     0.256 C 
HETATM    9  H   UNL     1     -45.900  60.108 -50.809  1.00  0.00     0.162 HD
ENDROOT
BRANCH   3  10
HETATM   10  C   UNL     1     -43.681  56.515 -52.382  1.00  0.00     0.145 C 
BRANCH  10  11
HETATM   11  C   UNL     1     -42.976  55.743 -51.289  1.00  0.00     0.220 C 
HETATM   12  N   UNL     1     -41.626  55.967 -51.225  1.00  0.00    -0.355 N 
HETATM   13  H   UNL     1     -41.161  56.527 -51.927  1.00  0.00     0.162 HD
HETATM   14  O   UNL     1     -43.595  55.008 -50.528  1.00  0.00    -0.274 OA
BRANCH  12  15
HETATM   15  C   UNL     1     -40.762  55.112 -50.442  1.00  0.00     0.179 C 
BRANCH  15  16
HETATM   16  C   UNL     1     -40.491  53.912 -51.275  1.00  0.00     0.028 A 
HETATM   17  N   UNL     1     -40.081  52.720 -50.723  1.00  0.00    -0.357 N 
HETATM   18  H   UNL     1     -39.948  52.548 -49.733  1.00  0.00     0.166 HD
HETATM   19  C   UNL     1     -39.940  51.760 -51.701  1.00  0.00     0.043 A 
HETATM   20  C   UNL     1     -40.243  52.369 -52.920  1.00  0.00    -0.005 A 
HETATM   21  C   UNL     1     -39.569  50.414 -51.596  1.00  0.00     0.033 A 
HETATM   22  C   UNL     1     -40.580  53.722 -52.640  1.00  0.00     0.040 A 
HETATM   23  C   UNL     1     -40.172  51.604 -54.097  1.00  0.00     0.056 A 
HETATM   24  C   UNL     1     -39.805  50.261 -54.000  1.00  0.00     0.117 A 
HETATM   25  C   UNL     1     -39.508  49.671 -52.777  1.00  0.00     0.044 A 
HETATM   26  F   UNL     1     -39.740  49.522 -55.115  1.00  0.00    -0.206 F 
ENDBRANCH  15  16
ENDBRANCH  12  15
ENDBRANCH  10  11
ENDBRANCH   3  10
BRANCH   1  27
HETATM   27  C   UNL     1     -42.085  58.441 -54.169  1.00  0.00     0.277 C 
BRANCH  27  28
HETATM   28  C   UNL     1     -42.189  58.522 -55.675  1.00  0.00     0.001 A 
HETATM   29  C   UNL     1     -42.661  57.399 -56.386  1.00  0.00     0.076 A 
HETATM   30  C   UNL     1     -42.760  57.441 -57.779  1.00  0.00     0.037 A 
HETATM   31  C   UNL     1     -42.445  58.610 -58.469  1.00  0.00     0.003 A 
HETATM   32  C   UNL     1     -42.043  59.745 -57.774  1.00  0.00     0.001 A 
HETATM   33  C   UNL     1     -41.928  59.708 -56.384  1.00  0.00     0.012 A 
BRANCH  29  34
HETATM   34  O   UNL     1     -42.994  56.310 -55.623  1.00  0.00    -0.351 OA
BRANCH  34  35
HETATM   35  C   UNL     1     -42.236  55.114 -55.840  1.00  0.00     0.171 C 
HETATM   36  C   UNL     1     -43.099  53.936 -55.426  1.00  0.00     0.034 C 
ENDBRANCH  34  35
ENDBRANCH  29  34
ENDBRANCH  27  28
ENDBRANCH   1  27
TORSDOF 8
ENDMDL
MODEL 5
REMARK VINA RESULT:      -8.4      1.572      2.078
REMARK  8 active torsions:
REMARK  status: ('A' for Active; 'I' for Inactive)
REMARK    1  A    between atoms: C_2  and  O_3 
REMARK    2  A    between atoms: O_3  and  C_4 
REMARK    3  A    between atoms: C_5  and  C_6 
REMARK    4  A    between atoms: C_6  and  N_7 
REMARK    5  A    between atoms: C_9  and  C_10 
REMARK    6  A    between atoms: C_10  and  C_11 
REMARK       I    between atoms: C_11  and  N_12 
REMARK    7  A    between atoms: N_12  and  C_13 
REMARK    8  A    between atoms: C_13  and  C_14 
ROOT
HETATM    1  N   UNL     1     -41.388  56.252 -51.894  1.00  0.00    -0.052 N 
HETATM    2  H   UNL     1     -40.375  56.090 -51.942  1.00  0.00     0.281 HD
HETATM    3  C   UNL     1     -41.731  57.356 -52.948  1.00  0.00     0.288 C 
HETATM    4  C   UNL     1     -40.983  58.688 -52.623  1.00  0.00     0.249 C 
HETATM    5  O   UNL     1     -40.566  59.465 -53.478  1.00  0.00    -0.271 OA
HETATM    6  N   UNL     1     -40.838  59.009 -51.297  1.00  0.00    -0.358 N 
HETATM    7  C   UNL     1     -40.852  58.032 -50.226  1.00  0.00     0.150 C 
HETATM    8  C   UNL     1     -41.735  56.812 -50.509  1.00  0.00     0.256 C 
HETATM    9  H   UNL     1     -40.339  59.883 -51.143  1.00  0.00     0.162 HD
ENDROOT
BRANCH   3  10
HETATM   10  C   UNL     1     -41.380  56.923 -54.378  1.00  0.00     0.145 C 
BRANCH  10  11
HETATM   11  C   UNL     1     -42.505  57.355 -55.292  1.00  0.00     0.220 C 
HETATM   12  N   UNL     1     -42.215  58.449 -56.062  1.00  0.00    -0.355 N 
HETATM   13  H   UNL     1     -41.352  58.959 -55.931  1.00  0.00     0.162 HD
HETATM   14  O   UNL     1     -43.564  56.739 -55.332  1.00  0.00    -0.274 OA
BRANCH  12  15
HETATM   15  C   UNL     1     -43.254  59.162 -56.773  1.00  0.00     0.179 C 
BRANCH  15  16
HETATM   16  C   UNL     1     -43.755  58.238 -57.822  1.00  0.00     0.028 A 
HETATM   17  N   UNL     1     -45.100  58.025 -58.025  1.00  0.00    -0.357 N 
HETATM   18  H   UNL     1     -45.848  58.476 -57.509  1.00  0.00     0.166 HD
HETATM   19  C   UNL     1     -45.297  57.160 -59.078  1.00  0.00     0.043 A 
HETATM   20  C   UNL     1     -44.036  56.788 -59.546  1.00  0.00    -0.005 A 
HETATM   21  C   UNL     1     -46.488  56.687 -59.644  1.00  0.00     0.033 A 
HETATM   22  C   UNL     1     -43.076  57.465 -58.745  1.00  0.00     0.040 A 
HETATM   23  C   UNL     1     -43.950  55.895 -60.629  1.00  0.00     0.056 A 
HETATM   24  C   UNL     1     -45.131  55.421 -61.199  1.00  0.00     0.117 A 
HETATM   25  C   UNL     1     -46.379  55.804 -60.721  1.00  0.00     0.044 A 
HETATM   26  F   UNL     1     -45.060  54.574 -62.235  1.00  0.00    -0.206 F 
ENDBRANCH  15  16
ENDBRANCH  12  15
ENDBRANCH  10  11
ENDBRANCH   3  10
BRANCH   1  27
HETATM   27  C   UNL     1     -42.089  54.928 -52.150  1.00  0.00     0.277 C 
BRANCH  27  28
HETATM   28  C   UNL     1     -41.209  53.750 -52.500  1.00  0.00     0.001 A 
HETATM   29  C   UNL     1     -40.618  53.008 -51.457  1.00  0.00     0.076 A 
HETATM   30  C   UNL     1     -39.792  51.919 -51.750  1.00  0.00     0.037 A 
HETATM   31  C   UNL     1     -39.591  51.528 -53.073  1.00  0.00     0.003 A 
HETATM   32  C   UNL     1     -40.222  52.210 -54.107  1.00  0.00     0.001 A 
HETATM   33  C   UNL     1     -41.037  53.307 -53.825  1.00  0.00     0.012 A 
BRANCH  29  34
HETATM   34  O   UNL     1     -40.908  53.433 -50.187  1.00  0.00    -0.351 OA
BRANCH  34  35
HETATM   35  C   UNL     1     -39.825  53.978 -49.425  1.00  0.00     0.171 C 
HETATM   36  C   UNL     1     -40.257  54.025 -47.970  1.00  0.00     0.034 C 
ENDBRANCH  34  35
ENDBRANCH  29  34
ENDBRANCH  27  28
ENDBRANCH   1  27
TORSDOF 8
ENDMDL
MODEL 6
REMARK VINA RESULT:      -8.0      2.106      2.916
REMARK  8 active torsions:
REMARK  status: ('A' for Active; 'I' for Inactive)
REMARK    1  A    between atoms: C_2  and  O_3 
REMARK    2  A    between atoms: O_3  and  C_4 
REMARK    3  A    between atoms: C_5  and  C_6 
REMARK    4  A    between atoms: C_6  and  N_7 
REMARK    5  A    between atoms: C_9  and  C_10 
REMARK    6  A    between atoms: C_10  and  C_11 
REMARK       I    between atoms: C_11  and  N_12 
REMARK    7  A    between atoms: N_12  and  C_13 
REMARK    8  A    between atoms: C_13  and  C_14 
ROOT
HETATM    1  N   UNL     1     -42.051  56.018 -52.530  1.00  0.00    -0.052 N 
HETATM    2  H   UNL     1     -41.430  56.001 -53.347  1.00  0.00     0.281 HD
HETATM    3  C   UNL     1     -43.315  56.852 -52.928  1.00  0.00     0.288 C 
HETATM    4  C   UNL     1     -42.921  58.315 -53.304  1.00  0.00     0.249 C 
HETATM    5  O   UNL     1     -43.492  58.977 -54.167  1.00  0.00    -0.271 OA
HETATM    6  N   UNL     1     -41.905  58.888 -52.581  1.00  0.00    -0.358 N 
HETATM    7  C   UNL     1     -40.877  58.130 -51.896  1.00  0.00     0.150 C 
HETATM    8  C   UNL     1     -41.349  56.763 -51.388  1.00  0.00     0.256 C 
HETATM    9  H   UNL     1     -41.687  59.839 -52.872  1.00  0.00     0.162 HD
ENDROOT
BRANCH   3  10
HETATM   10  C   UNL     1     -44.078  56.223 -54.101  1.00  0.00     0.145 C 
BRANCH  10  11
HETATM   11  C   UNL     1     -43.225  56.354 -55.344  1.00  0.00     0.220 C 
HETATM   12  N   UNL     1     -43.881  56.886 -56.422  1.00  0.00    -0.355 N 
HETATM   13  H   UNL     1     -44.875  57.070 -56.384  1.00  0.00     0.162 HD
HETATM   14  O   UNL     1     -42.045  56.024 -55.343  1.00  0.00    -0.274 OA
BRANCH  12  15
HETATM   15  C   UNL     1     -43.314  56.821 -57.751  1.00  0.00     0.179 C 
BRANCH  15  16
HETATM   16  C   UNL     1     -44.415  57.149 -58.693  1.00  0.00     0.028 A 
HETATM   17  N   UNL     1     -45.187  56.173 -59.281  1.00  0.00    -0.357 N 
HETATM   18  H   UNL     1     -45.093  55.176 -59.118  1.00  0.00     0.166 HD
HETATM   19  C   UNL     1     -46.158  56.740 -60.076  1.00  0.00     0.043 A 
HETATM   20  C   UNL     1     -45.982  58.123 -60.015  1.00  0.00    -0.005 A 
HETATM   21  C   UNL     1     -47.167  56.136 -60.836  1.00  0.00     0.033 A 
HETATM   22  C   UNL     1     -44.880  58.367 -59.150  1.00  0.00     0.040 A 
HETATM   23  C   UNL     1     -46.849  58.951 -60.749  1.00  0.00     0.056 A 
HETATM   24  C   UNL     1     -47.858  58.356 -61.507  1.00  0.00     0.117 A 
HETATM   25  C   UNL     1     -48.020  56.977 -61.555  1.00  0.00     0.044 A 
HETATM   26  F   UNL     1     -48.693  59.137 -62.206  1.00  0.00    -0.206 F 
ENDBRANCH  15  16
ENDBRANCH  12  15
ENDBRANCH  10  11
ENDBRANCH   3  10
BRANCH   1  27
HETATM   27  C   UNL     1     -42.366  54.582 -52.147  1.00  0.00     0.277 C 
BRANCH  27  28
HETATM   28  C   UNL     1     -41.333  53.540 -52.513  1.00  0.00     0.001 A 
HETATM   29  C   UNL     1     -40.606  52.911 -51.481  1.00  0.00     0.076 A 
HETATM   30  C   UNL     1     -39.639  51.950 -51.790  1.00  0.00     0.037 A 
HETATM   31  C   UNL     1     -39.426  51.569 -53.114  1.00  0.00     0.003 A 
HETATM   32  C   UNL     1     -40.184  52.133 -54.133  1.00  0.00     0.001 A 
HETATM   33  C   UNL     1     -41.142  53.103 -53.837  1.00  0.00     0.012 A 
BRANCH  29  34
HETATM   34  O   UNL     1     -40.914  53.312 -50.208  1.00  0.00    -0.351 OA
BRANCH  34  35
HETATM   35  C   UNL     1     -39.901  54.030 -49.494  1.00  0.00     0.171 C 
HETATM   36  C   UNL     1     -40.248  53.978 -48.017  1.00  0.00     0.034 C 
ENDBRANCH  34  35
ENDBRANCH  29  34
ENDBRANCH  27  28
ENDBRANCH   1  27
TORSDOF 8
ENDMDL
MODEL 7
REMARK VINA RESULT:      -8.0      2.628      7.998
REMARK  8 active torsions:
REMARK  status: ('A' for Active; 'I' for Inactive)
REMARK    1  A    between atoms: C_2  and  O_3 
REMARK    2  A    between atoms: O_3  and  C_4 
REMARK    3  A    between atoms: C_5  and  C_6 
REMARK    4  A    between atoms: C_6  and  N_7 
REMARK    5  A    between atoms: C_9  and  C_10 
REMARK    6  A    between atoms: C_10  and  C_11 
REMARK       I    between atoms: C_11  and  N_12 
REMARK    7  A    between atoms: N_12  and  C_13 
REMARK    8  A    between atoms: C_13  and  C_14 
ROOT
HETATM    1  N   UNL     1     -43.430  59.439 -55.551  1.00  0.00    -0.052 N 
HETATM    2  H   UNL     1     -44.405  59.593 -55.273  1.00  0.00     0.281 HD
HETATM    3  C   UNL     1     -42.594  59.275 -54.237  1.00  0.00     0.288 C 
HETATM    4  C   UNL     1     -42.680  60.564 -53.359  1.00  0.00     0.249 C 
HETATM    5  O   UNL     1     -42.678  60.557 -52.131  1.00  0.00    -0.271 OA
HETATM    6  N   UNL     1     -42.711  61.764 -54.024  1.00  0.00    -0.358 N 
HETATM    7  C   UNL     1     -43.170  61.918 -55.390  1.00  0.00     0.150 C 
HETATM    8  C   UNL     1     -42.915  60.691 -56.272  1.00  0.00     0.256 C 
HETATM    9  H   UNL     1     -42.772  62.570 -53.404  1.00  0.00     0.162 HD
ENDROOT
BRANCH   3  10
HETATM   10  C   UNL     1     -43.054  58.072 -53.403  1.00  0.00     0.145 C 
BRANCH  10  11
HETATM   11  C   UNL     1     -41.825  57.380 -52.855  1.00  0.00     0.220 C 
HETATM   12  N   UNL     1     -42.092  56.245 -52.138  1.00  0.00    -0.355 N 
HETATM   13  H   UNL     1     -43.045  55.979 -51.928  1.00  0.00     0.162 HD
HETATM   14  O   UNL     1     -40.700  57.814 -53.075  1.00  0.00    -0.274 OA
BRANCH  12  15
HETATM   15  C   UNL     1     -41.080  55.624 -51.313  1.00  0.00     0.179 C 
BRANCH  15  16
HETATM   16  C   UNL     1     -40.755  54.324 -51.955  1.00  0.00     0.028 A 
HETATM   17  N   UNL     1     -40.209  53.278 -51.246  1.00  0.00    -0.357 N 
HETATM   18  H   UNL     1     -40.001  53.289 -50.253  1.00  0.00     0.166 HD
HETATM   19  C   UNL     1     -40.042  52.179 -52.060  1.00  0.00     0.043 A 
HETATM   20  C   UNL     1     -40.471  52.546 -53.336  1.00  0.00    -0.005 A 
HETATM   21  C   UNL     1     -39.549  50.903 -51.761  1.00  0.00     0.033 A 
HETATM   22  C   UNL     1     -40.909  53.897 -53.259  1.00  0.00     0.040 A 
HETATM   23  C   UNL     1     -40.404  51.599 -54.374  1.00  0.00     0.056 A 
HETATM   24  C   UNL     1     -39.914  50.325 -54.083  1.00  0.00     0.117 A 
HETATM   25  C   UNL     1     -39.493  49.977 -52.806  1.00  0.00     0.044 A 
HETATM   26  F   UNL     1     -39.851  49.413 -55.063  1.00  0.00    -0.206 F 
ENDBRANCH  15  16
ENDBRANCH  12  15
ENDBRANCH  10  11
ENDBRANCH   3  10
BRANCH   1  27
HETATM   27  C   UNL     1     -43.385  58.218 -56.455  1.00  0.00     0.277 C 
BRANCH  27  28
HETATM   28  C   UNL     1     -44.602  57.965 -57.315  1.00  0.00     0.001 A 
HETATM   29  C   UNL     1     -44.472  57.142 -58.454  1.00  0.00     0.076 A 
HETATM   30  C   UNL     1     -45.579  56.898 -59.272  1.00  0.00     0.037 A 
HETATM   31  C   UNL     1     -46.827  57.421 -58.939  1.00  0.00     0.003 A 
HETATM   32  C   UNL     1     -46.982  58.177 -57.783  1.00  0.00     0.001 A 
HETATM   33  C   UNL     1     -45.880  58.439 -56.967  1.00  0.00     0.012 A 
BRANCH  29  34
HETATM   34  O   UNL     1     -43.221  56.632 -58.678  1.00  0.00    -0.351 OA
BRANCH  34  35
HETATM   35  C   UNL     1     -42.751  56.646 -60.031  1.00  0.00     0.171 C 
HETATM   36  C   UNL     1     -41.722  57.755 -60.155  1.00  0.00     0.034 C 
ENDBRANCH  34  35
ENDBRANCH  29  34
ENDBRANCH  27  28
ENDBRANCH   1  27
TORSDOF 8
ENDMDL
MODEL 8
REMARK VINA RESULT:      -7.9      3.171      4.684
REMARK  8 active torsions:
REMARK  status: ('A' for Active; 'I' for Inactive)
REMARK    1  A    between atoms: C_2  and  O_3 
REMARK    2  A    between atoms: O_3  and  C_4 
REMARK    3  A    between atoms: C_5  and  C_6 
REMARK    4  A    between atoms: C_6  and  N_7 
REMARK    5  A    between atoms: C_9  and  C_10 
REMARK    6  A    between atoms: C_10  and  C_11 
REMARK       I    between atoms: C_11  and  N_12 
REMARK    7  A    between atoms: N_12  and  C_13 
REMARK    8  A    between atoms: C_13  and  C_14 
ROOT
HETATM    1  N   UNL     1     -42.176  57.415 -52.110  1.00  0.00    -0.052 N 
HETATM    2  H   UNL     1     -41.165  57.427 -51.936  1.00  0.00     0.281 HD
HETATM    3  C   UNL     1     -42.394  57.834 -53.603  1.00  0.00     0.288 C 
HETATM    4  C   UNL     1     -41.845  59.272 -53.864  1.00  0.00     0.249 C 
HETATM    5  O   UNL     1     -41.332  59.627 -54.922  1.00  0.00    -0.271 OA
HETATM    6  N   UNL     1     -41.998  60.186 -52.851  1.00  0.00    -0.358 N 
HETATM    7  C   UNL     1     -42.144  59.826 -51.455  1.00  0.00     0.150 C 
HETATM    8  C   UNL     1     -42.843  58.481 -51.231  1.00  0.00     0.256 C 
HETATM    9  H   UNL     1     -41.619  61.105 -53.073  1.00  0.00     0.162 HD
ENDROOT
BRANCH   3  10
HETATM   10  C   UNL     1     -41.726  56.860 -54.582  1.00  0.00     0.145 C 
BRANCH  10  11
HETATM   11  C   UNL     1     -42.664  56.646 -55.749  1.00  0.00     0.220 C 
HETATM   12  N   UNL     1     -42.062  56.731 -56.977  1.00  0.00    -0.355 N 
HETATM   13  H   UNL     1     -41.095  57.014 -57.059  1.00  0.00     0.162 HD
HETATM   14  O   UNL     1     -43.851  56.395 -55.574  1.00  0.00    -0.274 OA
BRANCH  12  15
HETATM   15  C   UNL     1     -42.844  56.836 -58.188  1.00  0.00     0.179 C 
BRANCH  15  16
HETATM   16  C   UNL     1     -42.471  58.129 -58.818  1.00  0.00     0.028 A 
HETATM   17  N   UNL     1     -42.009  59.194 -58.078  1.00  0.00    -0.357 N 
HETATM   18  H   UNL     1     -41.868  59.191 -57.074  1.00  0.00     0.166 HD
HETATM   19  C   UNL     1     -41.697  60.253 -58.902  1.00  0.00     0.043 A 
HETATM   20  C   UNL     1     -41.995  59.860 -60.207  1.00  0.00    -0.005 A 
HETATM   21  C   UNL     1     -41.178  61.516 -58.588  1.00  0.00     0.033 A 
HETATM   22  C   UNL     1     -42.488  58.528 -60.141  1.00  0.00     0.040 A 
HETATM   23  C   UNL     1     -41.772  60.768 -61.257  1.00  0.00     0.056 A 
HETATM   24  C   UNL     1     -41.254  62.027 -60.953  1.00  0.00     0.117 A 
HETATM   25  C   UNL     1     -40.961  62.401 -59.647  1.00  0.00     0.044 A 
HETATM   26  F   UNL     1     -41.032  62.897 -61.947  1.00  0.00    -0.206 F 
ENDBRANCH  15  16
ENDBRANCH  12  15
ENDBRANCH  10  11
ENDBRANCH   3  10
BRANCH   1  27
HETATM   27  C   UNL     1     -42.695  56.024 -51.788  1.00  0.00     0.277 C 
BRANCH  27  28
HETATM   28  C   UNL     1     -41.822  55.162 -50.904  1.00  0.00     0.001 A 
HETATM   29  C   UNL     1     -41.138  54.071 -51.479  1.00  0.00     0.076 A 
HETATM   30  C   UNL     1     -40.331  53.251 -50.684  1.00  0.00     0.037 A 
HETATM   31  C   UNL     1     -40.154  53.540 -49.332  1.00  0.00     0.003 A 
HETATM   32  C   UNL     1     -40.768  54.653 -48.769  1.00  0.00     0.001 A 
HETATM   33  C   UNL     1     -41.587  55.468 -49.550  1.00  0.00     0.012 A 
BRANCH  29  34
HETATM   34  O   UNL     1     -41.332  53.890 -52.823  1.00  0.00    -0.351 OA
BRANCH  34  35
HETATM   35  C   UNL     1     -40.406  53.032 -53.499  1.00  0.00     0.171 C 
HETATM   36  C   UNL     1     -40.268  53.531 -54.927  1.00  0.00     0.034 C 
ENDBRANCH  34  35
ENDBRANCH  29  34
ENDBRANCH  27  28
ENDBRANCH   1  27
TORSDOF 8
ENDMDL
MODEL 9
REMARK VINA RESULT:      -7.7      3.796      4.852
REMARK  8 active torsions:
REMARK  status: ('A' for Active; 'I' for Inactive)
REMARK    1  A    between atoms: C_2  and  O_3 
REMARK    2  A    between atoms: O_3  and  C_4 
REMARK    3  A    between atoms: C_5  and  C_6 
REMARK    4  A    between atoms: C_6  and  N_7 
REMARK    5  A    between atoms: C_9  and  C_10 
REMARK    6  A    between atoms: C_10  and  C_11 
REMARK       I    between atoms: C_11  and  N_12 
REMARK    7  A    between atoms: N_12  and  C_13 
REMARK    8  A    between atoms: C_13  and  C_14 
ROOT
HETATM    1  N   UNL     1     -43.090  56.338 -53.680  1.00  0.00    -0.052 N 
HETATM    2  H   UNL     1     -42.153  56.492 -53.292  1.00  0.00     0.281 HD
HETATM    3  C   UNL     1     -43.123  57.015 -55.092  1.00  0.00     0.288 C 
HETATM    4  C   UNL     1     -42.859  58.550 -54.979  1.00  0.00     0.249 C 
HETATM    5  O   UNL     1     -42.255  59.204 -55.824  1.00  0.00    -0.271 OA
HETATM    6  N   UNL     1     -43.385  59.189 -53.885  1.00  0.00    -0.358 N 
HETATM    7  C   UNL     1     -43.697  58.524 -52.635  1.00  0.00     0.150 C 
HETATM    8  C   UNL     1     -44.118  57.060 -52.800  1.00  0.00     0.256 C 
HETATM    9  H   UNL     1     -43.179  60.186 -53.859  1.00  0.00     0.162 HD
ENDROOT
BRANCH   3  10
HETATM   10  C   UNL     1     -42.095  56.402 -56.053  1.00  0.00     0.145 C 
BRANCH  10  11
HETATM   11  C   UNL     1     -42.645  56.502 -57.459  1.00  0.00     0.220 C 
HETATM   12  N   UNL     1     -42.029  57.445 -58.237  1.00  0.00    -0.355 N 
HETATM   13  H   UNL     1     -41.340  58.071 -57.842  1.00  0.00     0.162 HD
HETATM   14  O   UNL     1     -43.550  55.769 -57.842  1.00  0.00    -0.274 OA
BRANCH  12  15
HETATM   15  C   UNL     1     -42.603  57.871 -59.494  1.00  0.00     0.179 C 
BRANCH  15  16
HETATM   16  C   UNL     1     -42.124  59.257 -59.727  1.00  0.00     0.028 A 
HETATM   17  N   UNL     1     -41.692  60.062 -58.697  1.00  0.00    -0.357 N 
HETATM   18  H   UNL     1     -41.644  59.789 -57.721  1.00  0.00     0.166 HD
HETATM   19  C   UNL     1     -41.265  61.278 -59.182  1.00  0.00     0.043 A 
HETATM   20  C   UNL     1     -41.456  61.258 -60.564  1.00  0.00    -0.005 A 
HETATM   21  C   UNL     1     -40.729  62.380 -58.505  1.00  0.00     0.033 A 
HETATM   22  C   UNL     1     -42.003  59.988 -60.894  1.00  0.00     0.040 A 
HETATM   23  C   UNL     1     -41.102  62.393 -61.315  1.00  0.00     0.056 A 
HETATM   24  C   UNL     1     -40.566  63.495 -60.648  1.00  0.00     0.117 A 
HETATM   25  C   UNL     1     -40.381  63.496 -59.270  1.00  0.00     0.044 A 
HETATM   26  F   UNL     1     -40.220  64.579 -61.355  1.00  0.00    -0.206 F 
ENDBRANCH  15  16
ENDBRANCH  12  15
ENDBRANCH  10  11
ENDBRANCH   3  10
BRANCH   1  27
HETATM   27  C   UNL     1     -43.345  54.840 -53.719  1.00  0.00     0.277 C 
BRANCH  27  28
HETATM   28  C   UNL     1     -42.173  53.944 -53.388  1.00  0.00     0.001 A 
HETATM   29  C   UNL     1     -41.755  53.839 -52.045  1.00  0.00     0.076 A 
HETATM   30  C   UNL     1     -40.670  53.025 -51.709  1.00  0.00     0.037 A 
HETATM   31  C   UNL     1     -40.029  52.271 -52.691  1.00  0.00     0.003 A 
HETATM   32  C   UNL     1     -40.475  52.314 -54.007  1.00  0.00     0.001 A 
HETATM   33  C   UNL     1     -41.548  53.135 -54.354  1.00  0.00     0.012 A 
BRANCH  29  34
HETATM   34  O   UNL     1     -42.472  54.577 -51.140  1.00  0.00    -0.351 OA
BRANCH  34  35
HETATM   35  C   UNL     1     -41.738  55.167 -50.061  1.00  0.00     0.171 C 
HETATM   36  C   UNL     1     -41.204  56.506 -50.540  1.00  0.00     0.034 C 
ENDBRANCH  34  35
ENDBRANCH  29  34
ENDBRANCH  27  28
ENDBRANCH   1  27
TORSDOF 8
ENDMDL
MODEL 10
REMARK VINA RESULT:      -7.6      2.393      4.002
REMARK  8 active torsions:
REMARK  status: ('A' for Active; 'I' for Inactive)
REMARK    1  A    between atoms: C_2  and  O_3 
REMARK    2  A    between atoms: O_3  and  C_4 
REMARK    3  A    between atoms: C_5  and  C_6 
REMARK    4  A    between atoms: C_6  and  N_7 
REMARK    5  A    between atoms: C_9  and  C_10 
REMARK    6  A    between atoms: C_10  and  C_11 
REMARK       I    between atoms: C_11  and  N_12 
REMARK    7  A    between atoms: N_12  and  C_13 
REMARK    8  A    between atoms: C_13  and  C_14 
ROOT
HETATM    1  N   UNL     1     -43.168  56.538 -52.511  1.00  0.00    -0.052 N 
HETATM    2  H   UNL     1     -42.301  56.984 -52.192  1.00  0.00     0.281 HD
HETATM    3  C   UNL     1     -43.224  56.698 -54.068  1.00  0.00     0.288 C 
HETATM    4  C   UNL     1     -43.242  58.206 -54.472  1.00  0.00     0.249 C 
HETATM    5  O   UNL     1     -42.706  58.650 -55.484  1.00  0.00    -0.271 OA
HETATM    6  N   UNL     1     -43.944  59.057 -53.656  1.00  0.00    -0.358 N 
HETATM    7  C   UNL     1     -44.217  58.791 -52.258  1.00  0.00     0.150 C 
HETATM    8  C   UNL     1     -44.363  57.302 -51.927  1.00  0.00     0.256 C 
HETATM    9  H   UNL     1     -43.918  60.028 -53.964  1.00  0.00     0.162 HD
ENDROOT
BRANCH   3  10
HETATM   10  C   UNL     1     -42.043  56.009 -54.764  1.00  0.00     0.145 C 
BRANCH  10  11
HETATM   11  C   UNL     1     -42.571  55.281 -55.980  1.00  0.00     0.220 C 
HETATM   12  N   UNL     1     -42.403  55.957 -57.158  1.00  0.00    -0.355 N 
HETATM   13  H   UNL     1     -42.044  56.903 -57.164  1.00  0.00     0.162 HD
HETATM   14  O   UNL     1     -43.079  54.169 -55.885  1.00  0.00    -0.274 OA
BRANCH  12  15
HETATM   15  C   UNL     1     -43.091  55.549 -58.362  1.00  0.00     0.179 C 
BRANCH  15  16
HETATM   16  C   UNL     1     -44.209  56.509 -58.553  1.00  0.00     0.028 A 
HETATM   17  N   UNL     1     -44.649  57.326 -57.536  1.00  0.00    -0.357 N 
HETATM   18  H   UNL     1     -44.256  57.363 -56.603  1.00  0.00     0.166 HD
HETATM   19  C   UNL     1     -45.664  58.145 -57.982  1.00  0.00     0.043 A 
HETATM   20  C   UNL     1     -45.896  57.820 -59.319  1.00  0.00    -0.005 A 
HETATM   21  C   UNL     1     -46.383  59.138 -57.305  1.00  0.00     0.033 A 
HETATM   22  C   UNL     1     -44.983  56.786 -59.664  1.00  0.00     0.040 A 
HETATM   23  C   UNL     1     -46.898  58.512 -60.022  1.00  0.00     0.056 A 
HETATM   24  C   UNL     1     -47.618  59.504 -59.354  1.00  0.00     0.117 A 
HETATM   25  C   UNL     1     -47.371  59.816 -58.023  1.00  0.00     0.044 A 
HETATM   26  F   UNL     1     -48.571  60.173 -60.017  1.00  0.00    -0.206 F 
ENDBRANCH  15  16
ENDBRANCH  12  15
ENDBRANCH  10  11
ENDBRANCH   3  10
BRANCH   1  27
HETATM   27  C   UNL     1     -43.153  55.091 -52.049  1.00  0.00     0.277 C 
BRANCH  27  28
HETATM   28  C   UNL     1     -42.092  54.711 -51.042  1.00  0.00     0.001 A 
HETATM   29  C   UNL     1     -41.138  53.733 -51.393  1.00  0.00     0.076 A 
HETATM   30  C   UNL     1     -40.151  53.355 -50.479  1.00  0.00     0.037 A 
HETATM   31  C   UNL     1     -40.070  53.980 -49.235  1.00  0.00     0.003 A 
HETATM   32  C   UNL     1     -40.963  54.993 -48.903  1.00  0.00     0.001 A 
HETATM   33  C   UNL     1     -41.961  55.367 -49.804  1.00  0.00     0.012 A 
BRANCH  29  34
HETATM   34  O   UNL     1     -41.264  53.207 -52.652  1.00  0.00    -0.351 OA
BRANCH  34  35
HETATM   35  C   UNL     1     -40.176  52.405 -53.128  1.00  0.00     0.171 C 
HETATM   36  C   UNL     1     -40.230  52.403 -54.645  1.00  0.00     0.034 C 
ENDBRANCH  34  35
ENDBRANCH  29  34
ENDBRANCH  27  28
ENDBRANCH   1  27
TORSDOF 8
ENDMDL
