MODEL 1
REMARK VINA RESULT:      -9.0      0.000      0.000
REMARK  7 active torsions:
REMARK  status: ('A' for Active; 'I' for Inactive)
REMARK    1  A    between atoms: C_10  and  C_11 
REMARK    2  A    between atoms: C_11  and  C_12 
REMARK       I    between atoms: C_12  and  N_13 
REMARK    3  A    between atoms: N_13  and  N_14 
REMARK       I    between atoms: N_14  and  C_15 
REMARK    4  A    between atoms: C_15  and  C_16 
REMARK    5  A    between atoms: C_16  and  C_17 
REMARK    6  A    between atoms: C_17  and  C_18 
REMARK       I    between atoms: C_18  and  N_19 
REMARK    7  A    between atoms: N_19  and  C_20 
ROOT
HETATM    1  C   UNL     1     -42.581  59.607 -59.959  1.00  0.00     0.034 A 
HETATM    2  C   UNL     1     -42.104  59.777 -58.658  1.00  0.00     0.031 A 
HETATM    3  C   UNL     1     -41.331  60.896 -58.323  1.00  0.00     0.025 A 
HETATM    4  C   UNL     1     -41.030  61.859 -59.289  1.00  0.00     0.044 A 
HETATM    5  C   UNL     1     -40.242  63.005 -58.945  1.00  0.00     0.099 C 
HETATM    6  N   UNL     1     -39.604  63.935 -58.673  1.00  0.00    -0.191 NA
HETATM    7  C   UNL     1     -41.504  61.694 -60.593  1.00  0.00     0.025 A 
HETATM    8  C   UNL     1     -42.271  60.572 -60.925  1.00  0.00     0.031 A 
ENDROOT
BRANCH   1   9
HETATM    9  N   UNL     1     -43.358  58.508 -60.377  1.00  0.00    -0.327 N 
HETATM   10  C   UNL     1     -44.598  58.127 -59.905  1.00  0.00     0.222 C 
HETATM   11  O   UNL     1     -45.265  58.700 -59.050  1.00  0.00    -0.273 OA
HETATM   12  H   UNL     1     -42.969  57.948 -61.138  1.00  0.00     0.169 HD
BRANCH  10  13
HETATM   13  C   UNL     1     -45.133  56.877 -60.579  1.00  0.00     0.112 C 
BRANCH  13  14
HETATM   14  C   UNL     1     -44.950  55.641 -59.706  1.00  0.00     0.114 C 
BRANCH  14  15
HETATM   15  C   UNL     1     -43.554  55.565 -59.122  1.00  0.00     0.236 C 
HETATM   16  N   UNL     1     -43.542  55.339 -57.765  1.00  0.00    -0.268 N 
HETATM   17  H   UNL     1     -44.384  55.308 -57.189  1.00  0.00     0.190 HD
HETATM   18  O   UNL     1     -42.533  55.657 -59.802  1.00  0.00    -0.272 OA
BRANCH  16  19
HETATM   19  N   UNL     1     -42.331  55.437 -57.073  1.00  0.00    -0.267 N 
HETATM   20  C   UNL     1     -42.384  55.475 -55.692  1.00  0.00     0.240 C 
HETATM   21  O   UNL     1     -43.453  55.486 -55.080  1.00  0.00    -0.272 OA
HETATM   22  H   UNL     1     -41.478  55.207 -57.583  1.00  0.00     0.190 HD
BRANCH  20  23
HETATM   23  C   UNL     1     -41.037  55.569 -55.019  1.00  0.00     0.146 C 
BRANCH  23  24
HETATM   24  C   UNL     1     -40.880  54.847 -53.711  1.00  0.00    -0.015 A 
HETATM   25  C   UNL     1     -40.491  53.489 -53.432  1.00  0.00    -0.000 A 
HETATM   26  C   UNL     1     -40.150  52.356 -54.209  1.00  0.00     0.021 A 
HETATM   27  C   UNL     1     -40.464  53.343 -52.044  1.00  0.00     0.043 A 
HETATM   28  C   UNL     1     -39.792  51.142 -53.592  1.00  0.00    -0.061 A 
HETATM   29  C   UNL     1     -39.391  49.963 -54.429  1.00  0.00     0.048 C 
HETATM   30  C   UNL     1     -39.760  51.058 -52.200  1.00  0.00     0.009 A 
HETATM   31  C   UNL     1     -40.105  52.151 -51.403  1.00  0.00     0.031 A 
HETATM   32  N   UNL     1     -40.845  54.541 -51.497  1.00  0.00    -0.359 N 
HETATM   33  H   UNL     1     -40.925  54.711 -50.504  1.00  0.00     0.166 HD
HETATM   34  C   UNL     1     -41.094  55.460 -52.480  1.00  0.00     0.013 A 
HETATM   35  C   UNL     1     -41.519  56.847 -52.150  1.00  0.00     0.068 C 
ENDBRANCH  23  24
ENDBRANCH  20  23
ENDBRANCH  16  19
ENDBRANCH  14  15
ENDBRANCH  13  14
ENDBRANCH  10  13
ENDBRANCH   1   9
TORSDOF 7
ENDMDL
MODEL 2
REMARK VINA RESULT:      -8.9      3.978      5.891
REMARK  7 active torsions:
REMARK  status: ('A' for Active; 'I' for Inactive)
REMARK    1  A    between atoms: C_10  and  C_11 
REMARK    2  A    between atoms: C_11  and  C_12 
REMARK       I    between atoms: C_12  and  N_13 
REMARK    3  A    between atoms: N_13  and  N_14 
REMARK       I    between atoms: N_14  and  C_15 
REMARK    4  A    between atoms: C_15  and  C_16 
REMARK    5  A    between atoms: C_16  and  C_17 
REMARK    6  A    between atoms: C_17  and  C_18 
REMARK       I    between atoms: C_18  and  N_19 
REMARK    7  A    between atoms: N_19  and  C_20 
ROOT
HETATM    1  C   UNL     1     -42.042  59.257 -52.297  1.00  0.00     0.034 A 
HETATM    2  C   UNL     1     -42.047  59.891 -51.054  1.00  0.00     0.031 A 
HETATM    3  C   UNL     1     -40.859  60.041 -50.326  1.00  0.00     0.025 A 
HETATM    4  C   UNL     1     -39.653  59.561 -50.840  1.00  0.00     0.044 A 
HETATM    5  C   UNL     1     -38.437  59.718 -50.098  1.00  0.00     0.099 C 
HETATM    6  N   UNL     1     -37.450  59.843 -49.500  1.00  0.00    -0.191 NA
HETATM    7  C   UNL     1     -39.641  58.925 -52.084  1.00  0.00     0.025 A 
HETATM    8  C   UNL     1     -40.830  58.771 -52.805  1.00  0.00     0.031 A 
ENDROOT
BRANCH   1   9
HETATM    9  N   UNL     1     -43.193  59.060 -53.086  1.00  0.00    -0.327 N 
HETATM   10  C   UNL     1     -43.589  59.787 -54.192  1.00  0.00     0.222 C 
HETATM   11  O   UNL     1     -42.989  60.724 -54.707  1.00  0.00    -0.273 OA
HETATM   12  H   UNL     1     -43.784  58.268 -52.827  1.00  0.00     0.169 HD
BRANCH  10  13
HETATM   13  C   UNL     1     -44.898  59.300 -54.786  1.00  0.00     0.112 C 
BRANCH  13  14
HETATM   14  C   UNL     1     -44.674  58.212 -55.829  1.00  0.00     0.114 C 
BRANCH  14  15
HETATM   15  C   UNL     1     -44.287  56.892 -55.194  1.00  0.00     0.236 C 
HETATM   16  N   UNL     1     -43.549  56.082 -56.026  1.00  0.00    -0.268 N 
HETATM   17  H   UNL     1     -43.350  56.304 -57.002  1.00  0.00     0.190 HD
HETATM   18  O   UNL     1     -44.571  56.593 -54.035  1.00  0.00    -0.272 OA
BRANCH  16  19
HETATM   19  N   UNL     1     -43.292  54.764 -55.634  1.00  0.00    -0.267 N 
HETATM   20  C   UNL     1     -42.014  54.463 -55.203  1.00  0.00     0.240 C 
HETATM   21  O   UNL     1     -41.107  55.297 -55.217  1.00  0.00    -0.272 OA
HETATM   22  H   UNL     1     -44.095  54.170 -55.428  1.00  0.00     0.190 HD
BRANCH  20  23
HETATM   23  C   UNL     1     -41.819  53.026 -54.786  1.00  0.00     0.146 C 
BRANCH  23  24
HETATM   24  C   UNL     1     -40.944  52.779 -53.591  1.00  0.00    -0.015 A 
HETATM   25  C   UNL     1     -40.796  53.525 -52.368  1.00  0.00    -0.000 A 
HETATM   26  C   UNL     1     -41.345  54.718 -51.840  1.00  0.00     0.021 A 
HETATM   27  C   UNL     1     -39.879  52.837 -51.571  1.00  0.00     0.043 A 
HETATM   28  C   UNL     1     -40.979  55.173 -50.559  1.00  0.00    -0.061 A 
HETATM   29  C   UNL     1     -41.604  56.415 -49.996  1.00  0.00     0.048 C 
HETATM   30  C   UNL     1     -40.076  54.433 -49.795  1.00  0.00     0.009 A 
HETATM   31  C   UNL     1     -39.502  53.261 -50.291  1.00  0.00     0.031 A 
HETATM   32  N   UNL     1     -39.463  51.739 -52.279  1.00  0.00    -0.359 N 
HETATM   33  H   UNL     1     -38.785  51.069 -51.940  1.00  0.00     0.166 HD
HETATM   34  C   UNL     1     -40.094  51.681 -53.491  1.00  0.00     0.013 A 
HETATM   35  C   UNL     1     -39.822  50.577 -54.450  1.00  0.00     0.068 C 
ENDBRANCH  23  24
ENDBRANCH  20  23
ENDBRANCH  16  19
ENDBRANCH  14  15
ENDBRANCH  13  14
ENDBRANCH  10  13
ENDBRANCH   1   9
TORSDOF 7
ENDMDL
MODEL 3
REMARK VINA RESULT:      -8.9      2.772      5.359
REMARK  7 active torsions:
REMARK  status: ('A' for Active; 'I' for Inactive)
REMARK    1  A    between atoms: C_10  and  C_11 
REMARK    2  A    between atoms: C_11  and  C_12 
REMARK       I    between atoms: C_12  and  N_13 
REMARK    3  A    between atoms: N_13  and  N_14 
REMARK       I    between atoms: N_14  and  C_15 
REMARK    4  A    between atoms: C_15  and  C_16 
REMARK    5  A    between atoms: C_16  and  C_17 
REMARK    6  A    between atoms: C_17  and  C_18 
REMARK       I    between atoms: C_18  and  N_19 
REMARK    7  A    between atoms: N_19  and  C_20 
ROOT
HETATM    1  C   UNL     1     -45.823  57.863 -59.112  1.00  0.00     0.034 A 
HETATM    2  C   UNL     1     -46.642  58.793 -59.756  1.00  0.00     0.031 A 
HETATM    3  C   UNL     1     -47.463  58.401 -60.822  1.00  0.00     0.025 A 
HETATM    4  C   UNL     1     -47.474  57.071 -61.251  1.00  0.00     0.044 A 
HETATM    5  C   UNL     1     -48.316  56.670 -62.338  1.00  0.00     0.099 C 
HETATM    6  N   UNL     1     -48.996  56.340 -63.219  1.00  0.00    -0.191 NA
HETATM    7  C   UNL     1     -46.656  56.137 -60.611  1.00  0.00     0.025 A 
HETATM    8  C   UNL     1     -45.833  56.533 -59.551  1.00  0.00     0.031 A 
ENDROOT
BRANCH   1   9
HETATM    9  N   UNL     1     -44.965  58.178 -58.040  1.00  0.00    -0.327 N 
HETATM   10  C   UNL     1     -43.743  58.819 -58.100  1.00  0.00     0.222 C 
HETATM   11  O   UNL     1     -43.195  59.259 -59.105  1.00  0.00    -0.273 OA
HETATM   12  H   UNL     1     -45.304  57.930 -57.108  1.00  0.00     0.169 HD
BRANCH  10  13
HETATM   13  C   UNL     1     -43.087  58.977 -56.740  1.00  0.00     0.112 C 
BRANCH  13  14
HETATM   14  C   UNL     1     -43.472  57.847 -55.793  1.00  0.00     0.114 C 
BRANCH  14  15
HETATM   15  C   UNL     1     -42.258  57.086 -55.301  1.00  0.00     0.236 C 
HETATM   16  N   UNL     1     -41.929  56.013 -56.096  1.00  0.00    -0.268 N 
HETATM   17  H   UNL     1     -42.490  55.703 -56.890  1.00  0.00     0.190 HD
HETATM   18  O   UNL     1     -41.607  57.421 -54.312  1.00  0.00    -0.272 OA
BRANCH  16  19
HETATM   19  N   UNL     1     -40.950  55.117 -55.652  1.00  0.00    -0.267 N 
HETATM   20  C   UNL     1     -41.378  53.946 -55.054  1.00  0.00     0.240 C 
HETATM   21  O   UNL     1     -42.571  53.714 -54.854  1.00  0.00    -0.272 OA
HETATM   22  H   UNL     1     -40.006  55.231 -56.022  1.00  0.00     0.190 HD
BRANCH  20  23
HETATM   23  C   UNL     1     -40.265  53.027 -54.615  1.00  0.00     0.146 C 
BRANCH  23  24
HETATM   24  C   UNL     1     -40.187  52.708 -53.150  1.00  0.00    -0.015 A 
HETATM   25  C   UNL     1     -40.419  53.539 -51.996  1.00  0.00    -0.000 A 
HETATM   26  C   UNL     1     -40.761  54.895 -51.781  1.00  0.00     0.021 A 
HETATM   27  C   UNL     1     -40.250  52.736 -50.867  1.00  0.00     0.043 A 
HETATM   28  C   UNL     1     -40.930  55.396 -50.476  1.00  0.00    -0.061 A 
HETATM   29  C   UNL     1     -41.337  56.826 -50.267  1.00  0.00     0.048 C 
HETATM   30  C   UNL     1     -40.772  54.544 -49.383  1.00  0.00     0.009 A 
HETATM   31  C   UNL     1     -40.419  53.205 -49.558  1.00  0.00     0.031 A 
HETATM   32  N   UNL     1     -39.903  51.483 -51.301  1.00  0.00    -0.359 N 
HETATM   33  H   UNL     1     -39.708  50.704 -50.688  1.00  0.00     0.166 HD
HETATM   34  C   UNL     1     -39.865  51.443 -52.668  1.00  0.00     0.013 A 
HETATM   35  C   UNL     1     -39.520  50.190 -53.393  1.00  0.00     0.068 C 
ENDBRANCH  23  24
ENDBRANCH  20  23
ENDBRANCH  16  19
ENDBRANCH  14  15
ENDBRANCH  13  14
ENDBRANCH  10  13
ENDBRANCH   1   9
TORSDOF 7
ENDMDL
MODEL 4
REMARK VINA RESULT:      -8.8      3.185      4.687
REMARK  7 active torsions:
REMARK  status: ('A' for Active; 'I' for Inactive)
REMARK    1  A    between atoms: C_10  and  C_11 
REMARK    2  A    between atoms: C_11  and  C_12 
REMARK       I    between atoms: C_12  and  N_13 
REMARK    3  A    between atoms: N_13  and  N_14 
REMARK       I    between atoms: N_14  and  C_15 
REMARK    4  A    between atoms: C_15  and  C_16 
REMARK    5  A    between atoms: C_16  and  C_17 
REMARK    6  A    between atoms: C_17  and  C_18 
REMARK       I    between atoms: C_18  and  N_19 
REMARK    7  A    between atoms: N_19  and  C_20 
ROOT
HETATM    1  C   UNL     1     -46.212  57.204 -60.471  1.00  0.00     0.034 A 
HETATM    2  C   UNL     1     -46.529  58.562 -60.396  1.00  0.00     0.031 A 
HETATM    3  C   UNL     1     -47.663  59.066 -61.046  1.00  0.00     0.025 A 
HETATM    4  C   UNL     1     -48.494  58.212 -61.776  1.00  0.00     0.044 A 
HETATM    5  C   UNL     1     -49.656  58.727 -62.438  1.00  0.00     0.099 C 
HETATM    6  N   UNL     1     -50.598  59.140 -62.976  1.00  0.00    -0.191 NA
HETATM    7  C   UNL     1     -48.183  56.853 -61.855  1.00  0.00     0.025 A 
HETATM    8  C   UNL     1     -47.046  56.354 -61.210  1.00  0.00     0.031 A 
ENDROOT
BRANCH   1   9
HETATM    9  N   UNL     1     -45.088  56.622 -59.853  1.00  0.00    -0.327 N 
HETATM   10  C   UNL     1     -43.763  56.976 -60.012  1.00  0.00     0.222 C 
HETATM   11  O   UNL     1     -43.326  57.890 -60.704  1.00  0.00    -0.273 OA
HETATM   12  H   UNL     1     -45.282  55.871 -59.187  1.00  0.00     0.169 HD
BRANCH  10  13
HETATM   13  C   UNL     1     -42.816  56.115 -59.196  1.00  0.00     0.112 C 
BRANCH  13  14
HETATM   14  C   UNL     1     -43.442  55.680 -57.876  1.00  0.00     0.114 C 
BRANCH  14  15
HETATM   15  C   UNL     1     -42.601  56.099 -56.688  1.00  0.00     0.236 C 
HETATM   16  N   UNL     1     -41.887  55.062 -56.133  1.00  0.00    -0.268 N 
HETATM   17  H   UNL     1     -41.975  54.090 -56.432  1.00  0.00     0.190 HD
HETATM   18  O   UNL     1     -42.533  57.260 -56.286  1.00  0.00    -0.272 OA
BRANCH  16  19
HETATM   19  N   UNL     1     -41.223  55.271 -54.920  1.00  0.00    -0.267 N 
HETATM   20  C   UNL     1     -41.864  54.869 -53.762  1.00  0.00     0.240 C 
HETATM   21  O   UNL     1     -43.003  54.402 -53.776  1.00  0.00    -0.272 OA
HETATM   22  H   UNL     1     -40.219  55.449 -54.958  1.00  0.00     0.190 HD
BRANCH  20  23
HETATM   23  C   UNL     1     -41.079  55.116 -52.498  1.00  0.00     0.146 C 
BRANCH  23  24
HETATM   24  C   UNL     1     -40.742  53.915 -51.662  1.00  0.00    -0.015 A 
HETATM   25  C   UNL     1     -40.358  52.582 -52.050  1.00  0.00    -0.000 A 
HETATM   26  C   UNL     1     -40.180  51.899 -53.277  1.00  0.00     0.021 A 
HETATM   27  C   UNL     1     -40.118  51.863 -50.878  1.00  0.00     0.043 A 
HETATM   28  C   UNL     1     -39.770  50.553 -53.297  1.00  0.00    -0.061 A 
HETATM   29  C   UNL     1     -39.543  49.856 -54.607  1.00  0.00     0.048 C 
HETATM   30  C   UNL     1     -39.521  49.888 -52.096  1.00  0.00     0.009 A 
HETATM   31  C   UNL     1     -39.702  50.526 -50.868  1.00  0.00     0.031 A 
HETATM   32  N   UNL     1     -40.370  52.701 -49.823  1.00  0.00    -0.359 N 
HETATM   33  H   UNL     1     -40.287  52.431 -48.852  1.00  0.00     0.166 HD
HETATM   34  C   UNL     1     -40.740  53.940 -50.271  1.00  0.00     0.013 A 
HETATM   35  C   UNL     1     -41.062  55.039 -49.321  1.00  0.00     0.068 C 
ENDBRANCH  23  24
ENDBRANCH  20  23
ENDBRANCH  16  19
ENDBRANCH  14  15
ENDBRANCH  13  14
ENDBRANCH  10  13
ENDBRANCH   1   9
TORSDOF 7
ENDMDL
MODEL 5
REMARK VINA RESULT:      -8.8      2.631      3.020
REMARK  7 active torsions:
REMARK  status: ('A' for Active; 'I' for Inactive)
REMARK    1  A    between atoms: C_10  and  C_11 
REMARK    2  A    between atoms: C_11  and  C_12 
REMARK       I    between atoms: C_12  and  N_13 
REMARK    3  A    between atoms: N_13  and  N_14 
REMARK       I    between atoms: N_14  and  C_15 
REMARK    4  A    between atoms: C_15  and  C_16 
REMARK    5  A    between atoms: C_16  and  C_17 
REMARK    6  A    between atoms: C_17  and  C_18 
REMARK       I    between atoms: C_18  and  N_19 
REMARK    7  A    between atoms: N_19  and  C_20 
ROOT
HETATM    1  C   UNL     1     -44.853  58.719 -57.525  1.00  0.00     0.034 A 
HETATM    2  C   UNL     1     -45.030  60.101 -57.611  1.00  0.00     0.031 A 
HETATM    3  C   UNL     1     -45.022  60.893 -56.455  1.00  0.00     0.025 A 
HETATM    4  C   UNL     1     -44.834  60.307 -55.201  1.00  0.00     0.044 A 
HETATM    5  C   UNL     1     -44.823  61.118 -54.019  1.00  0.00     0.099 C 
HETATM    6  N   UNL     1     -44.813  61.770 -53.059  1.00  0.00    -0.191 NA
HETATM    7  C   UNL     1     -44.656  58.925 -55.108  1.00  0.00     0.025 A 
HETATM    8  C   UNL     1     -44.670  58.136 -56.264  1.00  0.00     0.031 A 
ENDROOT
BRANCH   1   9
HETATM    9  N   UNL     1     -44.854  57.854 -58.637  1.00  0.00    -0.327 N 
HETATM   10  C   UNL     1     -45.940  57.219 -59.208  1.00  0.00     0.222 C 
HETATM   11  O   UNL     1     -47.113  57.321 -58.864  1.00  0.00    -0.273 OA
HETATM   12  H   UNL     1     -43.950  57.705 -59.090  1.00  0.00     0.169 HD
BRANCH  10  13
HETATM   13  C   UNL     1     -45.563  56.345 -60.390  1.00  0.00     0.112 C 
BRANCH  13  14
HETATM   14  C   UNL     1     -44.857  55.069 -59.948  1.00  0.00     0.114 C 
BRANCH  14  15
HETATM   15  C   UNL     1     -43.540  55.364 -59.259  1.00  0.00     0.236 C 
HETATM   16  N   UNL     1     -43.541  55.045 -57.921  1.00  0.00    -0.268 N 
HETATM   17  H   UNL     1     -44.368  54.721 -57.417  1.00  0.00     0.190 HD
HETATM   18  O   UNL     1     -42.555  55.807 -59.849  1.00  0.00    -0.272 OA
BRANCH  16  19
HETATM   19  N   UNL     1     -42.459  55.442 -57.130  1.00  0.00    -0.267 N 
HETATM   20  C   UNL     1     -42.421  54.989 -55.824  1.00  0.00     0.240 C 
HETATM   21  O   UNL     1     -43.330  54.312 -55.341  1.00  0.00    -0.272 OA
HETATM   22  H   UNL     1     -41.635  55.806 -57.608  1.00  0.00     0.190 HD
BRANCH  20  23
HETATM   23  C   UNL     1     -41.217  55.450 -55.039  1.00  0.00     0.146 C 
BRANCH  23  24
HETATM   24  C   UNL     1     -40.958  54.764 -53.729  1.00  0.00    -0.015 A 
HETATM   25  C   UNL     1     -40.524  53.420 -53.445  1.00  0.00    -0.000 A 
HETATM   26  C   UNL     1     -40.214  52.275 -54.216  1.00  0.00     0.021 A 
HETATM   27  C   UNL     1     -40.400  53.309 -52.059  1.00  0.00     0.043 A 
HETATM   28  C   UNL     1     -39.792  51.084 -53.597  1.00  0.00    -0.061 A 
HETATM   29  C   UNL     1     -39.425  49.892 -54.432  1.00  0.00     0.048 C 
HETATM   30  C   UNL     1     -39.663  51.034 -52.209  1.00  0.00     0.009 A 
HETATM   31  C   UNL     1     -39.975  52.140 -51.416  1.00  0.00     0.031 A 
HETATM   32  N   UNL     1     -40.767  54.514 -51.516  1.00  0.00    -0.359 N 
HETATM   33  H   UNL     1     -40.782  54.707 -50.524  1.00  0.00     0.166 HD
HETATM   34  C   UNL     1     -41.100  55.403 -52.501  1.00  0.00     0.013 A 
HETATM   35  C   UNL     1     -41.528  56.790 -52.175  1.00  0.00     0.068 C 
ENDBRANCH  23  24
ENDBRANCH  20  23
ENDBRANCH  16  19
ENDBRANCH  14  15
ENDBRANCH  13  14
ENDBRANCH  10  13
ENDBRANCH   1   9
TORSDOF 7
ENDMDL
MODEL 6
REMARK VINA RESULT:      -8.7      1.453      3.163
REMARK  7 active torsions:
REMARK  status: ('A' for Active; 'I' for Inactive)
REMARK    1  A    between atoms: C_10  and  C_11 
REMARK    2  A    between atoms: C_11  and  C_12 
REMARK       I    between atoms: C_12  and  N_13 
REMARK    3  A    between atoms: N_13  and  N_14 
REMARK       I    between atoms: N_14  and  C_15 
REMARK    4  A    between atoms: C_15  and  C_16 
REMARK    5  A    between atoms: C_16  and  C_17 
REMARK    6  A    between atoms: C_17  and  C_18 
REMARK       I    between atoms: C_18  and  N_19 
REMARK    7  A    between atoms: N_19  and  C_20 
ROOT
HETATM    1  C   UNL     1     -41.850  60.993 -59.817  1.00  0.00     0.034 A 
HETATM    2  C   UNL     1     -41.454  61.633 -60.993  1.00  0.00     0.031 A 
HETATM    3  C   UNL     1     -40.424  62.581 -60.974  1.00  0.00     0.025 A 
HETATM    4  C   UNL     1     -39.777  62.897 -59.777  1.00  0.00     0.044 A 
HETATM    5  C   UNL     1     -38.720  63.864 -59.759  1.00  0.00     0.099 C 
HETATM    6  N   UNL     1     -37.864  64.648 -59.740  1.00  0.00    -0.191 NA
HETATM    7  C   UNL     1     -40.169  62.260 -58.597  1.00  0.00     0.025 A 
HETATM    8  C   UNL     1     -41.203  61.317 -58.617  1.00  0.00     0.031 A 
ENDROOT
BRANCH   1   9
HETATM    9  N   UNL     1     -42.880  60.034 -59.750  1.00  0.00    -0.327 N 
HETATM   10  C   UNL     1     -42.808  58.697 -60.087  1.00  0.00     0.222 C 
HETATM   11  O   UNL     1     -41.816  58.092 -60.480  1.00  0.00    -0.273 OA
HETATM   12  H   UNL     1     -43.775  60.362 -59.380  1.00  0.00     0.169 HD
BRANCH  10  13
HETATM   13  C   UNL     1     -44.125  57.965 -59.901  1.00  0.00     0.112 C 
BRANCH  13  14
HETATM   14  C   UNL     1     -44.319  57.508 -58.460  1.00  0.00     0.114 C 
BRANCH  14  15
HETATM   15  C   UNL     1     -43.335  56.424 -58.075  1.00  0.00     0.236 C 
HETATM   16  N   UNL     1     -42.814  56.584 -56.812  1.00  0.00    -0.268 N 
HETATM   17  H   UNL     1     -43.002  57.395 -56.221  1.00  0.00     0.190 HD
HETATM   18  O   UNL     1     -43.060  55.472 -58.804  1.00  0.00    -0.272 OA
BRANCH  16  19
HETATM   19  N   UNL     1     -41.755  55.765 -56.407  1.00  0.00    -0.267 N 
HETATM   20  C   UNL     1     -42.057  54.676 -55.610  1.00  0.00     0.240 C 
HETATM   21  O   UNL     1     -43.202  54.458 -55.211  1.00  0.00    -0.272 OA
HETATM   22  H   UNL     1     -40.878  55.842 -56.922  1.00  0.00     0.190 HD
BRANCH  20  23
HETATM   23  C   UNL     1     -40.865  53.835 -55.226  1.00  0.00     0.146 C 
BRANCH  23  24
HETATM   24  C   UNL     1     -40.646  53.599 -53.760  1.00  0.00    -0.015 A 
HETATM   25  C   UNL     1     -40.831  54.475 -52.631  1.00  0.00    -0.000 A 
HETATM   26  C   UNL     1     -41.236  55.819 -52.453  1.00  0.00     0.021 A 
HETATM   27  C   UNL     1     -40.519  53.744 -51.484  1.00  0.00     0.043 A 
HETATM   28  C   UNL     1     -41.325  56.378 -51.164  1.00  0.00    -0.061 A 
HETATM   29  C   UNL     1     -41.799  57.791 -50.989  1.00  0.00     0.048 C 
HETATM   30  C   UNL     1     -41.025  55.595 -50.049  1.00  0.00     0.009 A 
HETATM   31  C   UNL     1     -40.606  54.271 -50.189  1.00  0.00     0.031 A 
HETATM   32  N   UNL     1     -40.135  52.491 -51.886  1.00  0.00    -0.359 N 
HETATM   33  H   UNL     1     -39.843  51.757 -51.255  1.00  0.00     0.166 HD
HETATM   34  C   UNL     1     -40.209  52.380 -53.248  1.00  0.00     0.013 A 
HETATM   35  C   UNL     1     -39.850  51.113 -53.939  1.00  0.00     0.068 C 
ENDBRANCH  23  24
ENDBRANCH  20  23
ENDBRANCH  16  19
ENDBRANCH  14  15
ENDBRANCH  13  14
ENDBRANCH  10  13
ENDBRANCH   1   9
TORSDOF 7
ENDMDL
MODEL 7
REMARK VINA RESULT:      -8.6      6.567     10.022
REMARK  7 active torsions:
REMARK  status: ('A' for Active; 'I' for Inactive)
REMARK    1  A    between atoms: C_10  and  C_11 
REMARK    2  A    between atoms: C_11  and  C_12 
REMARK       I    between atoms: C_12  and  N_13 
REMARK    3  A    between atoms: N_13  and  N_14 
REMARK       I    between atoms: N_14  and  C_15 
REMARK    4  A    between atoms: C_15  and  C_16 
REMARK    5  A    between atoms: C_16  and  C_17 
REMARK    6  A    between atoms: C_17  and  C_18 
REMARK       I    between atoms: C_18  and  N_19 
REMARK    7  A    between atoms: N_19  and  C_20 
ROOT
HETATM    1  C   UNL     1     -45.307  62.098 -46.428  1.00  0.00     0.034 A 
HETATM    2  C   UNL     1     -45.380  63.406 -45.947  1.00  0.00     0.031 A 
HETATM    3  C   UNL     1     -44.897  63.725 -44.671  1.00  0.00     0.025 A 
HETATM    4  C   UNL     1     -44.332  62.734 -43.864  1.00  0.00     0.044 A 
HETATM    5  C   UNL     1     -43.836  63.060 -42.561  1.00  0.00     0.099 C 
HETATM    6  N   UNL     1     -43.432  63.319 -41.504  1.00  0.00    -0.191 NA
HETATM    7  C   UNL     1     -44.257  61.422 -44.339  1.00  0.00     0.025 A 
HETATM    8  C   UNL     1     -44.745  61.107 -45.612  1.00  0.00     0.031 A 
ENDROOT
BRANCH   1   9
HETATM    9  N   UNL     1     -45.775  61.696 -47.694  1.00  0.00    -0.327 N 
HETATM   10  C   UNL     1     -45.177  61.913 -48.920  1.00  0.00     0.222 C 
HETATM   11  O   UNL     1     -44.105  62.475 -49.124  1.00  0.00    -0.273 OA
HETATM   12  H   UNL     1     -46.641  61.154 -47.701  1.00  0.00     0.169 HD
BRANCH  10  13
HETATM   13  C   UNL     1     -45.976  61.349 -50.081  1.00  0.00     0.112 C 
BRANCH  13  14
HETATM   14  C   UNL     1     -45.101  60.538 -51.028  1.00  0.00     0.114 C 
BRANCH  14  15
HETATM   15  C   UNL     1     -45.174  59.054 -50.732  1.00  0.00     0.236 C 
HETATM   16  N   UNL     1     -43.969  58.409 -50.877  1.00  0.00    -0.268 N 
HETATM   17  H   UNL     1     -43.124  58.860 -51.230  1.00  0.00     0.190 HD
HETATM   18  O   UNL     1     -46.203  58.491 -50.359  1.00  0.00    -0.272 OA
BRANCH  16  19
HETATM   19  N   UNL     1     -43.937  57.011 -50.821  1.00  0.00    -0.267 N 
HETATM   20  C   UNL     1     -42.727  56.410 -50.528  1.00  0.00     0.240 C 
HETATM   21  O   UNL     1     -41.693  57.062 -50.383  1.00  0.00    -0.272 OA
HETATM   22  H   UNL     1     -44.829  56.525 -50.728  1.00  0.00     0.190 HD
BRANCH  20  23
HETATM   23  C   UNL     1     -42.777  54.903 -50.473  1.00  0.00     0.146 C 
BRANCH  23  24
HETATM   24  C   UNL     1     -41.781  54.159 -51.315  1.00  0.00    -0.015 A 
HETATM   25  C   UNL     1     -41.622  54.100 -52.746  1.00  0.00    -0.000 A 
HETATM   26  C   UNL     1     -42.299  54.650 -53.860  1.00  0.00     0.021 A 
HETATM   27  C   UNL     1     -40.513  53.294 -53.006  1.00  0.00     0.043 A 
HETATM   28  C   UNL     1     -41.853  54.392 -55.170  1.00  0.00    -0.061 A 
HETATM   29  C   UNL     1     -42.555  55.018 -56.340  1.00  0.00     0.048 C 
HETATM   30  C   UNL     1     -40.725  53.597 -55.373  1.00  0.00     0.009 A 
HETATM   31  C   UNL     1     -40.042  53.026 -54.297  1.00  0.00     0.031 A 
HETATM   32  N   UNL     1     -40.031  52.856 -51.799  1.00  0.00    -0.359 N 
HETATM   33  H   UNL     1     -39.234  52.242 -51.696  1.00  0.00     0.166 HD
HETATM   34  C   UNL     1     -40.774  53.368 -50.771  1.00  0.00     0.013 A 
HETATM   35  C   UNL     1     -40.452  53.049 -49.354  1.00  0.00     0.068 C 
ENDBRANCH  23  24
ENDBRANCH  20  23
ENDBRANCH  16  19
ENDBRANCH  14  15
ENDBRANCH  13  14
ENDBRANCH  10  13
ENDBRANCH   1   9
TORSDOF 7
ENDMDL
MODEL 8
REMARK VINA RESULT:      -8.5      6.208      9.467
REMARK  7 active torsions:
REMARK  status: ('A' for Active; 'I' for Inactive)
REMARK    1  A    between atoms: C_10  and  C_11 
REMARK    2  A    between atoms: C_11  and  C_12 
REMARK       I    between atoms: C_12  and  N_13 
REMARK    3  A    between atoms: N_13  and  N_14 
REMARK       I    between atoms: N_14  and  C_15 
REMARK    4  A    between atoms: C_15  and  C_16 
REMARK    5  A    between atoms: C_16  and  C_17 
REMARK    6  A    between atoms: C_17  and  C_18 
REMARK       I    between atoms: C_18  and  N_19 
REMARK    7  A    between atoms: N_19  and  C_20 
ROOT
HETATM    1  C   UNL     1     -45.233  61.650 -46.742  1.00  0.00     0.034 A 
HETATM    2  C   UNL     1     -45.458  63.027 -46.730  1.00  0.00     0.031 A 
HETATM    3  C   UNL     1     -45.198  63.781 -45.578  1.00  0.00     0.025 A 
HETATM    4  C   UNL     1     -44.705  63.162 -44.427  1.00  0.00     0.044 A 
HETATM    5  C   UNL     1     -44.436  63.934 -43.250  1.00  0.00     0.099 C 
HETATM    6  N   UNL     1     -44.216  64.555 -42.294  1.00  0.00    -0.191 NA
HETATM    7  C   UNL     1     -44.478  61.783 -44.432  1.00  0.00     0.025 A 
HETATM    8  C   UNL     1     -44.745  61.032 -45.583  1.00  0.00     0.031 A 
ENDROOT
BRANCH   1   9
HETATM    9  N   UNL     1     -45.475  60.821 -47.855  1.00  0.00    -0.327 N 
HETATM   10  C   UNL     1     -44.869  60.879 -49.095  1.00  0.00     0.222 C 
HETATM   11  O   UNL     1     -43.980  61.651 -49.441  1.00  0.00    -0.273 OA
HETATM   12  H   UNL     1     -46.156  60.072 -47.717  1.00  0.00     0.169 HD
BRANCH  10  13
HETATM   13  C   UNL     1     -45.392  59.834 -50.062  1.00  0.00     0.112 C 
BRANCH  13  14
HETATM   14  C   UNL     1     -44.871  60.061 -51.476  1.00  0.00     0.114 C 
BRANCH  14  15
HETATM   15  C   UNL     1     -43.635  59.233 -51.761  1.00  0.00     0.236 C 
HETATM   16  N   UNL     1     -43.462  58.190 -50.881  1.00  0.00    -0.268 N 
HETATM   17  H   UNL     1     -44.056  58.034 -50.066  1.00  0.00     0.190 HD
HETATM   18  O   UNL     1     -42.883  59.449 -52.711  1.00  0.00    -0.272 OA
BRANCH  16  19
HETATM   19  N   UNL     1     -42.265  57.467 -50.914  1.00  0.00    -0.267 N 
HETATM   20  C   UNL     1     -42.351  56.091 -51.010  1.00  0.00     0.240 C 
HETATM   21  O   UNL     1     -43.434  55.503 -51.004  1.00  0.00    -0.272 OA
HETATM   22  H   UNL     1     -41.412  57.981 -51.136  1.00  0.00     0.190 HD
BRANCH  20  23
HETATM   23  C   UNL     1     -41.019  55.384 -51.053  1.00  0.00     0.146 C 
BRANCH  23  24
HETATM   24  C   UNL     1     -40.753  54.507 -52.242  1.00  0.00    -0.015 A 
HETATM   25  C   UNL     1     -40.368  53.121 -52.317  1.00  0.00    -0.000 A 
HETATM   26  C   UNL     1     -40.077  52.103 -51.379  1.00  0.00     0.021 A 
HETATM   27  C   UNL     1     -40.292  52.785 -53.669  1.00  0.00     0.043 A 
HETATM   28  C   UNL     1     -39.736  50.806 -51.808  1.00  0.00    -0.061 A 
HETATM   29  C   UNL     1     -39.473  49.726 -50.800  1.00  0.00     0.048 C 
HETATM   30  C   UNL     1     -39.697  50.518 -53.172  1.00  0.00     0.009 A 
HETATM   31  C   UNL     1     -39.962  51.503 -54.126  1.00  0.00     0.031 A 
HETATM   32  N   UNL     1     -40.587  53.913 -54.391  1.00  0.00    -0.359 N 
HETATM   33  H   UNL     1     -40.592  53.955 -55.401  1.00  0.00     0.166 HD
HETATM   34  C   UNL     1     -40.872  54.957 -53.554  1.00  0.00     0.013 A 
HETATM   35  C   UNL     1     -41.233  56.298 -54.089  1.00  0.00     0.068 C 
ENDBRANCH  23  24
ENDBRANCH  20  23
ENDBRANCH  16  19
ENDBRANCH  14  15
ENDBRANCH  13  14
ENDBRANCH  10  13
ENDBRANCH   1   9
TORSDOF 7
ENDMDL
MODEL 9
REMARK VINA RESULT:      -8.5      2.229      2.639
REMARK  7 active torsions:
REMARK  status: ('A' for Active; 'I' for Inactive)
REMARK    1  A    between atoms: C_10  and  C_11 
REMARK    2  A    between atoms: C_11  and  C_12 
REMARK       I    between atoms: C_12  and  N_13 
REMARK    3  A    between atoms: N_13  and  N_14 
REMARK       I    between atoms: N_14  and  C_15 
REMARK    4  A    between atoms: C_15  and  C_16 
REMARK    5  A    between atoms: C_16  and  C_17 
REMARK    6  A    between atoms: C_17  and  C_18 
REMARK       I    between atoms: C_18  and  N_19 
REMARK    7  A    between atoms: N_19  and  C_20 
ROOT
HETATM    1  C   UNL     1     -45.521  59.293 -59.733  1.00  0.00     0.034 A 
HETATM    2  C   UNL     1     -44.516  59.962 -59.031  1.00  0.00     0.031 A 
HETATM    3  C   UNL     1     -44.766  61.210 -58.445  1.00  0.00     0.025 A 
HETATM    4  C   UNL     1     -46.028  61.799 -58.553  1.00  0.00     0.044 A 
HETATM    5  C   UNL     1     -46.285  63.073 -57.951  1.00  0.00     0.099 C 
HETATM    6  N   UNL     1     -46.498  64.105 -57.465  1.00  0.00    -0.191 NA
HETATM    7  C   UNL     1     -47.038  61.134 -59.254  1.00  0.00     0.025 A 
HETATM    8  C   UNL     1     -46.783  59.891 -59.843  1.00  0.00     0.031 A 
ENDROOT
BRANCH   1   9
HETATM    9  N   UNL     1     -45.348  58.041 -60.355  1.00  0.00    -0.327 N 
HETATM   10  C   UNL     1     -46.082  56.890 -60.148  1.00  0.00     0.222 C 
HETATM   11  O   UNL     1     -47.046  56.760 -59.400  1.00  0.00    -0.273 OA
HETATM   12  H   UNL     1     -44.613  57.991 -61.064  1.00  0.00     0.169 HD
BRANCH  10  13
HETATM   13  C   UNL     1     -45.602  55.720 -60.986  1.00  0.00     0.112 C 
BRANCH  13  14
HETATM   14  C   UNL     1     -44.958  54.637 -60.129  1.00  0.00     0.114 C 
BRANCH  14  15
HETATM   15  C   UNL     1     -43.712  55.140 -59.429  1.00  0.00     0.236 C 
HETATM   16  N   UNL     1     -43.654  54.790 -58.100  1.00  0.00    -0.268 N 
HETATM   17  H   UNL     1     -44.410  54.312 -57.607  1.00  0.00     0.190 HD
HETATM   18  O   UNL     1     -42.822  55.765 -60.003  1.00  0.00    -0.272 OA
BRANCH  16  19
HETATM   19  N   UNL     1     -42.657  55.349 -57.294  1.00  0.00    -0.267 N 
HETATM   20  C   UNL     1     -42.581  54.923 -55.981  1.00  0.00     0.240 C 
HETATM   21  O   UNL     1     -43.392  54.129 -55.505  1.00  0.00    -0.272 OA
HETATM   22  H   UNL     1     -41.885  55.823 -57.764  1.00  0.00     0.190 HD
BRANCH  20  23
HETATM   23  C   UNL     1     -41.473  55.564 -55.182  1.00  0.00     0.146 C 
BRANCH  23  24
HETATM   24  C   UNL     1     -41.122  54.920 -53.872  1.00  0.00    -0.015 A 
HETATM   25  C   UNL     1     -40.658  53.588 -53.576  1.00  0.00    -0.000 A 
HETATM   26  C   UNL     1     -40.389  52.423 -54.332  1.00  0.00     0.021 A 
HETATM   27  C   UNL     1     -40.444  53.521 -52.199  1.00  0.00     0.043 A 
HETATM   28  C   UNL     1     -39.916  51.254 -53.706  1.00  0.00    -0.061 A 
HETATM   29  C   UNL     1     -39.594  50.040 -54.527  1.00  0.00     0.048 C 
HETATM   30  C   UNL     1     -39.697  51.248 -52.328  1.00  0.00     0.009 A 
HETATM   31  C   UNL     1     -39.967  52.375 -51.550  1.00  0.00     0.031 A 
HETATM   32  N   UNL     1     -40.785  54.739 -51.669  1.00  0.00    -0.359 N 
HETATM   33  H   UNL     1     -40.737  54.962 -50.684  1.00  0.00     0.166 HD
HETATM   34  C   UNL     1     -41.190  55.595 -52.656  1.00  0.00     0.013 A 
HETATM   35  C   UNL     1     -41.609  56.988 -52.345  1.00  0.00     0.068 C 
ENDBRANCH  23  24
ENDBRANCH  20  23
ENDBRANCH  16  19
ENDBRANCH  14  15
ENDBRANCH  13  14
ENDBRANCH  10  13
ENDBRANCH   1   9
TORSDOF 7
ENDMDL
MODEL 10
REMARK VINA RESULT:      -8.5      5.998      8.481
REMARK  7 active torsions:
REMARK  status: ('A' for Active; 'I' for Inactive)
REMARK    1  A    between atoms: C_10  and  C_11 
REMARK    2  A    between atoms: C_11  and  C_12 
REMARK       I    between atoms: C_12  and  N_13 
REMARK    3  A    between atoms: N_13  and  N_14 
REMARK       I    between atoms: N_14  and  C_15 
REMARK    4  A    between atoms: C_15  and  C_16 
REMARK    5  A    between atoms: C_16  and  C_17 
REMARK    6  A    between atoms: C_17  and  C_18 
REMARK       I    between atoms: C_18  and  N_19 
REMARK    7  A    between atoms: N_19  and  C_20 
ROOT
HETATM    1  C   UNL     1     -45.199  61.885 -48.607  1.00  0.00     0.034 A 
HETATM    2  C   UNL     1     -44.729  63.187 -48.423  1.00  0.00     0.031 A 
HETATM    3  C   UNL     1     -44.814  63.803 -47.168  1.00  0.00     0.025 A 
HETATM    4  C   UNL     1     -45.366  63.119 -46.082  1.00  0.00     0.044 A 
HETATM    5  C   UNL     1     -45.449  63.749 -44.798  1.00  0.00     0.099 C 
HETATM    6  N   UNL     1     -45.518  64.254 -43.755  1.00  0.00    -0.191 NA
HETATM    7  C   UNL     1     -45.838  61.816 -46.260  1.00  0.00     0.025 A 
HETATM    8  C   UNL     1     -45.758  61.206 -47.516  1.00  0.00     0.031 A 
ENDROOT
BRANCH   1   9
HETATM    9  N   UNL     1     -45.157  61.198 -49.836  1.00  0.00    -0.327 N 
HETATM   10  C   UNL     1     -46.012  61.344 -50.911  1.00  0.00     0.222 C 
HETATM   11  O   UNL     1     -46.953  62.126 -50.998  1.00  0.00    -0.273 OA
HETATM   12  H   UNL     1     -44.384  60.540 -49.955  1.00  0.00     0.169 HD
BRANCH  10  13
HETATM   13  C   UNL     1     -45.673  60.424 -52.070  1.00  0.00     0.112 C 
BRANCH  13  14
HETATM   14  C   UNL     1     -45.423  58.995 -51.603  1.00  0.00     0.114 C 
BRANCH  14  15
HETATM   15  C   UNL     1     -43.961  58.613 -51.715  1.00  0.00     0.236 C 
HETATM   16  N   UNL     1     -43.725  57.629 -52.646  1.00  0.00    -0.268 N 
HETATM   17  H   UNL     1     -44.464  57.140 -53.153  1.00  0.00     0.190 HD
HETATM   18  O   UNL     1     -43.070  59.160 -51.066  1.00  0.00    -0.272 OA
BRANCH  16  19
HETATM   19  N   UNL     1     -42.453  57.051 -52.713  1.00  0.00    -0.267 N 
HETATM   20  C   UNL     1     -42.368  55.675 -52.609  1.00  0.00     0.240 C 
HETATM   21  O   UNL     1     -43.360  54.974 -52.402  1.00  0.00    -0.272 OA
HETATM   22  H   UNL     1     -41.698  57.620 -53.097  1.00  0.00     0.190 HD
BRANCH  20  23
HETATM   23  C   UNL     1     -40.965  55.128 -52.703  1.00  0.00     0.146 C 
BRANCH  23  24
HETATM   24  C   UNL     1     -40.646  53.929 -51.859  1.00  0.00    -0.015 A 
HETATM   25  C   UNL     1     -40.307  52.580 -52.236  1.00  0.00    -0.000 A 
HETATM   26  C   UNL     1     -40.171  51.878 -53.457  1.00  0.00     0.021 A 
HETATM   27  C   UNL     1     -40.066  51.869 -51.059  1.00  0.00     0.043 A 
HETATM   28  C   UNL     1     -39.798  50.520 -53.467  1.00  0.00    -0.061 A 
HETATM   29  C   UNL     1     -39.615  49.801 -54.771  1.00  0.00     0.048 C 
HETATM   30  C   UNL     1     -39.546  49.864 -52.262  1.00  0.00     0.009 A 
HETATM   31  C   UNL     1     -39.687  50.522 -51.039  1.00  0.00     0.031 A 
HETATM   32  N   UNL     1     -40.274  52.728 -50.010  1.00  0.00    -0.359 N 
HETATM   33  H   UNL     1     -40.181  52.468 -49.038  1.00  0.00     0.166 HD
HETATM   34  C   UNL     1     -40.618  53.970 -50.468  1.00  0.00     0.013 A 
HETATM   35  C   UNL     1     -40.892  55.090 -49.527  1.00  0.00     0.068 C 
ENDBRANCH  23  24
ENDBRANCH  20  23
ENDBRANCH  16  19
ENDBRANCH  14  15
ENDBRANCH  13  14
ENDBRANCH  10  13
ENDBRANCH   1   9
TORSDOF 7
ENDMDL
