MODEL 1
REMARK VINA RESULT:      -7.8      0.000      0.000
REMARK  14 active torsions:
REMARK  status: ('A' for Active; 'I' for Inactive)
REMARK    1  A    between atoms: C_2  and  O_3 
REMARK    2  A    between atoms: O_3  and  C_4 
REMARK    3  A    between atoms: C_5  and  O_6 
REMARK    4  A    between atoms: C_9  and  C_10 
REMARK    5  A    between atoms: N_11  and  C_12 
REMARK    6  A    between atoms: C_12  and  C_13 
REMARK    7  A    between atoms: C_13  and  C_14 
REMARK    8  A    between atoms: C_14  and  N_15 
REMARK    9  A    between atoms: C_21  and  O_22 
REMARK   10  A    between atoms: C_23  and  C_24 
REMARK   11  A    between atoms: C_24  and  C_25 
REMARK   12  A    between atoms: C_29  and  O_30 
REMARK   13  A    between atoms: O_30  and  C_31 
REMARK   14  A    between atoms: C_31  and  C_32 
ROOT
HETATM    1  C   UNL     1     -44.180  58.733 -57.563  1.00  0.00     0.161 A 
HETATM    2  N   UNL     1     -43.291  59.766 -58.096  1.00  0.00    -0.333 N 
HETATM    3  C   UNL     1     -42.197  59.952 -57.271  1.00  0.00     0.278 A 
HETATM    4  O   UNL     1     -41.272  60.731 -57.410  1.00  0.00    -0.265 OA
HETATM    5  C   UNL     1     -42.341  59.038 -56.118  1.00  0.00     0.146 A 
HETATM    6  C   UNL     1     -43.506  58.403 -56.270  1.00  0.00     0.059 A 
ENDROOT
BRANCH   6   7
HETATM    7  C   UNL     1     -44.164  57.499 -55.308  1.00  0.00     0.193 C 
HETATM    8  O   UNL     1     -45.224  57.840 -54.793  1.00  0.00    -0.287 OA
BRANCH   7   9
HETATM    9  C   UNL     1     -43.502  56.231 -54.887  1.00  0.00     0.015 A 
HETATM   10  C   UNL     1     -43.418  55.952 -53.517  1.00  0.00     0.025 A 
HETATM   11  C   UNL     1     -42.757  54.801 -53.053  1.00  0.00    -0.028 A 
HETATM   12  C   UNL     1     -42.670  54.536 -51.575  1.00  0.00     0.051 C 
HETATM   13  C   UNL     1     -42.176  53.914 -53.975  1.00  0.00     0.074 A 
HETATM   14  C   UNL     1     -42.245  54.203 -55.340  1.00  0.00     0.038 A 
HETATM   15  C   UNL     1     -42.892  55.357 -55.793  1.00  0.00     0.018 A 
BRANCH  13  16
HETATM   16  O   UNL     1     -41.555  52.818 -53.439  1.00  0.00    -0.350 OA
BRANCH  16  17
HETATM   17  C   UNL     1     -40.652  52.091 -54.274  1.00  0.00     0.179 C 
BRANCH  17  18
HETATM   18  C   UNL     1     -39.582  51.427 -53.395  1.00  0.00     0.002 C 
HETATM   19  C   UNL     1     -39.685  51.891 -51.941  1.00  0.00     0.011 C 
HETATM   20  C   UNL     1     -39.695  49.907 -53.477  1.00  0.00     0.011 C 
ENDBRANCH  17  18
ENDBRANCH  16  17
ENDBRANCH  13  16
ENDBRANCH   7   9
ENDBRANCH   6   7
BRANCH   1  21
HETATM   21  C   UNL     1     -44.296  57.594 -58.560  1.00  0.00    -0.028 A 
HETATM   22  C   UNL     1     -43.187  56.817 -58.940  1.00  0.00     0.012 A 
HETATM   23  C   UNL     1     -43.319  55.793 -59.881  1.00  0.00     0.040 A 
HETATM   24  C   UNL     1     -44.568  55.517 -60.439  1.00  0.00     0.099 A 
HETATM   25  C   UNL     1     -45.692  56.246 -60.043  1.00  0.00     0.102 A 
HETATM   26  C   UNL     1     -45.544  57.292 -59.126  1.00  0.00     0.049 A 
BRANCH  24  27
HETATM   27  O   UNL     1     -44.667  54.546 -61.395  1.00  0.00    -0.358 OA
HETATM   28  H   UNL     1     -43.944  53.908 -61.287  1.00  0.00     0.218 HD
ENDBRANCH  24  27
BRANCH  25  29
HETATM   29  O   UNL     1     -46.972  56.064 -60.495  1.00  0.00    -0.349 OA
BRANCH  29  30
HETATM   30  C   UNL     1     -47.551  57.201 -61.146  1.00  0.00     0.171 C 
HETATM   31  C   UNL     1     -48.506  56.697 -62.214  1.00  0.00     0.034 C 
ENDBRANCH  29  30
ENDBRANCH  25  29
ENDBRANCH   1  21
BRANCH   5  32
HETATM   32  O   UNL     1     -41.463  58.982 -55.080  1.00  0.00    -0.355 OA
HETATM   33  H   UNL     1     -41.214  58.043 -54.969  1.00  0.00     0.218 HD
ENDBRANCH   5  32
BRANCH   2  34
HETATM   34  C   UNL     1     -43.798  60.772 -59.017  1.00  0.00     0.129 C 
BRANCH  34  35
HETATM   35  C   UNL     1     -43.637  60.433 -60.499  1.00  0.00     0.048 C 
BRANCH  35  36
HETATM   36  C   UNL     1     -42.224  59.960 -60.821  1.00  0.00     0.235 C 
BRANCH  36  37
HETATM   37  N   UNL     1     -41.596  60.854 -61.874  1.00  0.00    -0.079 N 
HETATM   38  H   UNL     1     -40.803  60.346 -62.289  1.00  0.00     0.278 HD
HETATM   39  C   UNL     1     -42.547  61.184 -62.997  1.00  0.00     0.269 C 
HETATM   40  C   UNL     1     -41.023  62.107 -61.265  1.00  0.00     0.269 C 
ENDBRANCH  36  37
ENDBRANCH  35  36
ENDBRANCH  34  35
ENDBRANCH   2  34
TORSDOF 14
ENDMDL
MODEL 2
REMARK VINA RESULT:      -7.6      2.324      3.428
REMARK  14 active torsions:
REMARK  status: ('A' for Active; 'I' for Inactive)
REMARK    1  A    between atoms: C_2  and  O_3 
REMARK    2  A    between atoms: O_3  and  C_4 
REMARK    3  A    between atoms: C_5  and  O_6 
REMARK    4  A    between atoms: C_9  and  C_10 
REMARK    5  A    between atoms: N_11  and  C_12 
REMARK    6  A    between atoms: C_12  and  C_13 
REMARK    7  A    between atoms: C_13  and  C_14 
REMARK    8  A    between atoms: C_14  and  N_15 
REMARK    9  A    between atoms: C_21  and  O_22 
REMARK   10  A    between atoms: C_23  and  C_24 
REMARK   11  A    between atoms: C_24  and  C_25 
REMARK   12  A    between atoms: C_29  and  O_30 
REMARK   13  A    between atoms: O_30  and  C_31 
REMARK   14  A    between atoms: C_31  and  C_32 
ROOT
HETATM    1  C   UNL     1     -43.617  57.837 -55.563  1.00  0.00     0.161 A 
HETATM    2  N   UNL     1     -44.842  58.635 -55.587  1.00  0.00    -0.333 N 
HETATM    3  C   UNL     1     -44.739  59.726 -54.744  1.00  0.00     0.278 A 
HETATM    4  O   UNL     1     -45.570  60.588 -54.521  1.00  0.00    -0.265 OA
HETATM    5  C   UNL     1     -43.412  59.671 -54.096  1.00  0.00     0.146 A 
HETATM    6  C   UNL     1     -42.817  58.555 -54.525  1.00  0.00     0.059 A 
ENDROOT
BRANCH   6   7
HETATM    7  C   UNL     1     -41.543  57.983 -54.052  1.00  0.00     0.193 C 
HETATM    8  O   UNL     1     -40.596  58.730 -53.829  1.00  0.00    -0.287 OA
BRANCH   7   9
HETATM    9  C   UNL     1     -41.372  56.506 -53.940  1.00  0.00     0.015 A 
HETATM   10  C   UNL     1     -41.920  55.860 -52.825  1.00  0.00     0.025 A 
HETATM   11  C   UNL     1     -41.746  54.478 -52.632  1.00  0.00    -0.028 A 
HETATM   12  C   UNL     1     -42.334  53.815 -51.416  1.00  0.00     0.051 C 
HETATM   13  C   UNL     1     -41.016  53.732 -53.572  1.00  0.00     0.074 A 
HETATM   14  C   UNL     1     -40.454  54.380 -54.675  1.00  0.00     0.038 A 
HETATM   15  C   UNL     1     -40.620  55.758 -54.852  1.00  0.00     0.018 A 
BRANCH  13  16
HETATM   16  O   UNL     1     -40.897  52.393 -53.309  1.00  0.00    -0.350 OA
BRANCH  16  17
HETATM   17  C   UNL     1     -39.609  51.901 -52.938  1.00  0.00     0.179 C 
BRANCH  17  18
HETATM   18  C   UNL     1     -39.476  50.443 -53.401  1.00  0.00     0.002 C 
HETATM   19  C   UNL     1     -39.634  49.468 -52.233  1.00  0.00     0.011 C 
HETATM   20  C   UNL     1     -40.502  50.137 -54.491  1.00  0.00     0.011 C 
ENDBRANCH  17  18
ENDBRANCH  16  17
ENDBRANCH  13  16
ENDBRANCH   7   9
ENDBRANCH   6   7
BRANCH   1  21
HETATM   21  C   UNL     1     -43.009  57.790 -56.953  1.00  0.00    -0.028 A 
HETATM   22  C   UNL     1     -42.261  58.859 -57.479  1.00  0.00     0.012 A 
HETATM   23  C   UNL     1     -41.737  58.798 -58.772  1.00  0.00     0.040 A 
HETATM   24  C   UNL     1     -41.936  57.658 -59.551  1.00  0.00     0.099 A 
HETATM   25  C   UNL     1     -42.636  56.566 -59.033  1.00  0.00     0.102 A 
HETATM   26  C   UNL     1     -43.187  56.648 -57.750  1.00  0.00     0.049 A 
BRANCH  24  27
HETATM   27  O   UNL     1     -41.459  57.638 -60.831  1.00  0.00    -0.358 OA
HETATM   28  H   UNL     1     -41.803  58.403 -61.318  1.00  0.00     0.218 HD
ENDBRANCH  24  27
BRANCH  25  29
HETATM   29  O   UNL     1     -42.882  55.384 -59.682  1.00  0.00    -0.349 OA
BRANCH  29  30
HETATM   30  C   UNL     1     -44.241  54.938 -59.631  1.00  0.00     0.171 C 
HETATM   31  C   UNL     1     -44.890  55.253 -60.967  1.00  0.00     0.034 C 
ENDBRANCH  29  30
ENDBRANCH  25  29
ENDBRANCH   1  21
BRANCH   5  32
HETATM   32  O   UNL     1     -42.984  60.568 -53.166  1.00  0.00    -0.355 OA
HETATM   33  H   UNL     1     -42.101  60.874 -53.453  1.00  0.00     0.218 HD
ENDBRANCH   5  32
BRANCH   2  34
HETATM   34  C   UNL     1     -46.105  58.039 -55.998  1.00  0.00     0.129 C 
BRANCH  34  35
HETATM   35  C   UNL     1     -46.702  58.609 -57.285  1.00  0.00     0.048 C 
BRANCH  35  36
HETATM   36  C   UNL     1     -46.552  57.643 -58.455  1.00  0.00     0.235 C 
BRANCH  36  37
HETATM   37  N   UNL     1     -46.129  58.391 -59.706  1.00  0.00    -0.079 N 
HETATM   38  H   UNL     1     -45.501  57.779 -60.244  1.00  0.00     0.278 HD
HETATM   39  C   UNL     1     -47.295  58.726 -60.602  1.00  0.00     0.269 C 
HETATM   40  C   UNL     1     -45.333  59.624 -59.371  1.00  0.00     0.269 C 
ENDBRANCH  36  37
ENDBRANCH  35  36
ENDBRANCH  34  35
ENDBRANCH   2  34
TORSDOF 14
ENDMDL
MODEL 3
REMARK VINA RESULT:      -7.5      1.271      2.236
REMARK  14 active torsions:
REMARK  status: ('A' for Active; 'I' for Inactive)
REMARK    1  A    between atoms: C_2  and  O_3 
REMARK    2  A    between atoms: O_3  and  C_4 
REMARK    3  A    between atoms: C_5  and  O_6 
REMARK    4  A    between atoms: C_9  and  C_10 
REMARK    5  A    between atoms: N_11  and  C_12 
REMARK    6  A    between atoms: C_12  and  C_13 
REMARK    7  A    between atoms: C_13  and  C_14 
REMARK    8  A    between atoms: C_14  and  N_15 
REMARK    9  A    between atoms: C_21  and  O_22 
REMARK   10  A    between atoms: C_23  and  C_24 
REMARK   11  A    between atoms: C_24  and  C_25 
REMARK   12  A    between atoms: C_29  and  O_30 
REMARK   13  A    between atoms: O_30  and  C_31 
REMARK   14  A    between atoms: C_31  and  C_32 
ROOT
HETATM    1  C   UNL     1     -44.172  58.755 -57.556  1.00  0.00     0.161 A 
HETATM    2  N   UNL     1     -43.289  59.792 -58.087  1.00  0.00    -0.333 N 
HETATM    3  C   UNL     1     -42.197  59.984 -57.260  1.00  0.00     0.278 A 
HETATM    4  O   UNL     1     -41.275  60.768 -57.398  1.00  0.00    -0.265 OA
HETATM    5  C   UNL     1     -42.337  59.069 -56.108  1.00  0.00     0.146 A 
HETATM    6  C   UNL     1     -43.499  58.428 -56.262  1.00  0.00     0.059 A 
ENDROOT
BRANCH   6   7
HETATM    7  C   UNL     1     -44.153  57.521 -55.300  1.00  0.00     0.193 C 
HETATM    8  O   UNL     1     -45.214  57.858 -54.783  1.00  0.00    -0.287 OA
BRANCH   7   9
HETATM    9  C   UNL     1     -43.488  56.253 -54.884  1.00  0.00     0.015 A 
HETATM   10  C   UNL     1     -43.378  55.984 -53.514  1.00  0.00     0.025 A 
HETATM   11  C   UNL     1     -42.713  54.834 -53.054  1.00  0.00    -0.028 A 
HETATM   12  C   UNL     1     -42.598  54.579 -51.576  1.00  0.00     0.051 C 
HETATM   13  C   UNL     1     -42.153  53.938 -53.981  1.00  0.00     0.074 A 
HETATM   14  C   UNL     1     -42.248  54.217 -55.347  1.00  0.00     0.038 A 
HETATM   15  C   UNL     1     -42.899  55.371 -55.795  1.00  0.00     0.018 A 
BRANCH  13  16
HETATM   16  O   UNL     1     -41.526  52.843 -53.449  1.00  0.00    -0.350 OA
BRANCH  16  17
HETATM   17  C   UNL     1     -40.848  51.964 -54.348  1.00  0.00     0.179 C 
BRANCH  17  18
HETATM   18  C   UNL     1     -39.618  51.377 -53.641  1.00  0.00     0.002 C 
HETATM   19  C   UNL     1     -39.632  51.687 -52.143  1.00  0.00     0.011 C 
HETATM   20  C   UNL     1     -39.543  49.868 -53.870  1.00  0.00     0.011 C 
ENDBRANCH  17  18
ENDBRANCH  16  17
ENDBRANCH  13  16
ENDBRANCH   7   9
ENDBRANCH   6   7
BRANCH   1  21
HETATM   21  C   UNL     1     -44.281  57.615 -58.553  1.00  0.00    -0.028 A 
HETATM   22  C   UNL     1     -43.165  56.857 -58.947  1.00  0.00     0.012 A 
HETATM   23  C   UNL     1     -43.291  55.832 -59.888  1.00  0.00     0.040 A 
HETATM   24  C   UNL     1     -44.541  55.538 -60.433  1.00  0.00     0.099 A 
HETATM   25  C   UNL     1     -45.672  56.248 -60.023  1.00  0.00     0.102 A 
HETATM   26  C   UNL     1     -45.531  57.295 -59.105  1.00  0.00     0.049 A 
BRANCH  24  27
HETATM   27  O   UNL     1     -44.636  54.566 -61.388  1.00  0.00    -0.358 OA
HETATM   28  H   UNL     1     -45.508  54.143 -61.336  1.00  0.00     0.218 HD
ENDBRANCH  24  27
BRANCH  25  29
HETATM   29  O   UNL     1     -46.955  56.046 -60.461  1.00  0.00    -0.349 OA
BRANCH  29  30
HETATM   30  C   UNL     1     -47.563  57.178 -61.091  1.00  0.00     0.171 C 
HETATM   31  C   UNL     1     -48.440  56.672 -62.223  1.00  0.00     0.034 C 
ENDBRANCH  29  30
ENDBRANCH  25  29
ENDBRANCH   1  21
BRANCH   5  32
HETATM   32  O   UNL     1     -41.460  59.018 -55.069  1.00  0.00    -0.355 OA
HETATM   33  H   UNL     1     -41.378  58.077 -54.814  1.00  0.00     0.218 HD
ENDBRANCH   5  32
BRANCH   2  34
HETATM   34  C   UNL     1     -43.799  60.796 -59.009  1.00  0.00     0.129 C 
BRANCH  34  35
HETATM   35  C   UNL     1     -45.018  61.574 -58.510  1.00  0.00     0.048 C 
BRANCH  35  36
HETATM   36  C   UNL     1     -44.616  62.740 -57.615  1.00  0.00     0.235 C 
BRANCH  36  37
HETATM   37  N   UNL     1     -45.159  62.540 -56.211  1.00  0.00    -0.079 N 
HETATM   38  H   UNL     1     -45.643  63.404 -55.932  1.00  0.00     0.278 HD
HETATM   39  C   UNL     1     -46.170  61.423 -56.135  1.00  0.00     0.269 C 
HETATM   40  C   UNL     1     -44.050  62.335 -55.214  1.00  0.00     0.269 C 
ENDBRANCH  36  37
ENDBRANCH  35  36
ENDBRANCH  34  35
ENDBRANCH   2  34
TORSDOF 14
ENDMDL
MODEL 4
REMARK VINA RESULT:      -7.4      2.818      5.256
REMARK  14 active torsions:
REMARK  status: ('A' for Active; 'I' for Inactive)
REMARK    1  A    between atoms: C_2  and  O_3 
REMARK    2  A    between atoms: O_3  and  C_4 
REMARK    3  A    between atoms: C_5  and  O_6 
REMARK    4  A    between atoms: C_9  and  C_10 
REMARK    5  A    between atoms: N_11  and  C_12 
REMARK    6  A    between atoms: C_12  and  C_13 
REMARK    7  A    between atoms: C_13  and  C_14 
REMARK    8  A    between atoms: C_14  and  N_15 
REMARK    9  A    between atoms: C_21  and  O_22 
REMARK   10  A    between atoms: C_23  and  C_24 
REMARK   11  A    between atoms: C_24  and  C_25 
REMARK   12  A    between atoms: C_29  and  O_30 
REMARK   13  A    between atoms: O_30  and  C_31 
REMARK   14  A    between atoms: C_31  and  C_32 
ROOT
HETATM    1  C   UNL     1     -42.387  57.996 -55.870  1.00  0.00     0.161 A 
HETATM    2  N   UNL     1     -43.009  59.274 -56.216  1.00  0.00    -0.333 N 
HETATM    3  C   UNL     1     -44.169  59.079 -56.944  1.00  0.00     0.278 A 
HETATM    4  O   UNL     1     -44.926  59.919 -57.395  1.00  0.00    -0.265 OA
HETATM    5  C   UNL     1     -44.345  57.623 -57.130  1.00  0.00     0.146 A 
HETATM    6  C   UNL     1     -43.287  57.030 -56.570  1.00  0.00     0.059 A 
ENDROOT
BRANCH   6   7
HETATM    7  C   UNL     1     -42.932  55.600 -56.624  1.00  0.00     0.193 C 
HETATM    8  O   UNL     1     -43.245  54.940 -57.610  1.00  0.00    -0.287 OA
BRANCH   7   9
HETATM    9  C   UNL     1     -42.287  54.936 -55.454  1.00  0.00     0.015 A 
HETATM   10  C   UNL     1     -43.064  54.713 -54.310  1.00  0.00     0.025 A 
HETATM   11  C   UNL     1     -42.502  54.143 -53.154  1.00  0.00    -0.028 A 
HETATM   12  C   UNL     1     -43.358  53.930 -51.936  1.00  0.00     0.051 C 
HETATM   13  C   UNL     1     -41.142  53.788 -53.146  1.00  0.00     0.074 A 
HETATM   14  C   UNL     1     -40.364  54.027 -54.281  1.00  0.00     0.038 A 
HETATM   15  C   UNL     1     -40.928  54.608 -55.422  1.00  0.00     0.018 A 
BRANCH  13  16
HETATM   16  O   UNL     1     -40.677  53.237 -51.982  1.00  0.00    -0.350 OA
BRANCH  16  17
HETATM   17  C   UNL     1     -39.537  52.380 -52.062  1.00  0.00     0.179 C 
BRANCH  17  18
HETATM   18  C   UNL     1     -40.009  50.936 -52.283  1.00  0.00     0.002 C 
HETATM   19  C   UNL     1     -39.593  50.415 -53.661  1.00  0.00     0.011 C 
HETATM   20  C   UNL     1     -39.465  50.025 -51.185  1.00  0.00     0.011 C 
ENDBRANCH  17  18
ENDBRANCH  16  17
ENDBRANCH  13  16
ENDBRANCH   7   9
ENDBRANCH   6   7
BRANCH   1  21
HETATM   21  C   UNL     1     -42.310  57.856 -54.360  1.00  0.00    -0.028 A 
HETATM   22  C   UNL     1     -41.087  57.706 -53.684  1.00  0.00     0.012 A 
HETATM   23  C   UNL     1     -41.050  57.551 -52.296  1.00  0.00     0.040 A 
HETATM   24  C   UNL     1     -42.237  57.565 -51.562  1.00  0.00     0.099 A 
HETATM   25  C   UNL     1     -43.461  57.758 -52.208  1.00  0.00     0.102 A 
HETATM   26  C   UNL     1     -43.491  57.878 -53.601  1.00  0.00     0.049 A 
BRANCH  24  27
HETATM   27  O   UNL     1     -42.184  57.362 -50.212  1.00  0.00    -0.358 OA
HETATM   28  H   UNL     1     -42.673  56.555 -49.986  1.00  0.00     0.218 HD
ENDBRANCH  24  27
BRANCH  25  29
HETATM   29  O   UNL     1     -44.691  57.814 -51.606  1.00  0.00    -0.349 OA
BRANCH  29  30
HETATM   30  C   UNL     1     -45.329  59.094 -51.652  1.00  0.00     0.171 C 
HETATM   31  C   UNL     1     -45.518  59.578 -50.226  1.00  0.00     0.034 C 
ENDBRANCH  29  30
ENDBRANCH  25  29
ENDBRANCH   1  21
BRANCH   5  32
HETATM   32  O   UNL     1     -45.363  57.067 -57.842  1.00  0.00    -0.355 OA
HETATM   33  H   UNL     1     -45.976  57.793 -58.073  1.00  0.00     0.218 HD
ENDBRANCH   5  32
BRANCH   2  34
HETATM   34  C   UNL     1     -42.218  60.495 -56.255  1.00  0.00     0.129 C 
BRANCH  34  35
HETATM   35  C   UNL     1     -41.373  60.678 -57.516  1.00  0.00     0.048 C 
BRANCH  35  36
HETATM   36  C   UNL     1     -41.707  61.980 -58.235  1.00  0.00     0.235 C 
BRANCH  36  37
HETATM   37  N   UNL     1     -40.497  62.897 -58.256  1.00  0.00    -0.079 N 
HETATM   38  H   UNL     1     -39.852  62.588 -57.516  1.00  0.00     0.278 HD
HETATM   39  C   UNL     1     -39.740  62.827 -59.559  1.00  0.00     0.269 C 
HETATM   40  C   UNL     1     -40.873  64.316 -57.924  1.00  0.00     0.269 C 
ENDBRANCH  36  37
ENDBRANCH  35  36
ENDBRANCH  34  35
ENDBRANCH   2  34
TORSDOF 14
ENDMDL
MODEL 5
REMARK VINA RESULT:      -7.4      3.062      6.194
REMARK  14 active torsions:
REMARK  status: ('A' for Active; 'I' for Inactive)
REMARK    1  A    between atoms: C_2  and  O_3 
REMARK    2  A    between atoms: O_3  and  C_4 
REMARK    3  A    between atoms: C_5  and  O_6 
REMARK    4  A    between atoms: C_9  and  C_10 
REMARK    5  A    between atoms: N_11  and  C_12 
REMARK    6  A    between atoms: C_12  and  C_13 
REMARK    7  A    between atoms: C_13  and  C_14 
REMARK    8  A    between atoms: C_14  and  N_15 
REMARK    9  A    between atoms: C_21  and  O_22 
REMARK   10  A    between atoms: C_23  and  C_24 
REMARK   11  A    between atoms: C_24  and  C_25 
REMARK   12  A    between atoms: C_29  and  O_30 
REMARK   13  A    between atoms: O_30  and  C_31 
REMARK   14  A    between atoms: C_31  and  C_32 
ROOT
HETATM    1  C   UNL     1     -42.667  57.768 -55.626  1.00  0.00     0.161 A 
HETATM    2  N   UNL     1     -43.019  59.039 -56.259  1.00  0.00    -0.333 N 
HETATM    3  C   UNL     1     -43.796  58.833 -57.384  1.00  0.00     0.278 A 
HETATM    4  O   UNL     1     -44.256  59.666 -58.145  1.00  0.00    -0.265 OA
HETATM    5  C   UNL     1     -43.971  57.375 -57.552  1.00  0.00     0.146 A 
HETATM    6  C   UNL     1     -43.267  56.787 -56.581  1.00  0.00     0.059 A 
ENDROOT
BRANCH   6   7
HETATM    7  C   UNL     1     -43.007  55.345 -56.414  1.00  0.00     0.193 C 
HETATM    8  O   UNL     1     -43.435  54.557 -57.252  1.00  0.00    -0.287 OA
BRANCH   7   9
HETATM    9  C   UNL     1     -42.319  54.837 -55.192  1.00  0.00     0.015 A 
HETATM   10  C   UNL     1     -43.102  54.540 -54.069  1.00  0.00     0.025 A 
HETATM   11  C   UNL     1     -42.509  54.111 -52.868  1.00  0.00    -0.028 A 
HETATM   12  C   UNL     1     -43.374  53.814 -51.674  1.00  0.00     0.051 C 
HETATM   13  C   UNL     1     -41.113  53.974 -52.793  1.00  0.00     0.074 A 
HETATM   14  C   UNL     1     -40.332  54.287 -53.908  1.00  0.00     0.038 A 
HETATM   15  C   UNL     1     -40.929  54.727 -55.095  1.00  0.00     0.018 A 
BRANCH  13  16
HETATM   16  O   UNL     1     -40.619  53.548 -51.588  1.00  0.00    -0.350 OA
BRANCH  16  17
HETATM   17  C   UNL     1     -39.528  52.626 -51.606  1.00  0.00     0.179 C 
BRANCH  17  18
HETATM   18  C   UNL     1     -40.060  51.228 -51.954  1.00  0.00     0.002 C 
HETATM   19  C   UNL     1     -39.571  50.770 -53.330  1.00  0.00     0.011 C 
HETATM   20  C   UNL     1     -39.647  50.221 -50.883  1.00  0.00     0.011 C 
ENDBRANCH  17  18
ENDBRANCH  16  17
ENDBRANCH  13  16
ENDBRANCH   7   9
ENDBRANCH   6   7
BRANCH   1  21
HETATM   21  C   UNL     1     -43.214  57.732 -54.210  1.00  0.00    -0.028 A 
HETATM   22  C   UNL     1     -44.593  57.686 -53.942  1.00  0.00     0.012 A 
HETATM   23  C   UNL     1     -45.067  57.683 -52.627  1.00  0.00     0.040 A 
HETATM   24  C   UNL     1     -44.166  57.704 -51.562  1.00  0.00     0.099 A 
HETATM   25  C   UNL     1     -42.791  57.704 -51.804  1.00  0.00     0.102 A 
HETATM   26  C   UNL     1     -42.325  57.743 -53.123  1.00  0.00     0.049 A 
BRANCH  24  27
HETATM   27  O   UNL     1     -44.650  57.752 -50.285  1.00  0.00    -0.358 OA
HETATM   28  H   UNL     1     -44.648  56.859 -49.904  1.00  0.00     0.218 HD
ENDBRANCH  24  27
BRANCH  25  29
HETATM   29  O   UNL     1     -41.804  57.704 -50.854  1.00  0.00    -0.349 OA
BRANCH  29  30
HETATM   30  C   UNL     1     -40.807  58.718 -51.017  1.00  0.00     0.171 C 
HETATM   31  C   UNL     1     -41.296  59.975 -50.320  1.00  0.00     0.034 C 
ENDBRANCH  29  30
ENDBRANCH  25  29
ENDBRANCH   1  21
BRANCH   5  32
HETATM   32  O   UNL     1     -44.648  56.806 -58.586  1.00  0.00    -0.355 OA
HETATM   33  H   UNL     1     -45.573  56.692 -58.289  1.00  0.00     0.218 HD
ENDBRANCH   5  32
BRANCH   2  34
HETATM   34  C   UNL     1     -42.206  60.225 -56.035  1.00  0.00     0.129 C 
BRANCH  34  35
HETATM   35  C   UNL     1     -42.946  61.409 -55.411  1.00  0.00     0.048 C 
BRANCH  35  36
HETATM   36  C   UNL     1     -42.929  61.347 -53.888  1.00  0.00     0.235 C 
BRANCH  36  37
HETATM   37  N   UNL     1     -44.281  61.751 -53.328  1.00  0.00    -0.079 N 
HETATM   38  H   UNL     1     -44.331  62.779 -53.332  1.00  0.00     0.278 HD
HETATM   39  C   UNL     1     -45.429  61.249 -54.167  1.00  0.00     0.269 C 
HETATM   40  C   UNL     1     -44.433  61.326 -51.892  1.00  0.00     0.269 C 
ENDBRANCH  36  37
ENDBRANCH  35  36
ENDBRANCH  34  35
ENDBRANCH   2  34
TORSDOF 14
ENDMDL
MODEL 6
REMARK VINA RESULT:      -7.4      3.010      8.614
REMARK  14 active torsions:
REMARK  status: ('A' for Active; 'I' for Inactive)
REMARK    1  A    between atoms: C_2  and  O_3 
REMARK    2  A    between atoms: O_3  and  C_4 
REMARK    3  A    between atoms: C_5  and  O_6 
REMARK    4  A    between atoms: C_9  and  C_10 
REMARK    5  A    between atoms: N_11  and  C_12 
REMARK    6  A    between atoms: C_12  and  C_13 
REMARK    7  A    between atoms: C_13  and  C_14 
REMARK    8  A    between atoms: C_14  and  N_15 
REMARK    9  A    between atoms: C_21  and  O_22 
REMARK   10  A    between atoms: C_23  and  C_24 
REMARK   11  A    between atoms: C_24  and  C_25 
REMARK   12  A    between atoms: C_29  and  O_30 
REMARK   13  A    between atoms: O_30  and  C_31 
REMARK   14  A    between atoms: C_31  and  C_32 
ROOT
HETATM    1  C   UNL     1     -41.684  55.905 -54.014  1.00  0.00     0.161 A 
HETATM    2  N   UNL     1     -42.060  56.678 -52.831  1.00  0.00    -0.333 N 
HETATM    3  C   UNL     1     -43.420  56.924 -52.811  1.00  0.00     0.278 A 
HETATM    4  O   UNL     1     -44.063  57.540 -51.979  1.00  0.00    -0.265 OA
HETATM    5  C   UNL     1     -44.005  56.326 -54.029  1.00  0.00     0.146 A 
HETATM    6  C   UNL     1     -42.992  55.810 -54.731  1.00  0.00     0.059 A 
ENDROOT
BRANCH   6   7
HETATM    7  C   UNL     1     -43.048  55.236 -56.089  1.00  0.00     0.193 C 
HETATM    8  O   UNL     1     -43.202  54.026 -56.224  1.00  0.00    -0.287 OA
BRANCH   7   9
HETATM    9  C   UNL     1     -42.820  56.099 -57.284  1.00  0.00     0.015 A 
HETATM   10  C   UNL     1     -42.357  57.404 -57.077  1.00  0.00     0.025 A 
HETATM   11  C   UNL     1     -42.175  58.286 -58.157  1.00  0.00    -0.028 A 
HETATM   12  C   UNL     1     -41.690  59.687 -57.903  1.00  0.00     0.051 C 
HETATM   13  C   UNL     1     -42.459  57.852 -59.464  1.00  0.00     0.074 A 
HETATM   14  C   UNL     1     -42.939  56.556 -59.666  1.00  0.00     0.038 A 
HETATM   15  C   UNL     1     -43.130  55.690 -58.585  1.00  0.00     0.018 A 
BRANCH  13  16
HETATM   16  O   UNL     1     -42.252  58.773 -60.456  1.00  0.00    -0.350 OA
BRANCH  16  17
HETATM   17  C   UNL     1     -43.402  59.373 -61.055  1.00  0.00     0.179 C 
BRANCH  17  18
HETATM   18  C   UNL     1     -43.123  60.865 -61.290  1.00  0.00     0.002 C 
HETATM   19  C   UNL     1     -43.741  61.730 -60.190  1.00  0.00     0.011 C 
HETATM   20  C   UNL     1     -41.620  61.116 -61.382  1.00  0.00     0.011 C 
ENDBRANCH  17  18
ENDBRANCH  16  17
ENDBRANCH  13  16
ENDBRANCH   7   9
ENDBRANCH   6   7
BRANCH   1  21
HETATM   21  C   UNL     1     -41.064  54.586 -53.590  1.00  0.00    -0.028 A 
HETATM   22  C   UNL     1     -40.434  53.726 -54.507  1.00  0.00     0.012 A 
HETATM   23  C   UNL     1     -39.897  52.505 -54.091  1.00  0.00     0.040 A 
HETATM   24  C   UNL     1     -39.965  52.137 -52.747  1.00  0.00     0.099 A 
HETATM   25  C   UNL     1     -40.546  52.995 -51.810  1.00  0.00     0.102 A 
HETATM   26  C   UNL     1     -41.111  54.200 -52.241  1.00  0.00     0.049 A 
BRANCH  24  27
HETATM   27  O   UNL     1     -39.479  50.917 -52.368  1.00  0.00    -0.358 OA
HETATM   28  H   UNL     1     -38.604  51.027 -51.965  1.00  0.00     0.218 HD
ENDBRANCH  24  27
BRANCH  25  29
HETATM   29  O   UNL     1     -40.657  52.765 -50.464  1.00  0.00    -0.349 OA
BRANCH  29  30
HETATM   30  C   UNL     1     -41.078  53.894 -49.691  1.00  0.00     0.171 C 
HETATM   31  C   UNL     1     -40.177  53.992 -48.472  1.00  0.00     0.034 C 
ENDBRANCH  29  30
ENDBRANCH  25  29
ENDBRANCH   1  21
BRANCH   5  32
HETATM   32  O   UNL     1     -45.322  56.414 -54.361  1.00  0.00    -0.355 OA
HETATM   33  H   UNL     1     -45.645  57.268 -54.011  1.00  0.00     0.218 HD
ENDBRANCH   5  32
BRANCH   2  34
HETATM   34  C   UNL     1     -41.073  57.493 -52.138  1.00  0.00     0.129 C 
BRANCH  34  35
HETATM   35  C   UNL     1     -40.837  58.877 -52.743  1.00  0.00     0.048 C 
BRANCH  35  36
HETATM   36  C   UNL     1     -41.628  59.956 -52.013  1.00  0.00     0.235 C 
BRANCH  36  37
HETATM   37  N   UNL     1     -42.796  60.421 -52.865  1.00  0.00    -0.079 N 
HETATM   38  H   UNL     1     -43.602  59.818 -52.653  1.00  0.00     0.278 HD
HETATM   39  C   UNL     1     -43.209  61.838 -52.557  1.00  0.00     0.269 C 
HETATM   40  C   UNL     1     -42.512  60.248 -54.333  1.00  0.00     0.269 C 
ENDBRANCH  36  37
ENDBRANCH  35  36
ENDBRANCH  34  35
ENDBRANCH   2  34
TORSDOF 14
ENDMDL
MODEL 7
REMARK VINA RESULT:      -7.3      3.317      6.066
REMARK  14 active torsions:
REMARK  status: ('A' for Active; 'I' for Inactive)
REMARK    1  A    between atoms: C_2  and  O_3 
REMARK    2  A    between atoms: O_3  and  C_4 
REMARK    3  A    between atoms: C_5  and  O_6 
REMARK    4  A    between atoms: C_9  and  C_10 
REMARK    5  A    between atoms: N_11  and  C_12 
REMARK    6  A    between atoms: C_12  and  C_13 
REMARK    7  A    between atoms: C_13  and  C_14 
REMARK    8  A    between atoms: C_14  and  N_15 
REMARK    9  A    between atoms: C_21  and  O_22 
REMARK   10  A    between atoms: C_23  and  C_24 
REMARK   11  A    between atoms: C_24  and  C_25 
REMARK   12  A    between atoms: C_29  and  O_30 
REMARK   13  A    between atoms: O_30  and  C_31 
REMARK   14  A    between atoms: C_31  and  C_32 
ROOT
HETATM    1  C   UNL     1     -42.484  58.213 -55.660  1.00  0.00     0.161 A 
HETATM    2  N   UNL     1     -43.213  59.462 -55.878  1.00  0.00    -0.333 N 
HETATM    3  C   UNL     1     -44.386  59.235 -56.574  1.00  0.00     0.278 A 
HETATM    4  O   UNL     1     -45.223  60.047 -56.927  1.00  0.00    -0.265 OA
HETATM    5  C   UNL     1     -44.463  57.789 -56.870  1.00  0.00     0.146 A 
HETATM    6  C   UNL     1     -43.341  57.237 -56.400  1.00  0.00     0.059 A 
ENDROOT
BRANCH   6   7
HETATM    7  C   UNL     1     -42.885  55.847 -56.582  1.00  0.00     0.193 C 
HETATM    8  O   UNL     1     -43.085  55.285 -57.654  1.00  0.00    -0.287 OA
BRANCH   7   9
HETATM    9  C   UNL     1     -42.276  55.096 -55.447  1.00  0.00     0.015 A 
HETATM   10  C   UNL     1     -43.075  54.830 -54.327  1.00  0.00     0.025 A 
HETATM   11  C   UNL     1     -42.545  54.176 -53.201  1.00  0.00    -0.028 A 
HETATM   12  C   UNL     1     -43.423  53.917 -52.006  1.00  0.00     0.051 C 
HETATM   13  C   UNL     1     -41.197  53.779 -53.198  1.00  0.00     0.074 A 
HETATM   14  C   UNL     1     -40.397  54.061 -54.308  1.00  0.00     0.038 A 
HETATM   15  C   UNL     1     -40.928  54.725 -55.419  1.00  0.00     0.018 A 
BRANCH  13  16
HETATM   16  O   UNL     1     -40.764  53.146 -52.063  1.00  0.00    -0.350 OA
BRANCH  16  17
HETATM   17  C   UNL     1     -39.592  52.334 -52.162  1.00  0.00     0.179 C 
BRANCH  17  18
HETATM   18  C   UNL     1     -40.011  50.880 -52.421  1.00  0.00     0.002 C 
HETATM   19  C   UNL     1     -39.585  50.415 -53.815  1.00  0.00     0.011 C 
HETATM   20  C   UNL     1     -39.424  49.959 -51.353  1.00  0.00     0.011 C 
ENDBRANCH  17  18
ENDBRANCH  16  17
ENDBRANCH  13  16
ENDBRANCH   7   9
ENDBRANCH   6   7
BRANCH   1  21
HETATM   21  C   UNL     1     -42.330  57.963 -54.170  1.00  0.00    -0.028 A 
HETATM   22  C   UNL     1     -41.074  57.767 -53.571  1.00  0.00     0.012 A 
HETATM   23  C   UNL     1     -40.966  57.511 -52.201  1.00  0.00     0.040 A 
HETATM   24  C   UNL     1     -42.114  57.468 -51.409  1.00  0.00     0.099 A 
HETATM   25  C   UNL     1     -43.369  57.705 -51.975  1.00  0.00     0.102 A 
HETATM   26  C   UNL     1     -43.470  57.927 -53.352  1.00  0.00     0.049 A 
BRANCH  24  27
HETATM   27  O   UNL     1     -41.992  57.167 -50.082  1.00  0.00    -0.358 OA
HETATM   28  H   UNL     1     -42.301  57.917 -49.549  1.00  0.00     0.218 HD
ENDBRANCH  24  27
BRANCH  25  29
HETATM   29  O   UNL     1     -44.566  57.713 -51.309  1.00  0.00    -0.349 OA
BRANCH  29  30
HETATM   30  C   UNL     1     -45.380  58.867 -51.543  1.00  0.00     0.171 C 
HETATM   31  C   UNL     1     -45.495  59.636 -50.239  1.00  0.00     0.034 C 
ENDBRANCH  29  30
ENDBRANCH  25  29
ENDBRANCH   1  21
BRANCH   5  32
HETATM   32  O   UNL     1     -45.469  57.213 -57.583  1.00  0.00    -0.355 OA
HETATM   33  H   UNL     1     -45.267  57.363 -58.528  1.00  0.00     0.218 HD
ENDBRANCH   5  32
BRANCH   2  34
HETATM   34  C   UNL     1     -42.516  60.739 -55.850  1.00  0.00     0.129 C 
BRANCH  34  35
HETATM   35  C   UNL     1     -43.114  61.783 -54.907  1.00  0.00     0.048 C 
BRANCH  35  36
HETATM   36  C   UNL     1     -42.765  61.496 -53.451  1.00  0.00     0.235 C 
BRANCH  36  37
HETATM   37  N   UNL     1     -43.873  61.985 -52.536  1.00  0.00    -0.079 N 
HETATM   38  H   UNL     1     -44.138  61.208 -51.916  1.00  0.00     0.278 HD
HETATM   39  C   UNL     1     -43.434  63.125 -51.653  1.00  0.00     0.269 C 
HETATM   40  C   UNL     1     -45.111  62.348 -53.313  1.00  0.00     0.269 C 
ENDBRANCH  36  37
ENDBRANCH  35  36
ENDBRANCH  34  35
ENDBRANCH   2  34
TORSDOF 14
ENDMDL
MODEL 8
REMARK VINA RESULT:      -7.1      1.246      2.090
REMARK  14 active torsions:
REMARK  status: ('A' for Active; 'I' for Inactive)
REMARK    1  A    between atoms: C_2  and  O_3 
REMARK    2  A    between atoms: O_3  and  C_4 
REMARK    3  A    between atoms: C_5  and  O_6 
REMARK    4  A    between atoms: C_9  and  C_10 
REMARK    5  A    between atoms: N_11  and  C_12 
REMARK    6  A    between atoms: C_12  and  C_13 
REMARK    7  A    between atoms: C_13  and  C_14 
REMARK    8  A    between atoms: C_14  and  N_15 
REMARK    9  A    between atoms: C_21  and  O_22 
REMARK   10  A    between atoms: C_23  and  C_24 
REMARK   11  A    between atoms: C_24  and  C_25 
REMARK   12  A    between atoms: C_29  and  O_30 
REMARK   13  A    between atoms: O_30  and  C_31 
REMARK   14  A    between atoms: C_31  and  C_32 
ROOT
HETATM    1  C   UNL     1     -43.888  59.410 -57.908  1.00  0.00     0.161 A 
HETATM    2  N   UNL     1     -42.807  60.157 -58.550  1.00  0.00    -0.333 N 
HETATM    3  C   UNL     1     -41.809  60.463 -57.643  1.00  0.00     0.278 A 
HETATM    4  O   UNL     1     -40.775  61.076 -57.837  1.00  0.00    -0.265 OA
HETATM    5  C   UNL     1     -42.220  59.933 -56.326  1.00  0.00     0.146 A 
HETATM    6  C   UNL     1     -43.433  59.398 -56.485  1.00  0.00     0.059 A 
ENDROOT
BRANCH   6   7
HETATM    7  C   UNL     1     -44.324  58.875 -55.432  1.00  0.00     0.193 C 
HETATM    8  O   UNL     1     -45.346  59.492 -55.149  1.00  0.00    -0.287 OA
BRANCH   7   9
HETATM    9  C   UNL     1     -43.941  57.664 -54.650  1.00  0.00     0.015 A 
HETATM   10  C   UNL     1     -43.652  56.488 -55.354  1.00  0.00     0.025 A 
HETATM   11  C   UNL     1     -43.339  55.297 -54.674  1.00  0.00    -0.028 A 
HETATM   12  C   UNL     1     -43.047  54.046 -55.457  1.00  0.00     0.051 C 
HETATM   13  C   UNL     1     -43.311  55.286 -53.269  1.00  0.00     0.074 A 
HETATM   14  C   UNL     1     -43.617  56.455 -52.569  1.00  0.00     0.038 A 
HETATM   15  C   UNL     1     -43.941  57.632 -53.252  1.00  0.00     0.018 A 
BRANCH  13  16
HETATM   16  O   UNL     1     -42.994  54.087 -52.688  1.00  0.00    -0.350 OA
BRANCH  16  17
HETATM   17  C   UNL     1     -42.900  54.044 -51.263  1.00  0.00     0.179 C 
BRANCH  17  18
HETATM   18  C   UNL     1     -41.439  53.792 -50.865  1.00  0.00     0.002 C 
HETATM   19  C   UNL     1     -40.632  53.216 -52.030  1.00  0.00     0.011 C 
HETATM   20  C   UNL     1     -40.795  55.083 -50.361  1.00  0.00     0.011 C 
ENDBRANCH  17  18
ENDBRANCH  16  17
ENDBRANCH  13  16
ENDBRANCH   7   9
ENDBRANCH   6   7
BRANCH   1  21
HETATM   21  C   UNL     1     -44.034  58.051 -58.569  1.00  0.00    -0.028 A 
HETATM   22  C   UNL     1     -42.956  57.157 -58.686  1.00  0.00     0.012 A 
HETATM   23  C   UNL     1     -43.114  55.924 -59.324  1.00  0.00     0.040 A 
HETATM   24  C   UNL     1     -44.360  55.560 -59.837  1.00  0.00     0.099 A 
HETATM   25  C   UNL     1     -45.456  56.414 -59.692  1.00  0.00     0.102 A 
HETATM   26  C   UNL     1     -45.281  57.661 -59.082  1.00  0.00     0.049 A 
BRANCH  24  27
HETATM   27  O   UNL     1     -44.482  54.373 -60.502  1.00  0.00    -0.358 OA
HETATM   28  H   UNL     1     -43.601  54.029 -60.718  1.00  0.00     0.218 HD
ENDBRANCH  24  27
BRANCH  25  29
HETATM   29  O   UNL     1     -46.732  56.170 -60.128  1.00  0.00    -0.349 OA
BRANCH  29  30
HETATM   30  C   UNL     1     -47.343  57.248 -60.843  1.00  0.00     0.171 C 
HETATM   31  C   UNL     1     -48.173  56.657 -61.969  1.00  0.00     0.034 C 
ENDBRANCH  29  30
ENDBRANCH  25  29
ENDBRANCH   1  21
BRANCH   5  32
HETATM   32  O   UNL     1     -41.495  60.091 -55.185  1.00  0.00    -0.355 OA
HETATM   33  H   UNL     1     -41.861  60.870 -54.722  1.00  0.00     0.218 HD
ENDBRANCH   5  32
BRANCH   2  34
HETATM   34  C   UNL     1     -43.051  60.904 -59.776  1.00  0.00     0.129 C 
BRANCH  34  35
HETATM   35  C   UNL     1     -42.214  60.467 -60.978  1.00  0.00     0.048 C 
BRANCH  35  36
HETATM   36  C   UNL     1     -41.202  61.533 -61.380  1.00  0.00     0.235 C 
BRANCH  36  37
HETATM   37  N   UNL     1     -41.437  61.969 -62.815  1.00  0.00    -0.079 N 
HETATM   38  H   UNL     1     -40.584  61.763 -63.353  1.00  0.00     0.278 HD
HETATM   39  C   UNL     1     -42.567  61.217 -63.472  1.00  0.00     0.269 C 
HETATM   40  C   UNL     1     -41.649  63.456 -62.913  1.00  0.00     0.269 C 
ENDBRANCH  36  37
ENDBRANCH  35  36
ENDBRANCH  34  35
ENDBRANCH   2  34
TORSDOF 14
ENDMDL
MODEL 9
REMARK VINA RESULT:      -7.0      3.401      8.885
REMARK  14 active torsions:
REMARK  status: ('A' for Active; 'I' for Inactive)
REMARK    1  A    between atoms: C_2  and  O_3 
REMARK    2  A    between atoms: O_3  and  C_4 
REMARK    3  A    between atoms: C_5  and  O_6 
REMARK    4  A    between atoms: C_9  and  C_10 
REMARK    5  A    between atoms: N_11  and  C_12 
REMARK    6  A    between atoms: C_12  and  C_13 
REMARK    7  A    between atoms: C_13  and  C_14 
REMARK    8  A    between atoms: C_14  and  N_15 
REMARK    9  A    between atoms: C_21  and  O_22 
REMARK   10  A    between atoms: C_23  and  C_24 
REMARK   11  A    between atoms: C_24  and  C_25 
REMARK   12  A    between atoms: C_29  and  O_30 
REMARK   13  A    between atoms: O_30  and  C_31 
REMARK   14  A    between atoms: C_31  and  C_32 
ROOT
HETATM    1  C   UNL     1     -41.900  56.470 -53.806  1.00  0.00     0.161 A 
HETATM    2  N   UNL     1     -42.470  56.788 -52.497  1.00  0.00    -0.333 N 
HETATM    3  C   UNL     1     -43.841  56.947 -52.579  1.00  0.00     0.278 A 
HETATM    4  O   UNL     1     -44.623  57.220 -51.686  1.00  0.00    -0.265 OA
HETATM    5  C   UNL     1     -44.234  56.756 -53.991  1.00  0.00     0.146 A 
HETATM    6  C   UNL     1     -43.109  56.552 -54.682  1.00  0.00     0.059 A 
ENDROOT
BRANCH   6   7
HETATM    7  C   UNL     1     -42.964  56.457 -56.146  1.00  0.00     0.193 C 
HETATM    8  O   UNL     1     -43.054  55.360 -56.689  1.00  0.00    -0.287 OA
BRANCH   7   9
HETATM    9  C   UNL     1     -42.614  57.663 -56.951  1.00  0.00     0.015 A 
HETATM   10  C   UNL     1     -42.470  57.514 -58.336  1.00  0.00     0.025 A 
HETATM   11  C   UNL     1     -42.087  58.598 -59.144  1.00  0.00    -0.028 A 
HETATM   12  C   UNL     1     -41.926  58.404 -60.627  1.00  0.00     0.051 C 
HETATM   13  C   UNL     1     -41.848  59.852 -58.556  1.00  0.00     0.074 A 
HETATM   14  C   UNL     1     -41.974  59.996 -57.173  1.00  0.00     0.038 A 
HETATM   15  C   UNL     1     -42.342  58.908 -56.374  1.00  0.00     0.018 A 
BRANCH  13  16
HETATM   16  O   UNL     1     -41.482  60.854 -59.415  1.00  0.00    -0.350 OA
BRANCH  16  17
HETATM   17  C   UNL     1     -41.347  62.172 -58.880  1.00  0.00     0.179 C 
BRANCH  17  18
HETATM   18  C   UNL     1     -40.009  62.766 -59.341  1.00  0.00     0.002 C 
HETATM   19  C   UNL     1     -39.974  62.953 -60.860  1.00  0.00     0.011 C 
HETATM   20  C   UNL     1     -39.747  64.095 -58.637  1.00  0.00     0.011 C 
ENDBRANCH  17  18
ENDBRANCH  16  17
ENDBRANCH  13  16
ENDBRANCH   7   9
ENDBRANCH   6   7
BRANCH   1  21
HETATM   21  C   UNL     1     -41.213  55.117 -53.750  1.00  0.00    -0.028 A 
HETATM   22  C   UNL     1     -40.661  54.511 -54.892  1.00  0.00     0.012 A 
HETATM   23  C   UNL     1     -40.060  53.252 -54.815  1.00  0.00     0.040 A 
HETATM   24  C   UNL     1     -39.985  52.591 -53.589  1.00  0.00     0.099 A 
HETATM   25  C   UNL     1     -40.486  53.193 -52.433  1.00  0.00     0.102 A 
HETATM   26  C   UNL     1     -41.117  54.439 -52.525  1.00  0.00     0.049 A 
BRANCH  24  27
HETATM   27  O   UNL     1     -39.439  51.339 -53.543  1.00  0.00    -0.358 OA
HETATM   28  H   UNL     1     -40.135  50.676 -53.669  1.00  0.00     0.218 HD
ENDBRANCH  24  27
BRANCH  25  29
HETATM   29  O   UNL     1     -40.457  52.664 -51.169  1.00  0.00    -0.349 OA
BRANCH  29  30
HETATM   30  C   UNL     1     -40.885  53.553 -50.132  1.00  0.00     0.171 C 
HETATM   31  C   UNL     1     -39.649  54.139 -49.473  1.00  0.00     0.034 C 
ENDBRANCH  29  30
ENDBRANCH  25  29
ENDBRANCH   1  21
BRANCH   5  32
HETATM   32  O   UNL     1     -45.509  56.884 -54.448  1.00  0.00    -0.355 OA
HETATM   33  H   UNL     1     -45.692  56.097 -54.999  1.00  0.00     0.218 HD
ENDBRANCH   5  32
BRANCH   2  34
HETATM   34  C   UNL     1     -41.642  57.377 -51.455  1.00  0.00     0.129 C 
BRANCH  34  35
HETATM   35  C   UNL     1     -41.043  58.741 -51.797  1.00  0.00     0.048 C 
BRANCH  35  36
HETATM   36  C   UNL     1     -41.533  59.828 -50.847  1.00  0.00     0.235 C 
BRANCH  36  37
HETATM   37  N   UNL     1     -42.513  60.745 -51.556  1.00  0.00    -0.079 N 
HETATM   38  H   UNL     1     -42.225  61.716 -51.376  1.00  0.00     0.278 HD
HETATM   39  C   UNL     1     -42.509  60.553 -53.052  1.00  0.00     0.269 C 
HETATM   40  C   UNL     1     -43.904  60.606 -50.997  1.00  0.00     0.269 C 
ENDBRANCH  36  37
ENDBRANCH  35  36
ENDBRANCH  34  35
ENDBRANCH   2  34
TORSDOF 14
ENDMDL
MODEL 10
REMARK VINA RESULT:      -6.9      2.680      8.340
REMARK  14 active torsions:
REMARK  status: ('A' for Active; 'I' for Inactive)
REMARK    1  A    between atoms: C_2  and  O_3 
REMARK    2  A    between atoms: O_3  and  C_4 
REMARK    3  A    between atoms: C_5  and  O_6 
REMARK    4  A    between atoms: C_9  and  C_10 
REMARK    5  A    between atoms: N_11  and  C_12 
REMARK    6  A    between atoms: C_12  and  C_13 
REMARK    7  A    between atoms: C_13  and  C_14 
REMARK    8  A    between atoms: C_14  and  N_15 
REMARK    9  A    between atoms: C_21  and  O_22 
REMARK   10  A    between atoms: C_23  and  C_24 
REMARK   11  A    between atoms: C_24  and  C_25 
REMARK   12  A    between atoms: C_29  and  O_30 
REMARK   13  A    between atoms: O_30  and  C_31 
REMARK   14  A    between atoms: C_31  and  C_32 
ROOT
HETATM    1  C   UNL     1     -41.978  56.161 -53.254  1.00  0.00     0.161 A 
HETATM    2  N   UNL     1     -42.527  57.091 -52.269  1.00  0.00    -0.333 N 
HETATM    3  C   UNL     1     -43.858  57.361 -52.530  1.00  0.00     0.278 A 
HETATM    4  O   UNL     1     -44.614  58.093 -51.916  1.00  0.00    -0.265 OA
HETATM    5  C   UNL     1     -44.240  56.614 -53.746  1.00  0.00     0.146 A 
HETATM    6  C   UNL     1     -43.140  55.991 -54.179  1.00  0.00     0.059 A 
ENDROOT
BRANCH   6   7
HETATM    7  C   UNL     1     -42.975  55.241 -55.438  1.00  0.00     0.193 C 
HETATM    8  O   UNL     1     -42.812  54.026 -55.396  1.00  0.00    -0.287 OA
BRANCH   7   9
HETATM    9  C   UNL     1     -42.907  55.960 -56.743  1.00  0.00     0.015 A 
HETATM   10  C   UNL     1     -43.488  55.351 -57.863  1.00  0.00     0.025 A 
HETATM   11  C   UNL     1     -43.410  55.950 -59.133  1.00  0.00    -0.028 A 
HETATM   12  C   UNL     1     -44.031  55.266 -60.320  1.00  0.00     0.051 C 
HETATM   13  C   UNL     1     -42.743  57.178 -59.282  1.00  0.00     0.074 A 
HETATM   14  C   UNL     1     -42.149  57.775 -58.168  1.00  0.00     0.038 A 
HETATM   15  C   UNL     1     -42.219  57.165 -56.910  1.00  0.00     0.018 A 
BRANCH  13  16
HETATM   16  O   UNL     1     -42.717  57.693 -60.551  1.00  0.00    -0.350 OA
BRANCH  16  17
HETATM   17  C   UNL     1     -42.211  59.018 -60.720  1.00  0.00     0.179 C 
BRANCH  17  18
HETATM   18  C   UNL     1     -43.388  60.004 -60.743  1.00  0.00     0.002 C 
HETATM   19  C   UNL     1     -43.292  61.017 -59.600  1.00  0.00     0.011 C 
HETATM   20  C   UNL     1     -43.449  60.726 -62.088  1.00  0.00     0.011 C 
ENDBRANCH  17  18
ENDBRANCH  16  17
ENDBRANCH  13  16
ENDBRANCH   7   9
ENDBRANCH   6   7
BRANCH   1  21
HETATM   21  C   UNL     1     -41.498  54.901 -52.556  1.00  0.00    -0.028 A 
HETATM   22  C   UNL     1     -41.851  54.600 -51.228  1.00  0.00     0.012 A 
HETATM   23  C   UNL     1     -41.370  53.447 -50.603  1.00  0.00     0.040 A 
HETATM   24  C   UNL     1     -40.547  52.566 -51.306  1.00  0.00     0.099 A 
HETATM   25  C   UNL     1     -40.220  52.821 -52.640  1.00  0.00     0.102 A 
HETATM   26  C   UNL     1     -40.678  53.995 -53.247  1.00  0.00     0.049 A 
BRANCH  24  27
HETATM   27  O   UNL     1     -40.046  51.470 -50.662  1.00  0.00    -0.358 OA
HETATM   28  H   UNL     1     -39.882  50.762 -51.305  1.00  0.00     0.218 HD
ENDBRANCH  24  27
BRANCH  25  29
HETATM   29  O   UNL     1     -39.443  52.031 -53.445  1.00  0.00    -0.349 OA
BRANCH  29  30
HETATM   30  C   UNL     1     -40.165  51.245 -54.400  1.00  0.00     0.171 C 
HETATM   31  C   UNL     1     -39.598  49.837 -54.375  1.00  0.00     0.034 C 
ENDBRANCH  29  30
ENDBRANCH  25  29
ENDBRANCH   1  21
BRANCH   5  32
HETATM   32  O   UNL     1     -45.471  56.678 -54.321  1.00  0.00    -0.355 OA
HETATM   33  H   UNL     1     -45.341  56.567 -55.284  1.00  0.00     0.218 HD
ENDBRANCH   5  32
BRANCH   2  34
HETATM   34  C   UNL     1     -41.648  57.977 -51.519  1.00  0.00     0.129 C 
BRANCH  34  35
HETATM   35  C   UNL     1     -41.669  59.439 -51.964  1.00  0.00     0.048 C 
BRANCH  35  36
HETATM   36  C   UNL     1     -41.343  59.584 -53.445  1.00  0.00     0.235 C 
BRANCH  36  37
HETATM   37  N   UNL     1     -42.085  60.769 -54.036  1.00  0.00    -0.079 N 
HETATM   38  H   UNL     1     -41.422  61.552 -54.112  1.00  0.00     0.278 HD
HETATM   39  C   UNL     1     -42.606  60.494 -55.424  1.00  0.00     0.269 C 
HETATM   40  C   UNL     1     -43.189  61.238 -53.127  1.00  0.00     0.269 C 
ENDBRANCH  36  37
ENDBRANCH  35  36
ENDBRANCH  34  35
ENDBRANCH   2  34
TORSDOF 14
ENDMDL
