MODEL 1
REMARK VINA RESULT:      -8.6      0.000      0.000
REMARK  6 active torsions:
REMARK  status: ('A' for Active; 'I' for Inactive)
REMARK    1  A    between atoms: O_2  and  C_3 
REMARK    2  A    between atoms: C_3  and  C_4 
REMARK    3  A    between atoms: C_4  and  N_5 
REMARK       I    between atoms: N_5  and  C_6 
REMARK    4  A    between atoms: C_6  and  C_7 
REMARK    5  A    between atoms: C_12  and  C_13 
REMARK    6  A    between atoms: C_22  and  C_23 
ROOT
HETATM    1  C   UNL     1     -44.196  57.907 -51.659  1.00  0.00     0.148 C 
HETATM    2  N   UNL     1     -44.620  57.342 -52.815  1.00  0.00    -0.165 NA
HETATM    3  N   UNL     1     -43.522  56.719 -53.272  1.00  0.00    -0.240 N 
HETATM    4  C   UNL     1     -42.473  56.726 -52.399  1.00  0.00     0.123 C 
HETATM    5  N   UNL     1     -41.369  55.987 -52.630  1.00  0.00    -0.366 N 
HETATM    6  C   UNL     1     -41.329  54.933 -53.645  1.00  0.00     0.118 C 
HETATM    7  C   UNL     1     -42.717  54.666 -54.272  1.00  0.00     0.066 C 
HETATM    8  C   UNL     1     -43.514  55.957 -54.504  1.00  0.00     0.221 C 
HETATM    9  C   UNL     1     -42.840  57.567 -51.384  1.00  0.00     0.088 C 
HETATM   10  H   UNL     1     -40.580  56.009 -51.985  1.00  0.00     0.161 HD
ENDROOT
BRANCH   1  11
HETATM   11  C   UNL     1     -45.085  58.702 -50.797  1.00  0.00     0.272 C 
HETATM   12  N   UNL     1     -44.516  59.877 -50.355  1.00  0.00    -0.354 N 
HETATM   13  H   UNL     1     -43.641  60.124 -50.812  1.00  0.00     0.162 HD
HETATM   14  O   UNL     1     -46.240  58.371 -50.547  1.00  0.00    -0.266 OA
BRANCH  12  15
HETATM   15  C   UNL     1     -45.326  60.931 -49.786  1.00  0.00     0.149 C 
BRANCH  15  16
HETATM   16  C   UNL     1     -45.146  61.034 -48.274  1.00  0.00     0.186 C 
BRANCH  16  17
HETATM   17  O   UNL     1     -46.139  60.226 -47.634  1.00  0.00    -0.394 OA
HETATM   18  C   UNL     1     -45.998  60.243 -46.220  1.00  0.00     0.201 C 
ENDBRANCH  16  17
ENDBRANCH  15  16
ENDBRANCH  12  15
ENDBRANCH   1  11
BRANCH   8  19
HETATM   19  C   UNL     1     -42.958  56.796 -55.632  1.00  0.00     0.409 C 
HETATM   20  F   UNL     1     -43.925  57.406 -56.350  1.00  0.00    -0.169 F 
HETATM   21  F   UNL     1     -42.086  57.741 -55.225  1.00  0.00    -0.169 F 
HETATM   22  F   UNL     1     -42.280  55.997 -56.499  1.00  0.00    -0.169 F 
ENDBRANCH   8  19
BRANCH   6  23
HETATM   23  C   UNL     1     -40.777  53.665 -53.007  1.00  0.00    -0.034 A 
HETATM   24  C   UNL     1     -40.391  52.575 -53.802  1.00  0.00     0.034 A 
HETATM   25  C   UNL     1     -39.887  51.407 -53.216  1.00  0.00     0.056 A 
HETATM   26 CL   UNL     1     -39.433  50.115 -54.270  1.00  0.00    -0.083 Cl
HETATM   27  C   UNL     1     -39.765  51.316 -51.826  1.00  0.00     0.055 A 
HETATM   28 CL   UNL     1     -39.154  49.906 -51.036  1.00  0.00    -0.083 Cl
HETATM   29  C   UNL     1     -40.144  52.395 -51.026  1.00  0.00     0.026 A 
HETATM   30  C   UNL     1     -40.644  53.559 -51.611  1.00  0.00     0.011 A 
ENDBRANCH   6  23
TORSDOF 6
ENDMDL
MODEL 2
REMARK VINA RESULT:      -8.1      1.455      1.714
REMARK  6 active torsions:
REMARK  status: ('A' for Active; 'I' for Inactive)
REMARK    1  A    between atoms: O_2  and  C_3 
REMARK    2  A    between atoms: C_3  and  C_4 
REMARK    3  A    between atoms: C_4  and  N_5 
REMARK       I    between atoms: N_5  and  C_6 
REMARK    4  A    between atoms: C_6  and  C_7 
REMARK    5  A    between atoms: C_12  and  C_13 
REMARK    6  A    between atoms: C_22  and  C_23 
ROOT
HETATM    1  C   UNL     1     -42.695  58.734 -52.983  1.00  0.00     0.148 C 
HETATM    2  N   UNL     1     -43.555  58.032 -53.760  1.00  0.00    -0.165 NA
HETATM    3  N   UNL     1     -42.784  57.052 -54.261  1.00  0.00    -0.240 N 
HETATM    4  C   UNL     1     -41.529  57.001 -53.727  1.00  0.00     0.123 C 
HETATM    5  N   UNL     1     -40.703  55.967 -53.986  1.00  0.00    -0.366 N 
HETATM    6  C   UNL     1     -41.171  54.723 -54.598  1.00  0.00     0.118 C 
HETATM    7  C   UNL     1     -42.711  54.680 -54.740  1.00  0.00     0.066 C 
HETATM    8  C   UNL     1     -43.299  56.035 -55.155  1.00  0.00     0.221 C 
HETATM    9  C   UNL     1     -41.404  58.131 -52.966  1.00  0.00     0.088 C 
HETATM   10  H   UNL     1     -39.760  55.942 -53.599  1.00  0.00     0.161 HD
ENDROOT
BRANCH   1  11
HETATM   11  C   UNL     1     -43.112  59.918 -52.217  1.00  0.00     0.272 C 
HETATM   12  N   UNL     1     -43.568  59.621 -50.950  1.00  0.00    -0.354 N 
HETATM   13  H   UNL     1     -43.395  58.664 -50.650  1.00  0.00     0.162 HD
HETATM   14  O   UNL     1     -43.009  61.062 -52.650  1.00  0.00    -0.266 OA
BRANCH  12  15
HETATM   15  C   UNL     1     -43.704  60.652 -49.945  1.00  0.00     0.149 C 
BRANCH  15  16
HETATM   16  C   UNL     1     -45.153  61.103 -49.786  1.00  0.00     0.186 C 
BRANCH  16  17
HETATM   17  O   UNL     1     -45.798  60.256 -48.828  1.00  0.00    -0.394 OA
HETATM   18  C   UNL     1     -45.694  60.779 -47.511  1.00  0.00     0.201 C 
ENDBRANCH  16  17
ENDBRANCH  15  16
ENDBRANCH  12  15
ENDBRANCH   1  11
BRANCH   8  19
HETATM   19  C   UNL     1     -42.989  56.397 -56.589  1.00  0.00     0.409 C 
HETATM   20  F   UNL     1     -42.012  57.323 -56.691  1.00  0.00    -0.169 F 
HETATM   21  F   UNL     1     -42.639  55.340 -57.350  1.00  0.00    -0.169 F 
HETATM   22  F   UNL     1     -44.094  56.936 -57.170  1.00  0.00    -0.169 F 
ENDBRANCH   8  19
BRANCH   6  23
HETATM   23  C   UNL     1     -40.679  53.553 -53.757  1.00  0.00    -0.034 A 
HETATM   24  C   UNL     1     -40.311  52.343 -54.364  1.00  0.00     0.034 A 
HETATM   25  C   UNL     1     -39.861  51.264 -53.591  1.00  0.00     0.056 A 
HETATM   26 CL   UNL     1     -39.425  49.813 -54.420  1.00  0.00    -0.083 Cl
HETATM   27  C   UNL     1     -39.776  51.385 -52.200  1.00  0.00     0.055 A 
HETATM   28 CL   UNL     1     -39.234  50.096 -51.186  1.00  0.00    -0.083 Cl
HETATM   29  C   UNL     1     -40.138  52.585 -51.586  1.00  0.00     0.026 A 
HETATM   30  C   UNL     1     -40.584  53.660 -52.358  1.00  0.00     0.011 A 
ENDBRANCH   6  23
TORSDOF 6
ENDMDL
MODEL 3
REMARK VINA RESULT:      -8.1      1.062      1.591
REMARK  6 active torsions:
REMARK  status: ('A' for Active; 'I' for Inactive)
REMARK    1  A    between atoms: O_2  and  C_3 
REMARK    2  A    between atoms: C_3  and  C_4 
REMARK    3  A    between atoms: C_4  and  N_5 
REMARK       I    between atoms: N_5  and  C_6 
REMARK    4  A    between atoms: C_6  and  C_7 
REMARK    5  A    between atoms: C_12  and  C_13 
REMARK    6  A    between atoms: C_22  and  C_23 
ROOT
HETATM    1  C   UNL     1     -43.988  57.851 -51.801  1.00  0.00     0.148 C 
HETATM    2  N   UNL     1     -44.489  57.242 -52.903  1.00  0.00    -0.165 NA
HETATM    3  N   UNL     1     -43.430  56.577 -53.393  1.00  0.00    -0.240 N 
HETATM    4  C   UNL     1     -42.332  56.603 -52.584  1.00  0.00     0.123 C 
HETATM    5  N   UNL     1     -41.257  55.832 -52.844  1.00  0.00    -0.366 N 
HETATM    6  C   UNL     1     -41.295  54.732 -53.808  1.00  0.00     0.118 C 
HETATM    7  C   UNL     1     -42.722  54.464 -54.340  1.00  0.00     0.066 C 
HETATM    8  C   UNL     1     -43.508  55.759 -54.586  1.00  0.00     0.221 C 
HETATM    9  C   UNL     1     -42.624  57.497 -51.590  1.00  0.00     0.088 C 
HETATM   10  H   UNL     1     -40.431  55.868 -52.247  1.00  0.00     0.161 HD
ENDROOT
BRANCH   1  11
HETATM   11  C   UNL     1     -44.810  58.702 -50.927  1.00  0.00     0.272 C 
HETATM   12  N   UNL     1     -44.125  59.778 -50.405  1.00  0.00    -0.354 N 
HETATM   13  H   UNL     1     -43.210  59.942 -50.820  1.00  0.00     0.162 HD
HETATM   14  O   UNL     1     -46.005  58.499 -50.732  1.00  0.00    -0.266 OA
BRANCH  12  15
HETATM   15  C   UNL     1     -44.828  60.892 -49.807  1.00  0.00     0.149 C 
BRANCH  15  16
HETATM   16  C   UNL     1     -44.346  62.231 -50.358  1.00  0.00     0.186 C 
BRANCH  16  17
HETATM   17  O   UNL     1     -45.297  62.705 -51.318  1.00  0.00    -0.394 OA
HETATM   18  C   UNL     1     -46.626  62.349 -50.960  1.00  0.00     0.201 C 
ENDBRANCH  16  17
ENDBRANCH  15  16
ENDBRANCH  12  15
ENDBRANCH   1  11
BRANCH   8  19
HETATM   19  C   UNL     1     -43.006  56.533 -55.783  1.00  0.00     0.409 C 
HETATM   20  F   UNL     1     -42.231  55.785 -56.596  1.00  0.00    -0.169 F 
HETATM   21  F   UNL     1     -43.991  57.073 -56.530  1.00  0.00    -0.169 F 
HETATM   22  F   UNL     1     -42.234  57.570 -55.360  1.00  0.00    -0.169 F 
ENDBRANCH   8  19
BRANCH   6  23
HETATM   23  C   UNL     1     -40.729  53.484 -53.145  1.00  0.00    -0.034 A 
HETATM   24  C   UNL     1     -40.359  52.371 -53.915  1.00  0.00     0.034 A 
HETATM   25  C   UNL     1     -39.840  51.221 -53.305  1.00  0.00     0.056 A 
HETATM   26 CL   UNL     1     -39.408  49.898 -54.329  1.00  0.00    -0.083 Cl
HETATM   27  C   UNL     1     -39.689  51.171 -51.915  1.00  0.00     0.055 A 
HETATM   28 CL   UNL     1     -39.060  49.786 -51.097  1.00  0.00    -0.083 Cl
HETATM   29  C   UNL     1     -40.052  52.273 -51.140  1.00  0.00     0.026 A 
HETATM   30  C   UNL     1     -40.566  53.420 -51.749  1.00  0.00     0.011 A 
ENDBRANCH   6  23
TORSDOF 6
ENDMDL
MODEL 4
REMARK VINA RESULT:      -7.6      5.015      8.285
REMARK  6 active torsions:
REMARK  status: ('A' for Active; 'I' for Inactive)
REMARK    1  A    between atoms: O_2  and  C_3 
REMARK    2  A    between atoms: C_3  and  C_4 
REMARK    3  A    between atoms: C_4  and  N_5 
REMARK       I    between atoms: N_5  and  C_6 
REMARK    4  A    between atoms: C_6  and  C_7 
REMARK    5  A    between atoms: C_12  and  C_13 
REMARK    6  A    between atoms: C_22  and  C_23 
ROOT
HETATM    1  C   UNL     1     -41.376  54.593 -54.000  1.00  0.00     0.148 C 
HETATM    2  N   UNL     1     -41.978  55.669 -53.439  1.00  0.00    -0.165 NA
HETATM    3  N   UNL     1     -42.220  56.467 -54.492  1.00  0.00    -0.240 N 
HETATM    4  C   UNL     1     -41.948  55.895 -55.700  1.00  0.00     0.123 C 
HETATM    5  N   UNL     1     -42.312  56.493 -56.853  1.00  0.00    -0.366 N 
HETATM    6  C   UNL     1     -43.249  57.616 -56.892  1.00  0.00     0.118 C 
HETATM    7  C   UNL     1     -43.883  57.903 -55.510  1.00  0.00     0.066 C 
HETATM    8  C   UNL     1     -42.877  57.752 -54.361  1.00  0.00     0.221 C 
HETATM    9  C   UNL     1     -41.312  54.717 -55.417  1.00  0.00     0.088 C 
HETATM   10  H   UNL     1     -42.091  56.070 -57.754  1.00  0.00     0.161 HD
ENDROOT
BRANCH   1  11
HETATM   11  C   UNL     1     -40.931  53.437 -53.207  1.00  0.00     0.272 C 
HETATM   12  N   UNL     1     -40.253  52.491 -53.946  1.00  0.00    -0.354 N 
HETATM   13  H   UNL     1     -39.999  52.788 -54.886  1.00  0.00     0.162 HD
HETATM   14  O   UNL     1     -41.100  53.355 -51.994  1.00  0.00    -0.266 OA
BRANCH  12  15
HETATM   15  C   UNL     1     -39.462  51.466 -53.302  1.00  0.00     0.149 C 
BRANCH  15  16
HETATM   16  C   UNL     1     -39.592  50.119 -54.008  1.00  0.00     0.186 C 
BRANCH  16  17
HETATM   17  O   UNL     1     -39.545  49.077 -53.026  1.00  0.00    -0.394 OA
HETATM   18  C   UNL     1     -39.577  49.599 -51.705  1.00  0.00     0.201 C 
ENDBRANCH  16  17
ENDBRANCH  15  16
ENDBRANCH  12  15
ENDBRANCH   1  11
BRANCH   8  19
HETATM   19  C   UNL     1     -41.851  58.861 -54.329  1.00  0.00     0.409 C 
HETATM   20  F   UNL     1     -41.626  59.395 -55.549  1.00  0.00    -0.169 F 
HETATM   21  F   UNL     1     -42.168  59.868 -53.489  1.00  0.00    -0.169 F 
HETATM   22  F   UNL     1     -40.660  58.365 -53.899  1.00  0.00    -0.169 F 
ENDBRANCH   8  19
BRANCH   6  23
HETATM   23  C   UNL     1     -44.327  57.313 -57.923  1.00  0.00    -0.034 A 
HETATM   24  C   UNL     1     -44.121  56.332 -58.905  1.00  0.00     0.034 A 
HETATM   25  C   UNL     1     -45.112  56.055 -59.856  1.00  0.00     0.056 A 
HETATM   26 CL   UNL     1     -44.776  54.829 -61.027  1.00  0.00    -0.083 Cl
HETATM   27  C   UNL     1     -46.321  56.758 -59.836  1.00  0.00     0.055 A 
HETATM   28 CL   UNL     1     -47.583  56.471 -60.979  1.00  0.00    -0.083 Cl
HETATM   29  C   UNL     1     -46.537  57.734 -58.862  1.00  0.00     0.026 A 
HETATM   30  C   UNL     1     -45.550  58.008 -57.913  1.00  0.00     0.011 A 
ENDBRANCH   6  23
TORSDOF 6
ENDMDL
MODEL 5
REMARK VINA RESULT:      -7.6      3.700      5.893
REMARK  6 active torsions:
REMARK  status: ('A' for Active; 'I' for Inactive)
REMARK    1  A    between atoms: O_2  and  C_3 
REMARK    2  A    between atoms: C_3  and  C_4 
REMARK    3  A    between atoms: C_4  and  N_5 
REMARK       I    between atoms: N_5  and  C_6 
REMARK    4  A    between atoms: C_6  and  C_7 
REMARK    5  A    between atoms: C_12  and  C_13 
REMARK    6  A    between atoms: C_22  and  C_23 
ROOT
HETATM    1  C   UNL     1     -44.353  57.948 -55.510  1.00  0.00     0.148 C 
HETATM    2  N   UNL     1     -43.153  58.531 -55.268  1.00  0.00    -0.165 NA
HETATM    3  N   UNL     1     -42.619  57.748 -54.316  1.00  0.00    -0.240 N 
HETATM    4  C   UNL     1     -43.340  56.620 -54.052  1.00  0.00     0.123 C 
HETATM    5  N   UNL     1     -42.845  55.645 -53.262  1.00  0.00    -0.366 N 
HETATM    6  C   UNL     1     -41.434  55.588 -52.878  1.00  0.00     0.118 C 
HETATM    7  C   UNL     1     -40.580  56.649 -53.612  1.00  0.00     0.066 C 
HETATM    8  C   UNL     1     -41.308  57.992 -53.752  1.00  0.00     0.221 C 
HETATM    9  C   UNL     1     -44.516  56.762 -54.737  1.00  0.00     0.088 C 
HETATM   10  H   UNL     1     -43.394  54.812 -53.053  1.00  0.00     0.161 HD
ENDROOT
BRANCH   1  11
HETATM   11  C   UNL     1     -45.298  58.473 -56.507  1.00  0.00     0.272 C 
HETATM   12  N   UNL     1     -45.504  57.622 -57.571  1.00  0.00    -0.354 N 
HETATM   13  H   UNL     1     -45.123  56.686 -57.447  1.00  0.00     0.162 HD
HETATM   14  O   UNL     1     -45.885  59.542 -56.370  1.00  0.00    -0.266 OA
BRANCH  12  15
HETATM   15  C   UNL     1     -46.626  57.804 -58.466  1.00  0.00     0.149 C 
BRANCH  15  16
HETATM   16  C   UNL     1     -46.650  56.748 -59.568  1.00  0.00     0.186 C 
BRANCH  16  17
HETATM   17  O   UNL     1     -45.307  56.492 -59.993  1.00  0.00    -0.394 OA
HETATM   18  C   UNL     1     -45.202  55.254 -60.683  1.00  0.00     0.201 C 
ENDBRANCH  16  17
ENDBRANCH  15  16
ENDBRANCH  12  15
ENDBRANCH   1  11
BRANCH   8  19
HETATM   19  C   UNL     1     -41.435  58.732 -52.439  1.00  0.00     0.409 C 
HETATM   20  F   UNL     1     -41.413  60.072 -52.595  1.00  0.00    -0.169 F 
HETATM   21  F   UNL     1     -42.546  58.414 -51.745  1.00  0.00    -0.169 F 
HETATM   22  F   UNL     1     -40.381  58.419 -51.639  1.00  0.00    -0.169 F 
ENDBRANCH   8  19
BRANCH   6  23
HETATM   23  C   UNL     1     -40.909  54.188 -53.163  1.00  0.00    -0.034 A 
HETATM   24  C   UNL     1     -40.598  53.313 -52.111  1.00  0.00     0.034 A 
HETATM   25  C   UNL     1     -40.112  52.026 -52.372  1.00  0.00     0.056 A 
HETATM   26 CL   UNL     1     -39.758  51.014 -51.018  1.00  0.00    -0.083 Cl
HETATM   27  C   UNL     1     -39.929  51.599 -53.692  1.00  0.00     0.055 A 
HETATM   28 CL   UNL     1     -39.331  50.028 -54.087  1.00  0.00    -0.083 Cl
HETATM   29  C   UNL     1     -40.237  52.460 -54.746  1.00  0.00     0.026 A 
HETATM   30  C   UNL     1     -40.724  53.742 -54.485  1.00  0.00     0.011 A 
ENDBRANCH   6  23
TORSDOF 6
ENDMDL
MODEL 6
REMARK VINA RESULT:      -7.4      1.210      2.068
REMARK  6 active torsions:
REMARK  status: ('A' for Active; 'I' for Inactive)
REMARK    1  A    between atoms: O_2  and  C_3 
REMARK    2  A    between atoms: C_3  and  C_4 
REMARK    3  A    between atoms: C_4  and  N_5 
REMARK       I    between atoms: N_5  and  C_6 
REMARK    4  A    between atoms: C_6  and  C_7 
REMARK    5  A    between atoms: C_12  and  C_13 
REMARK    6  A    between atoms: C_22  and  C_23 
ROOT
HETATM    1  C   UNL     1     -44.342  58.060 -51.644  1.00  0.00     0.148 C 
HETATM    2  N   UNL     1     -44.856  57.432 -52.729  1.00  0.00    -0.165 NA
HETATM    3  N   UNL     1     -43.791  56.800 -53.249  1.00  0.00    -0.240 N 
HETATM    4  C   UNL     1     -42.670  56.864 -52.473  1.00  0.00     0.123 C 
HETATM    5  N   UNL     1     -41.579  56.127 -52.763  1.00  0.00    -0.366 N 
HETATM    6  C   UNL     1     -41.609  55.024 -53.724  1.00  0.00     0.118 C 
HETATM    7  C   UNL     1     -43.043  54.709 -54.213  1.00  0.00     0.066 C 
HETATM    8  C   UNL     1     -43.877  55.976 -54.438  1.00  0.00     0.221 C 
HETATM    9  C   UNL     1     -42.962  57.751 -51.473  1.00  0.00     0.088 C 
HETATM   10  H   UNL     1     -40.737  56.192 -52.191  1.00  0.00     0.161 HD
ENDROOT
BRANCH   1  11
HETATM   11  C   UNL     1     -45.166  58.886 -50.748  1.00  0.00     0.272 C 
HETATM   12  N   UNL     1     -44.485  59.956 -50.206  1.00  0.00    -0.354 N 
HETATM   13  H   UNL     1     -43.574  60.135 -50.623  1.00  0.00     0.162 HD
HETATM   14  O   UNL     1     -46.358  58.671 -50.551  1.00  0.00    -0.266 OA
BRANCH  12  15
HETATM   15  C   UNL     1     -45.193  61.052 -49.581  1.00  0.00     0.149 C 
BRANCH  15  16
HETATM   16  C   UNL     1     -45.475  62.182 -50.567  1.00  0.00     0.186 C 
BRANCH  16  17
HETATM   17  O   UNL     1     -45.274  63.435 -49.903  1.00  0.00    -0.394 OA
HETATM   18  C   UNL     1     -44.037  63.466 -49.205  1.00  0.00     0.201 C 
ENDBRANCH  16  17
ENDBRANCH  15  16
ENDBRANCH  12  15
ENDBRANCH   1  11
BRANCH   8  19
HETATM   19  C   UNL     1     -43.436  56.763 -55.650  1.00  0.00     0.409 C 
HETATM   20  F   UNL     1     -42.235  57.355 -55.475  1.00  0.00    -0.169 F 
HETATM   21  F   UNL     1     -43.374  56.029 -56.780  1.00  0.00    -0.169 F 
HETATM   22  F   UNL     1     -44.327  57.762 -55.892  1.00  0.00    -0.169 F 
ENDBRANCH   8  19
BRANCH   6  23
HETATM   23  C   UNL     1     -40.984  53.797 -53.075  1.00  0.00    -0.034 A 
HETATM   24  C   UNL     1     -40.975  53.653 -51.679  1.00  0.00     0.034 A 
HETATM   25  C   UNL     1     -40.397  52.526 -51.080  1.00  0.00     0.056 A 
HETATM   26 CL   UNL     1     -40.434  52.429 -49.356  1.00  0.00    -0.083 Cl
HETATM   27  C   UNL     1     -39.819  51.530 -51.873  1.00  0.00     0.055 A 
HETATM   28 CL   UNL     1     -39.086  50.117 -51.203  1.00  0.00    -0.083 Cl
HETATM   29  C   UNL     1     -39.823  51.662 -53.263  1.00  0.00     0.026 A 
HETATM   30  C   UNL     1     -40.402  52.784 -53.858  1.00  0.00     0.011 A 
ENDBRANCH   6  23
TORSDOF 6
ENDMDL
MODEL 7
REMARK VINA RESULT:      -7.1      4.897      7.651
REMARK  6 active torsions:
REMARK  status: ('A' for Active; 'I' for Inactive)
REMARK    1  A    between atoms: O_2  and  C_3 
REMARK    2  A    between atoms: C_3  and  C_4 
REMARK    3  A    between atoms: C_4  and  N_5 
REMARK       I    between atoms: N_5  and  C_6 
REMARK    4  A    between atoms: C_6  and  C_7 
REMARK    5  A    between atoms: C_12  and  C_13 
REMARK    6  A    between atoms: C_22  and  C_23 
ROOT
HETATM    1  C   UNL     1     -41.083  53.920 -54.163  1.00  0.00     0.148 C 
HETATM    2  N   UNL     1     -41.804  54.774 -53.395  1.00  0.00    -0.165 NA
HETATM    3  N   UNL     1     -42.080  55.783 -54.238  1.00  0.00    -0.240 N 
HETATM    4  C   UNL     1     -41.710  55.549 -55.530  1.00  0.00     0.123 C 
HETATM    5  N   UNL     1     -42.085  56.381 -56.523  1.00  0.00    -0.366 N 
HETATM    6  C   UNL     1     -43.120  57.399 -56.346  1.00  0.00     0.118 C 
HETATM    7  C   UNL     1     -43.830  57.284 -54.976  1.00  0.00     0.066 C 
HETATM    8  C   UNL     1     -42.858  56.939 -53.840  1.00  0.00     0.221 C 
HETATM    9  C   UNL     1     -40.978  54.394 -55.503  1.00  0.00     0.088 C 
HETATM   10  H   UNL     1     -41.791  56.212 -57.485  1.00  0.00     0.161 HD
ENDROOT
BRANCH   1  11
HETATM   11  C   UNL     1     -40.562  52.645 -53.647  1.00  0.00     0.272 C 
HETATM   12  N   UNL     1     -39.980  52.753 -52.402  1.00  0.00    -0.354 N 
HETATM   13  H   UNL     1     -40.139  53.642 -51.934  1.00  0.00     0.162 HD
HETATM   14  O   UNL     1     -40.687  51.583 -54.248  1.00  0.00    -0.266 OA
BRANCH  12  15
HETATM   15  C   UNL     1     -39.715  51.580 -51.598  1.00  0.00     0.149 C 
BRANCH  15  16
HETATM   16  C   UNL     1     -40.274  51.721 -50.185  1.00  0.00     0.186 C 
BRANCH  16  17
HETATM   17  O   UNL     1     -40.824  53.035 -50.035  1.00  0.00    -0.394 OA
HETATM   18  C   UNL     1     -40.445  53.623 -48.798  1.00  0.00     0.201 C 
ENDBRANCH  16  17
ENDBRANCH  15  16
ENDBRANCH  12  15
ENDBRANCH   1  11
BRANCH   8  19
HETATM   19  C   UNL     1     -41.942  58.086 -53.480  1.00  0.00     0.409 C 
HETATM   20  F   UNL     1     -40.705  57.944 -54.000  1.00  0.00    -0.169 F 
HETATM   21  F   UNL     1     -42.413  59.293 -53.856  1.00  0.00    -0.169 F 
HETATM   22  F   UNL     1     -41.790  58.138 -52.130  1.00  0.00    -0.169 F 
ENDBRANCH   8  19
BRANCH   6  23
HETATM   23  C   UNL     1     -44.127  57.271 -57.481  1.00  0.00    -0.034 A 
HETATM   24  C   UNL     1     -43.936  56.327 -58.502  1.00  0.00     0.034 A 
HETATM   25  C   UNL     1     -44.860  56.211 -59.549  1.00  0.00     0.056 A 
HETATM   26 CL   UNL     1     -44.549  55.020 -60.762  1.00  0.00    -0.083 Cl
HETATM   27  C   UNL     1     -45.985  57.041 -59.588  1.00  0.00     0.055 A 
HETATM   28 CL   UNL     1     -47.162  56.956 -60.849  1.00  0.00    -0.083 Cl
HETATM   29  C   UNL     1     -46.185  57.983 -58.576  1.00  0.00     0.026 A 
HETATM   30  C   UNL     1     -45.265  58.096 -57.532  1.00  0.00     0.011 A 
ENDBRANCH   6  23
TORSDOF 6
ENDMDL
MODEL 8
REMARK VINA RESULT:      -7.1      5.884      9.070
REMARK  6 active torsions:
REMARK  status: ('A' for Active; 'I' for Inactive)
REMARK    1  A    between atoms: O_2  and  C_3 
REMARK    2  A    between atoms: C_3  and  C_4 
REMARK    3  A    between atoms: C_4  and  N_5 
REMARK       I    between atoms: N_5  and  C_6 
REMARK    4  A    between atoms: C_6  and  C_7 
REMARK    5  A    between atoms: C_12  and  C_13 
REMARK    6  A    between atoms: C_22  and  C_23 
ROOT
HETATM    1  C   UNL     1     -43.161  56.059 -55.785  1.00  0.00     0.148 C 
HETATM    2  N   UNL     1     -42.834  55.341 -56.887  1.00  0.00    -0.165 NA
HETATM    3  N   UNL     1     -43.201  56.147 -57.897  1.00  0.00    -0.240 N 
HETATM    4  C   UNL     1     -43.596  57.392 -57.502  1.00  0.00     0.123 C 
HETATM    5  N   UNL     1     -43.813  58.372 -58.402  1.00  0.00    -0.366 N 
HETATM    6  C   UNL     1     -43.378  58.269 -59.795  1.00  0.00     0.118 C 
HETATM    7  C   UNL     1     -42.510  57.013 -60.049  1.00  0.00     0.066 C 
HETATM    8  C   UNL     1     -43.021  55.784 -59.288  1.00  0.00     0.221 C 
HETATM    9  C   UNL     1     -43.674  57.341 -56.137  1.00  0.00     0.088 C 
HETATM   10  H   UNL     1     -44.126  59.296 -58.105  1.00  0.00     0.161 HD
ENDROOT
BRANCH   1  11
HETATM   11  C   UNL     1     -42.928  55.560 -54.421  1.00  0.00     0.272 C 
HETATM   12  N   UNL     1     -42.530  54.240 -54.379  1.00  0.00    -0.354 N 
HETATM   13  H   UNL     1     -42.283  53.842 -55.283  1.00  0.00     0.162 HD
HETATM   14  O   UNL     1     -43.025  56.271 -53.426  1.00  0.00    -0.266 OA
BRANCH  12  15
HETATM   15  C   UNL     1     -41.941  53.676 -53.185  1.00  0.00     0.149 C 
BRANCH  15  16
HETATM   16  C   UNL     1     -40.548  53.112 -53.450  1.00  0.00     0.186 C 
BRANCH  16  17
HETATM   17  O   UNL     1     -40.653  52.054 -54.410  1.00  0.00    -0.394 OA
HETATM   18  C   UNL     1     -39.870  50.928 -54.037  1.00  0.00     0.201 C 
ENDBRANCH  16  17
ENDBRANCH  15  16
ENDBRANCH  12  15
ENDBRANCH   1  11
BRANCH   8  19
HETATM   19  C   UNL     1     -44.311  55.236 -59.854  1.00  0.00     0.409 C 
HETATM   20  F   UNL     1     -45.403  55.824 -59.320  1.00  0.00    -0.169 F 
HETATM   21  F   UNL     1     -44.401  55.339 -61.196  1.00  0.00    -0.169 F 
HETATM   22  F   UNL     1     -44.407  53.911 -59.565  1.00  0.00    -0.169 F 
ENDBRANCH   8  19
BRANCH   6  23
HETATM   23  C   UNL     1     -42.610  59.532 -60.159  1.00  0.00    -0.034 A 
HETATM   24  C   UNL     1     -41.979  60.296 -59.165  1.00  0.00     0.034 A 
HETATM   25  C   UNL     1     -41.275  61.460 -59.499  1.00  0.00     0.056 A 
HETATM   26 CL   UNL     1     -40.526  62.338 -58.213  1.00  0.00    -0.083 Cl
HETATM   27  C   UNL     1     -41.195  61.875 -60.832  1.00  0.00     0.055 A 
HETATM   28 CL   UNL     1     -40.348  63.300 -61.314  1.00  0.00    -0.083 Cl
HETATM   29  C   UNL     1     -41.817  61.121 -61.829  1.00  0.00     0.026 A 
HETATM   30  C   UNL     1     -42.517  59.960 -61.496  1.00  0.00     0.011 A 
ENDBRANCH   6  23
TORSDOF 6
ENDMDL
MODEL 9
REMARK VINA RESULT:      -7.1     17.349     19.140
REMARK  6 active torsions:
REMARK  status: ('A' for Active; 'I' for Inactive)
REMARK    1  A    between atoms: O_2  and  C_3 
REMARK    2  A    between atoms: C_3  and  C_4 
REMARK    3  A    between atoms: C_4  and  N_5 
REMARK       I    between atoms: N_5  and  C_6 
REMARK    4  A    between atoms: C_6  and  C_7 
REMARK    5  A    between atoms: C_12  and  C_13 
REMARK    6  A    between atoms: C_22  and  C_23 
ROOT
HETATM    1  C   UNL     1     -34.045  40.604 -55.697  1.00  0.00     0.148 C 
HETATM    2  N   UNL     1     -35.207  40.129 -55.188  1.00  0.00    -0.165 NA
HETATM    3  N   UNL     1     -36.092  40.371 -56.169  1.00  0.00    -0.240 N 
HETATM    4  C   UNL     1     -35.532  40.828 -57.326  1.00  0.00     0.123 C 
HETATM    5  N   UNL     1     -36.259  40.939 -58.456  1.00  0.00    -0.366 N 
HETATM    6  C   UNL     1     -37.579  40.326 -58.602  1.00  0.00     0.118 C 
HETATM    7  C   UNL     1     -37.944  39.419 -57.404  1.00  0.00     0.066 C 
HETATM    8  C   UNL     1     -37.491  40.010 -56.062  1.00  0.00     0.221 C 
HETATM    9  C   UNL     1     -34.220  41.081 -57.028  1.00  0.00     0.088 C 
HETATM   10  H   UNL     1     -35.841  41.297 -59.314  1.00  0.00     0.161 HD
ENDROOT
BRANCH   1  11
HETATM   11  C   UNL     1     -32.776  40.543 -54.956  1.00  0.00     0.272 C 
HETATM   12  N   UNL     1     -32.937  40.585 -53.587  1.00  0.00    -0.354 N 
HETATM   13  H   UNL     1     -33.897  40.477 -53.268  1.00  0.00     0.162 HD
HETATM   14  O   UNL     1     -31.688  40.410 -55.506  1.00  0.00    -0.266 OA
BRANCH  12  15
HETATM   15  C   UNL     1     -31.861  40.208 -52.697  1.00  0.00     0.149 C 
BRANCH  15  16
HETATM   16  C   UNL     1     -32.235  40.416 -51.232  1.00  0.00     0.186 C 
BRANCH  16  17
HETATM   17  O   UNL     1     -31.492  39.491 -50.429  1.00  0.00    -0.394 OA
HETATM   18  C   UNL     1     -31.822  39.610 -49.052  1.00  0.00     0.201 C 
ENDBRANCH  16  17
ENDBRANCH  15  16
ENDBRANCH  12  15
ENDBRANCH   1  11
BRANCH   8  19
HETATM   19  C   UNL     1     -38.309  41.210 -55.643  1.00  0.00     0.409 C 
HETATM   20  F   UNL     1     -37.804  42.371 -56.113  1.00  0.00    -0.169 F 
HETATM   21  F   UNL     1     -39.603  41.141 -56.016  1.00  0.00    -0.169 F 
HETATM   22  F   UNL     1     -38.307  41.309 -54.287  1.00  0.00    -0.169 F 
ENDBRANCH   8  19
BRANCH   6  23
HETATM   23  C   UNL     1     -37.605  39.532 -59.901  1.00  0.00    -0.034 A 
HETATM   24  C   UNL     1     -38.807  38.992 -60.384  1.00  0.00     0.034 A 
HETATM   25  C   UNL     1     -38.831  38.258 -61.578  1.00  0.00     0.056 A 
HETATM   26 CL   UNL     1     -40.354  37.632 -62.101  1.00  0.00    -0.083 Cl
HETATM   27  C   UNL     1     -37.652  38.055 -62.301  1.00  0.00     0.055 A 
HETATM   28 CL   UNL     1     -37.607  37.158 -63.777  1.00  0.00    -0.083 Cl
HETATM   29  C   UNL     1     -36.451  38.589 -61.830  1.00  0.00     0.026 A 
HETATM   30  C   UNL     1     -36.428  39.322 -60.642  1.00  0.00     0.011 A 
ENDBRANCH   6  23
TORSDOF 6
ENDMDL
MODEL 10
REMARK VINA RESULT:      -7.0      4.134      5.398
REMARK  6 active torsions:
REMARK  status: ('A' for Active; 'I' for Inactive)
REMARK    1  A    between atoms: O_2  and  C_3 
REMARK    2  A    between atoms: C_3  and  C_4 
REMARK    3  A    between atoms: C_4  and  N_5 
REMARK       I    between atoms: N_5  and  C_6 
REMARK    4  A    between atoms: C_6  and  C_7 
REMARK    5  A    between atoms: C_12  and  C_13 
REMARK    6  A    between atoms: C_22  and  C_23 
ROOT
HETATM    1  C   UNL     1     -44.438  59.396 -51.000  1.00  0.00     0.148 C 
HETATM    2  N   UNL     1     -43.105  59.163 -51.076  1.00  0.00    -0.165 NA
HETATM    3  N   UNL     1     -43.027  58.105 -51.899  1.00  0.00    -0.240 N 
HETATM    4  C   UNL     1     -44.215  57.752 -52.470  1.00  0.00     0.123 C 
HETATM    5  N   UNL     1     -44.269  56.835 -53.458  1.00  0.00    -0.366 N 
HETATM    6  C   UNL     1     -43.075  56.379 -54.170  1.00  0.00     0.118 C 
HETATM    7  C   UNL     1     -41.813  57.184 -53.781  1.00  0.00     0.066 C 
HETATM    8  C   UNL     1     -41.763  57.508 -52.282  1.00  0.00     0.221 C 
HETATM    9  C   UNL     1     -45.167  58.505 -51.839  1.00  0.00     0.088 C 
HETATM   10  H   UNL     1     -45.161  56.561 -53.869  1.00  0.00     0.161 HD
ENDROOT
BRANCH   1  11
HETATM   11  C   UNL     1     -45.002  60.490 -50.195  1.00  0.00     0.272 C 
HETATM   12  N   UNL     1     -45.354  60.108 -48.918  1.00  0.00    -0.354 N 
HETATM   13  H   UNL     1     -45.023  59.185 -48.644  1.00  0.00     0.162 HD
HETATM   14  O   UNL     1     -45.096  61.642 -50.608  1.00  0.00    -0.266 OA
BRANCH  12  15
HETATM   15  C   UNL     1     -45.608  61.091 -47.888  1.00  0.00     0.149 C 
BRANCH  15  16
HETATM   16  C   UNL     1     -45.766  60.447 -46.513  1.00  0.00     0.186 C 
BRANCH  16  17
HETATM   17  O   UNL     1     -47.077  59.876 -46.419  1.00  0.00    -0.394 OA
HETATM   18  C   UNL     1     -47.081  58.704 -45.615  1.00  0.00     0.201 C 
ENDBRANCH  16  17
ENDBRANCH  15  16
ENDBRANCH  12  15
ENDBRANCH   1  11
BRANCH   8  19
HETATM   19  C   UNL     1     -41.481  56.294 -51.427  1.00  0.00     0.409 C 
HETATM   20  F   UNL     1     -42.588  55.819 -50.818  1.00  0.00    -0.169 F 
HETATM   21  F   UNL     1     -40.912  55.275 -52.105  1.00  0.00    -0.169 F 
HETATM   22  F   UNL     1     -40.610  56.628 -50.438  1.00  0.00    -0.169 F 
ENDBRANCH   8  19
BRANCH   6  23
HETATM   23  C   UNL     1     -43.334  56.481 -55.667  1.00  0.00    -0.034 A 
HETATM   24  C   UNL     1     -44.072  57.552 -56.193  1.00  0.00     0.034 A 
HETATM   25  C   UNL     1     -44.314  57.645 -57.570  1.00  0.00     0.056 A 
HETATM   26 CL   UNL     1     -45.229  58.998 -58.132  1.00  0.00    -0.083 Cl
HETATM   27  C   UNL     1     -43.820  56.665 -58.437  1.00  0.00     0.055 A 
HETATM   28 CL   UNL     1     -44.082  56.714 -60.143  1.00  0.00    -0.083 Cl
HETATM   29  C   UNL     1     -43.082  55.596 -57.924  1.00  0.00     0.026 A 
HETATM   30  C   UNL     1     -42.840  55.506 -56.552  1.00  0.00     0.011 A 
ENDBRANCH   6  23
TORSDOF 6
ENDMDL
