MODEL 1
REMARK VINA RESULT:      -8.0      0.000      0.000
REMARK  10 active torsions:
REMARK  status: ('A' for Active; 'I' for Inactive)
REMARK    1  A    between atoms: O_2  and  C_3 
REMARK    2  A    between atoms: C_6  and  N_7 
REMARK       I    between atoms: N_7  and  C_8 
REMARK    3  A    between atoms: C_8  and  C_9 
REMARK    4  A    between atoms: C_9  and  C_10 
REMARK    5  A    between atoms: N_11  and  C_12 
REMARK    6  A    between atoms: C_12  and  C_13 
REMARK    7  A    between atoms: C_13  and  C_14 
REMARK    8  A    between atoms: C_16  and  O_17 
REMARK    9  A    between atoms: C_19  and  O_20 
REMARK   10  A    between atoms: N_26  and  C_27 
ROOT
HETATM    1  C   UNL     1     -43.086  55.860 -53.017  1.00  0.00     0.190 C 
HETATM    2  N   UNL     1     -42.172  56.114 -54.114  1.00  0.00    -0.319 N 
HETATM    3  C   UNL     1     -41.194  55.125 -54.198  1.00  0.00     0.332 C 
HETATM    4  O   UNL     1     -40.183  55.265 -54.872  1.00  0.00    -0.246 OA
HETATM    5  N   UNL     1     -41.557  54.071 -53.381  1.00  0.00    -0.232 N 
HETATM    6  C   UNL     1     -42.669  54.435 -52.646  1.00  0.00     0.256 C 
HETATM    7  O   UNL     1     -43.248  53.800 -51.771  1.00  0.00    -0.270 OA
ENDROOT
BRANCH   1   8
HETATM    8  C   UNL     1     -42.855  56.782 -51.819  1.00  0.00     0.138 C 
BRANCH   8   9
HETATM    9  C   UNL     1     -44.158  57.251 -51.221  1.00  0.00     0.224 C 
HETATM   10  N   UNL     1     -44.622  58.513 -51.458  1.00  0.00    -0.327 N 
HETATM   11  H   UNL     1     -45.416  58.713 -50.859  1.00  0.00     0.169 HD
HETATM   12  O   UNL     1     -44.840  56.510 -50.509  1.00  0.00    -0.273 OA
BRANCH  10  13
HETATM   13  C   UNL     1     -44.268  59.529 -52.364  1.00  0.00     0.034 A 
HETATM   14  C   UNL     1     -43.019  60.141 -52.447  1.00  0.00     0.032 A 
HETATM   15  C   UNL     1     -42.759  61.097 -53.436  1.00  0.00     0.039 A 
HETATM   16  C   UNL     1     -43.733  61.451 -54.369  1.00  0.00     0.068 A 
HETATM   17  C   UNL     1     -44.987  60.855 -54.289  1.00  0.00     0.039 A 
HETATM   18  C   UNL     1     -45.246  59.897 -53.300  1.00  0.00     0.032 A 
BRANCH  16  19
HETATM   19  O   UNL     1     -43.336  62.376 -55.292  1.00  0.00    -0.356 OA
HETATM   20  C   UNL     1     -44.101  62.450 -56.489  1.00  0.00     0.210 C 
ENDBRANCH  16  19
ENDBRANCH  10  13
ENDBRANCH   8   9
ENDBRANCH   1   8
BRANCH   2  21
HETATM   21  C   UNL     1     -42.004  57.438 -54.700  1.00  0.00     0.133 C 
BRANCH  21  22
HETATM   22  C   UNL     1     -43.192  57.908 -55.548  1.00  0.00     0.058 C 
BRANCH  22  23
HETATM   23  C   UNL     1     -42.749  58.184 -56.966  1.00  0.00    -0.054 A 
HETATM   24  C   UNL     1     -42.986  57.256 -57.990  1.00  0.00     0.046 A 
HETATM   25  C   UNL     1     -42.632  57.549 -59.315  1.00  0.00     0.102 A 
HETATM   26  C   UNL     1     -42.040  58.791 -59.621  1.00  0.00     0.101 A 
HETATM   27  C   UNL     1     -41.799  59.711 -58.595  1.00  0.00     0.040 A 
HETATM   28  C   UNL     1     -42.153  59.409 -57.279  1.00  0.00     0.010 A 
BRANCH  25  29
HETATM   29  O   UNL     1     -42.839  56.704 -60.377  1.00  0.00    -0.353 OA
HETATM   30  C   UNL     1     -44.039  55.946 -60.395  1.00  0.00     0.210 C 
ENDBRANCH  25  29
BRANCH  26  31
HETATM   31  O   UNL     1     -41.735  59.007 -60.942  1.00  0.00    -0.353 OA
HETATM   32  C   UNL     1     -42.011  60.293 -61.479  1.00  0.00     0.210 C 
ENDBRANCH  26  31
ENDBRANCH  22  23
ENDBRANCH  21  22
ENDBRANCH   2  21
BRANCH   5  33
HETATM   33  C   UNL     1     -40.847  52.831 -53.265  1.00  0.00     0.047 A 
HETATM   34  C   UNL     1     -40.861  51.877 -54.298  1.00  0.00     0.030 A 
HETATM   35  C   UNL     1     -40.171  50.660 -54.190  1.00  0.00     0.002 A 
HETATM   36  C   UNL     1     -39.451  50.363 -53.042  1.00  0.00     0.000 A 
HETATM   37  C   UNL     1     -39.425  51.282 -52.001  1.00  0.00     0.002 A 
HETATM   38  C   UNL     1     -40.115  52.497 -52.113  1.00  0.00     0.030 A 
ENDBRANCH   5  33
TORSDOF 10
ENDMDL
MODEL 2
REMARK VINA RESULT:      -7.9      1.423      1.996
REMARK  10 active torsions:
REMARK  status: ('A' for Active; 'I' for Inactive)
REMARK    1  A    between atoms: O_2  and  C_3 
REMARK    2  A    between atoms: C_6  and  N_7 
REMARK       I    between atoms: N_7  and  C_8 
REMARK    3  A    between atoms: C_8  and  C_9 
REMARK    4  A    between atoms: C_9  and  C_10 
REMARK    5  A    between atoms: N_11  and  C_12 
REMARK    6  A    between atoms: C_12  and  C_13 
REMARK    7  A    between atoms: C_13  and  C_14 
REMARK    8  A    between atoms: C_16  and  O_17 
REMARK    9  A    between atoms: C_19  and  O_20 
REMARK   10  A    between atoms: N_26  and  C_27 
ROOT
HETATM    1  C   UNL     1     -43.138  55.798 -53.092  1.00  0.00     0.190 C 
HETATM    2  N   UNL     1     -42.300  55.983 -54.262  1.00  0.00    -0.319 N 
HETATM    3  C   UNL     1     -41.315  55.001 -54.339  1.00  0.00     0.332 C 
HETATM    4  O   UNL     1     -40.351  55.104 -55.086  1.00  0.00    -0.246 OA
HETATM    5  N   UNL     1     -41.607  54.006 -53.427  1.00  0.00    -0.232 N 
HETATM    6  C   UNL     1     -42.675  54.409 -52.648  1.00  0.00     0.256 C 
HETATM    7  O   UNL     1     -43.186  53.832 -51.694  1.00  0.00    -0.270 OA
ENDROOT
BRANCH   1   8
HETATM    8  C   UNL     1     -42.845  56.807 -51.981  1.00  0.00     0.138 C 
BRANCH   8   9
HETATM    9  C   UNL     1     -44.112  57.286 -51.318  1.00  0.00     0.224 C 
HETATM   10  N   UNL     1     -44.567  58.558 -51.514  1.00  0.00    -0.327 N 
HETATM   11  H   UNL     1     -45.331  58.761 -50.878  1.00  0.00     0.169 HD
HETATM   12  O   UNL     1     -44.774  56.544 -50.588  1.00  0.00    -0.273 OA
BRANCH  10  13
HETATM   13  C   UNL     1     -44.238  59.583 -52.420  1.00  0.00     0.034 A 
HETATM   14  C   UNL     1     -42.975  60.151 -52.576  1.00  0.00     0.032 A 
HETATM   15  C   UNL     1     -42.747  61.122 -53.560  1.00  0.00     0.039 A 
HETATM   16  C   UNL     1     -43.769  61.534 -54.413  1.00  0.00     0.068 A 
HETATM   17  C   UNL     1     -45.037  60.984 -54.258  1.00  0.00     0.039 A 
HETATM   18  C   UNL     1     -45.263  60.010 -53.276  1.00  0.00     0.032 A 
BRANCH  16  19
HETATM   19  O   UNL     1     -43.402  62.468 -55.340  1.00  0.00    -0.356 OA
HETATM   20  C   UNL     1     -44.276  63.578 -55.507  1.00  0.00     0.210 C 
ENDBRANCH  16  19
ENDBRANCH  10  13
ENDBRANCH   8   9
ENDBRANCH   1   8
BRANCH   2  21
HETATM   21  C   UNL     1     -42.192  57.263 -54.951  1.00  0.00     0.133 C 
BRANCH  21  22
HETATM   22  C   UNL     1     -43.517  57.789 -55.515  1.00  0.00     0.058 C 
BRANCH  22  23
HETATM   23  C   UNL     1     -43.719  57.294 -56.928  1.00  0.00    -0.054 A 
HETATM   24  C   UNL     1     -44.596  57.950 -57.804  1.00  0.00     0.046 A 
HETATM   25  C   UNL     1     -44.727  57.524 -59.134  1.00  0.00     0.102 A 
HETATM   26  C   UNL     1     -43.963  56.433 -59.597  1.00  0.00     0.101 A 
HETATM   27  C   UNL     1     -43.095  55.778 -58.718  1.00  0.00     0.040 A 
HETATM   28  C   UNL     1     -42.973  56.208 -57.396  1.00  0.00     0.010 A 
BRANCH  25  29
HETATM   29  O   UNL     1     -45.552  58.116 -60.059  1.00  0.00    -0.353 OA
HETATM   30  C   UNL     1     -46.929  58.234 -59.737  1.00  0.00     0.210 C 
ENDBRANCH  25  29
BRANCH  26  31
HETATM   31  O   UNL     1     -44.139  56.087 -60.914  1.00  0.00    -0.353 OA
HETATM   32  C   UNL     1     -44.972  54.972 -61.195  1.00  0.00     0.210 C 
ENDBRANCH  26  31
ENDBRANCH  22  23
ENDBRANCH  21  22
ENDBRANCH   2  21
BRANCH   5  33
HETATM   33  C   UNL     1     -40.871  52.785 -53.270  1.00  0.00     0.047 A 
HETATM   34  C   UNL     1     -40.116  52.525 -52.113  1.00  0.00     0.030 A 
HETATM   35  C   UNL     1     -39.392  51.334 -51.955  1.00  0.00     0.002 A 
HETATM   36  C   UNL     1     -39.401  50.372 -52.955  1.00  0.00     0.000 A 
HETATM   37  C   UNL     1     -40.131  50.603 -54.113  1.00  0.00     0.002 A 
HETATM   38  C   UNL     1     -40.854  51.794 -54.266  1.00  0.00     0.030 A 
ENDBRANCH   5  33
TORSDOF 10
ENDMDL
MODEL 3
REMARK VINA RESULT:      -7.9      2.090      5.948
REMARK  10 active torsions:
REMARK  status: ('A' for Active; 'I' for Inactive)
REMARK    1  A    between atoms: O_2  and  C_3 
REMARK    2  A    between atoms: C_6  and  N_7 
REMARK       I    between atoms: N_7  and  C_8 
REMARK    3  A    between atoms: C_8  and  C_9 
REMARK    4  A    between atoms: C_9  and  C_10 
REMARK    5  A    between atoms: N_11  and  C_12 
REMARK    6  A    between atoms: C_12  and  C_13 
REMARK    7  A    between atoms: C_13  and  C_14 
REMARK    8  A    between atoms: C_16  and  O_17 
REMARK    9  A    between atoms: C_19  and  O_20 
REMARK   10  A    between atoms: N_26  and  C_27 
ROOT
HETATM    1  C   UNL     1     -41.539  55.993 -54.005  1.00  0.00     0.190 C 
HETATM    2  N   UNL     1     -42.321  55.573 -52.857  1.00  0.00    -0.319 N 
HETATM    3  C   UNL     1     -42.150  54.215 -52.597  1.00  0.00     0.332 C 
HETATM    4  O   UNL     1     -42.897  53.596 -51.851  1.00  0.00    -0.246 OA
HETATM    5  N   UNL     1     -41.087  53.750 -53.346  1.00  0.00    -0.232 N 
HETATM    6  C   UNL     1     -40.673  54.747 -54.207  1.00  0.00     0.256 C 
HETATM    7  O   UNL     1     -39.802  54.701 -55.071  1.00  0.00    -0.270 OA
ENDROOT
BRANCH   1   8
HETATM    8  C   UNL     1     -42.388  56.227 -55.255  1.00  0.00     0.138 C 
BRANCH   8   9
HETATM    9  C   UNL     1     -42.262  57.645 -55.754  1.00  0.00     0.224 C 
HETATM   10  N   UNL     1     -42.745  58.000 -56.980  1.00  0.00    -0.327 N 
HETATM   11  H   UNL     1     -42.439  58.937 -57.221  1.00  0.00     0.169 HD
HETATM   12  O   UNL     1     -41.726  58.520 -55.070  1.00  0.00    -0.273 OA
BRANCH  10  13
HETATM   13  C   UNL     1     -43.592  57.375 -57.914  1.00  0.00     0.034 A 
HETATM   14  C   UNL     1     -44.898  57.761 -58.209  1.00  0.00     0.032 A 
HETATM   15  C   UNL     1     -45.626  57.104 -59.209  1.00  0.00     0.039 A 
HETATM   16  C   UNL     1     -45.062  56.060 -59.941  1.00  0.00     0.068 A 
HETATM   17  C   UNL     1     -43.764  55.658 -59.647  1.00  0.00     0.039 A 
HETATM   18  C   UNL     1     -43.035  56.318 -58.648  1.00  0.00     0.032 A 
BRANCH  16  19
HETATM   19  O   UNL     1     -45.875  55.527 -60.901  1.00  0.00    -0.356 OA
HETATM   20  C   UNL     1     -47.136  56.158 -61.089  1.00  0.00     0.210 C 
ENDBRANCH  16  19
ENDBRANCH  10  13
ENDBRANCH   8   9
ENDBRANCH   1   8
BRANCH   2  21
HETATM   21  C   UNL     1     -43.474  56.327 -52.380  1.00  0.00     0.133 C 
BRANCH  21  22
HETATM   22  C   UNL     1     -43.117  57.615 -51.627  1.00  0.00     0.058 C 
BRANCH  22  23
HETATM   23  C   UNL     1     -44.201  58.650 -51.816  1.00  0.00    -0.054 A 
HETATM   24  C   UNL     1     -44.298  59.385 -53.006  1.00  0.00     0.046 A 
HETATM   25  C   UNL     1     -45.346  60.296 -53.200  1.00  0.00     0.102 A 
HETATM   26  C   UNL     1     -46.317  60.468 -52.192  1.00  0.00     0.101 A 
HETATM   27  C   UNL     1     -46.212  59.738 -51.003  1.00  0.00     0.040 A 
HETATM   28  C   UNL     1     -45.164  58.835 -50.819  1.00  0.00     0.010 A 
BRANCH  25  29
HETATM   29  O   UNL     1     -45.522  61.045 -54.337  1.00  0.00    -0.353 OA
HETATM   30  C   UNL     1     -45.484  60.370 -55.585  1.00  0.00     0.210 C 
ENDBRANCH  25  29
BRANCH  26  31
HETATM   31  O   UNL     1     -47.318  61.368 -52.463  1.00  0.00    -0.353 OA
HETATM   32  C   UNL     1     -47.352  62.563 -51.697  1.00  0.00     0.210 C 
ENDBRANCH  26  31
ENDBRANCH  22  23
ENDBRANCH  21  22
ENDBRANCH   2  21
BRANCH   5  33
HETATM   33  C   UNL     1     -40.550  52.422 -53.286  1.00  0.00     0.047 A 
HETATM   34  C   UNL     1     -40.702  51.517 -54.352  1.00  0.00     0.030 A 
HETATM   35  C   UNL     1     -40.182  50.216 -54.297  1.00  0.00     0.002 A 
HETATM   36  C   UNL     1     -39.499  49.782 -53.170  1.00  0.00     0.000 A 
HETATM   37  C   UNL     1     -39.339  50.649 -52.098  1.00  0.00     0.002 A 
HETATM   38  C   UNL     1     -39.859  51.949 -52.157  1.00  0.00     0.030 A 
ENDBRANCH   5  33
TORSDOF 10
ENDMDL
MODEL 4
REMARK VINA RESULT:      -7.8      2.195      7.951
REMARK  10 active torsions:
REMARK  status: ('A' for Active; 'I' for Inactive)
REMARK    1  A    between atoms: O_2  and  C_3 
REMARK    2  A    between atoms: C_6  and  N_7 
REMARK       I    between atoms: N_7  and  C_8 
REMARK    3  A    between atoms: C_8  and  C_9 
REMARK    4  A    between atoms: C_9  and  C_10 
REMARK    5  A    between atoms: N_11  and  C_12 
REMARK    6  A    between atoms: C_12  and  C_13 
REMARK    7  A    between atoms: C_13  and  C_14 
REMARK    8  A    between atoms: C_16  and  O_17 
REMARK    9  A    between atoms: C_19  and  O_20 
REMARK   10  A    between atoms: N_26  and  C_27 
ROOT
HETATM    1  C   UNL     1     -43.447  56.308 -53.941  1.00  0.00     0.190 C 
HETATM    2  N   UNL     1     -42.701  56.893 -52.842  1.00  0.00    -0.319 N 
HETATM    3  C   UNL     1     -43.143  58.183 -52.560  1.00  0.00     0.332 C 
HETATM    4  O   UNL     1     -42.501  58.952 -51.858  1.00  0.00    -0.246 OA
HETATM    5  N   UNL     1     -44.329  58.404 -53.234  1.00  0.00    -0.232 N 
HETATM    6  C   UNL     1     -44.573  57.336 -54.076  1.00  0.00     0.256 C 
HETATM    7  O   UNL     1     -45.487  57.190 -54.881  1.00  0.00    -0.270 OA
ENDROOT
BRANCH   1   8
HETATM    8  C   UNL     1     -42.650  56.257 -55.245  1.00  0.00     0.138 C 
BRANCH   8   9
HETATM    9  C   UNL     1     -43.142  55.157 -56.153  1.00  0.00     0.224 C 
HETATM   10  N   UNL     1     -43.470  55.417 -57.453  1.00  0.00    -0.327 N 
HETATM   11  H   UNL     1     -43.927  54.612 -57.868  1.00  0.00     0.169 HD
HETATM   12  O   UNL     1     -43.256  53.996 -55.751  1.00  0.00    -0.273 OA
BRANCH  10  13
HETATM   13  C   UNL     1     -43.263  56.512 -58.311  1.00  0.00     0.034 A 
HETATM   14  C   UNL     1     -43.765  57.798 -58.119  1.00  0.00     0.032 A 
HETATM   15  C   UNL     1     -43.438  58.830 -59.007  1.00  0.00     0.039 A 
HETATM   16  C   UNL     1     -42.594  58.604 -60.093  1.00  0.00     0.068 A 
HETATM   17  C   UNL     1     -42.097  57.322 -60.302  1.00  0.00     0.039 A 
HETATM   18  C   UNL     1     -42.423  56.290 -59.412  1.00  0.00     0.032 A 
BRANCH  16  19
HETATM   19  O   UNL     1     -42.340  59.704 -60.862  1.00  0.00    -0.356 OA
HETATM   20  C   UNL     1     -41.919  60.877 -60.176  1.00  0.00     0.210 C 
ENDBRANCH  16  19
ENDBRANCH  10  13
ENDBRANCH   8   9
ENDBRANCH   1   8
BRANCH   2  21
HETATM   21  C   UNL     1     -41.384  56.408 -52.447  1.00  0.00     0.133 C 
BRANCH  21  22
HETATM   22  C   UNL     1     -41.414  55.211 -51.490  1.00  0.00     0.058 C 
BRANCH  22  23
HETATM   23  C   UNL     1     -40.755  54.011 -52.129  1.00  0.00    -0.054 A 
HETATM   24  C   UNL     1     -40.311  52.932 -51.352  1.00  0.00     0.046 A 
HETATM   25  C   UNL     1     -39.762  51.793 -51.959  1.00  0.00     0.102 A 
HETATM   26  C   UNL     1     -39.664  51.729 -53.364  1.00  0.00     0.101 A 
HETATM   27  C   UNL     1     -40.102  52.811 -54.135  1.00  0.00     0.040 A 
HETATM   28  C   UNL     1     -40.645  53.940 -53.522  1.00  0.00     0.010 A 
BRANCH  25  29
HETATM   29  O   UNL     1     -39.315  50.690 -51.275  1.00  0.00    -0.353 OA
HETATM   30  C   UNL     1     -40.122  50.196 -50.216  1.00  0.00     0.210 C 
ENDBRANCH  25  29
BRANCH  26  31
HETATM   31  O   UNL     1     -39.128  50.576 -53.881  1.00  0.00    -0.353 OA
HETATM   32  C   UNL     1     -39.959  49.781 -54.715  1.00  0.00     0.210 C 
ENDBRANCH  26  31
ENDBRANCH  22  23
ENDBRANCH  21  22
ENDBRANCH   2  21
BRANCH   5  33
HETATM   33  C   UNL     1     -45.134  59.585 -53.127  1.00  0.00     0.047 A 
HETATM   34  C   UNL     1     -45.165  60.550 -54.149  1.00  0.00     0.030 A 
HETATM   35  C   UNL     1     -45.949  61.709 -54.049  1.00  0.00     0.002 A 
HETATM   36  C   UNL     1     -46.720  61.936 -52.919  1.00  0.00     0.000 A 
HETATM   37  C   UNL     1     -46.705  61.006 -51.888  1.00  0.00     0.002 A 
HETATM   38  C   UNL     1     -45.921  59.849 -51.993  1.00  0.00     0.030 A 
ENDBRANCH   5  33
TORSDOF 10
ENDMDL
MODEL 5
REMARK VINA RESULT:      -7.8      1.907      5.610
REMARK  10 active torsions:
REMARK  status: ('A' for Active; 'I' for Inactive)
REMARK    1  A    between atoms: O_2  and  C_3 
REMARK    2  A    between atoms: C_6  and  N_7 
REMARK       I    between atoms: N_7  and  C_8 
REMARK    3  A    between atoms: C_8  and  C_9 
REMARK    4  A    between atoms: C_9  and  C_10 
REMARK    5  A    between atoms: N_11  and  C_12 
REMARK    6  A    between atoms: C_12  and  C_13 
REMARK    7  A    between atoms: C_13  and  C_14 
REMARK    8  A    between atoms: C_16  and  O_17 
REMARK    9  A    between atoms: C_19  and  O_20 
REMARK   10  A    between atoms: N_26  and  C_27 
ROOT
HETATM    1  C   UNL     1     -41.595  56.208 -53.799  1.00  0.00     0.190 C 
HETATM    2  N   UNL     1     -42.350  55.766 -52.641  1.00  0.00    -0.319 N 
HETATM    3  C   UNL     1     -42.184  54.401 -52.419  1.00  0.00     0.332 C 
HETATM    4  O   UNL     1     -42.916  53.770 -51.668  1.00  0.00    -0.246 OA
HETATM    5  N   UNL     1     -41.144  53.946 -53.207  1.00  0.00    -0.232 N 
HETATM    6  C   UNL     1     -40.745  54.961 -54.054  1.00  0.00     0.256 C 
HETATM    7  O   UNL     1     -39.898  54.928 -54.941  1.00  0.00    -0.270 OA
ENDROOT
BRANCH   1   8
HETATM    8  C   UNL     1     -42.475  56.479 -55.020  1.00  0.00     0.138 C 
BRANCH   8   9
HETATM    9  C   UNL     1     -42.206  57.842 -55.606  1.00  0.00     0.224 C 
HETATM   10  N   UNL     1     -42.577  58.139 -56.886  1.00  0.00    -0.327 N 
HETATM   11  H   UNL     1     -42.183  59.030 -57.168  1.00  0.00     0.169 HD
HETATM   12  O   UNL     1     -41.653  58.726 -54.947  1.00  0.00    -0.273 OA
BRANCH  10  13
HETATM   13  C   UNL     1     -43.403  57.507 -57.834  1.00  0.00     0.034 A 
HETATM   14  C   UNL     1     -43.063  56.382 -58.583  1.00  0.00     0.032 A 
HETATM   15  C   UNL     1     -43.993  55.797 -59.451  1.00  0.00     0.039 A 
HETATM   16  C   UNL     1     -45.281  56.314 -59.580  1.00  0.00     0.068 A 
HETATM   17  C   UNL     1     -45.627  57.444 -58.847  1.00  0.00     0.039 A 
HETATM   18  C   UNL     1     -44.697  58.028 -57.976  1.00  0.00     0.032 A 
BRANCH  16  19
HETATM   19  O   UNL     1     -46.091  55.631 -60.442  1.00  0.00    -0.356 OA
HETATM   20  C   UNL     1     -47.194  56.348 -60.982  1.00  0.00     0.210 C 
ENDBRANCH  16  19
ENDBRANCH  10  13
ENDBRANCH   8   9
ENDBRANCH   1   8
BRANCH   2  21
HETATM   21  C   UNL     1     -43.483  56.518 -52.115  1.00  0.00     0.133 C 
BRANCH  21  22
HETATM   22  C   UNL     1     -43.108  57.860 -51.476  1.00  0.00     0.058 C 
BRANCH  22  23
HETATM   23  C   UNL     1     -43.676  59.003 -52.284  1.00  0.00    -0.054 A 
HETATM   24  C   UNL     1     -43.107  60.283 -52.223  1.00  0.00     0.046 A 
HETATM   25  C   UNL     1     -43.599  61.322 -53.027  1.00  0.00     0.102 A 
HETATM   26  C   UNL     1     -44.669  61.075 -53.911  1.00  0.00     0.101 A 
HETATM   27  C   UNL     1     -45.237  59.798 -53.964  1.00  0.00     0.040 A 
HETATM   28  C   UNL     1     -44.743  58.771 -53.159  1.00  0.00     0.010 A 
BRANCH  25  29
HETATM   29  O   UNL     1     -43.093  62.599 -53.037  1.00  0.00    -0.353 OA
HETATM   30  C   UNL     1     -43.399  63.440 -51.936  1.00  0.00     0.210 C 
ENDBRANCH  25  29
BRANCH  26  31
HETATM   31  O   UNL     1     -45.083  62.139 -54.673  1.00  0.00    -0.353 OA
HETATM   32  C   UNL     1     -44.885  62.059 -56.077  1.00  0.00     0.210 C 
ENDBRANCH  26  31
ENDBRANCH  22  23
ENDBRANCH  21  22
ENDBRANCH   2  21
BRANCH   5  33
HETATM   33  C   UNL     1     -40.617  52.613 -53.192  1.00  0.00     0.047 A 
HETATM   34  C   UNL     1     -39.925  52.107 -52.078  1.00  0.00     0.030 A 
HETATM   35  C   UNL     1     -39.405  50.805 -52.059  1.00  0.00     0.002 A 
HETATM   36  C   UNL     1     -39.559  49.973 -53.159  1.00  0.00     0.000 A 
HETATM   37  C   UNL     1     -40.232  50.446 -54.277  1.00  0.00     0.002 A 
HETATM   38  C   UNL     1     -40.751  51.748 -54.292  1.00  0.00     0.030 A 
ENDBRANCH   5  33
TORSDOF 10
ENDMDL
MODEL 6
REMARK VINA RESULT:      -7.7      2.487      7.848
REMARK  10 active torsions:
REMARK  status: ('A' for Active; 'I' for Inactive)
REMARK    1  A    between atoms: O_2  and  C_3 
REMARK    2  A    between atoms: C_6  and  N_7 
REMARK       I    between atoms: N_7  and  C_8 
REMARK    3  A    between atoms: C_8  and  C_9 
REMARK    4  A    between atoms: C_9  and  C_10 
REMARK    5  A    between atoms: N_11  and  C_12 
REMARK    6  A    between atoms: C_12  and  C_13 
REMARK    7  A    between atoms: C_13  and  C_14 
REMARK    8  A    between atoms: C_16  and  O_17 
REMARK    9  A    between atoms: C_19  and  O_20 
REMARK   10  A    between atoms: N_26  and  C_27 
ROOT
HETATM    1  C   UNL     1     -42.420  57.351 -55.811  1.00  0.00     0.190 C 
HETATM    2  N   UNL     1     -42.429  55.901 -55.772  1.00  0.00    -0.319 N 
HETATM    3  C   UNL     1     -43.255  55.372 -56.761  1.00  0.00     0.332 C 
HETATM    4  O   UNL     1     -43.613  54.202 -56.752  1.00  0.00    -0.246 OA
HETATM    5  N   UNL     1     -43.599  56.381 -57.639  1.00  0.00    -0.232 N 
HETATM    6  C   UNL     1     -43.141  57.586 -57.141  1.00  0.00     0.256 C 
HETATM    7  O   UNL     1     -43.302  58.713 -57.597  1.00  0.00    -0.270 OA
ENDROOT
BRANCH   1   8
HETATM    8  C   UNL     1     -43.228  57.986 -54.679  1.00  0.00     0.138 C 
BRANCH   8   9
HETATM    9  C   UNL     1     -42.445  59.067 -53.976  1.00  0.00     0.224 C 
HETATM   10  N   UNL     1     -42.026  58.901 -52.688  1.00  0.00    -0.327 N 
HETATM   11  H   UNL     1     -41.659  59.774 -52.322  1.00  0.00     0.169 HD
HETATM   12  O   UNL     1     -42.157  60.122 -54.545  1.00  0.00    -0.273 OA
BRANCH  10  13
HETATM   13  C   UNL     1     -41.955  57.797 -51.819  1.00  0.00     0.034 A 
HETATM   14  C   UNL     1     -40.846  57.436 -51.057  1.00  0.00     0.032 A 
HETATM   15  C   UNL     1     -40.911  56.352 -50.173  1.00  0.00     0.039 A 
HETATM   16  C   UNL     1     -42.086  55.617 -50.022  1.00  0.00     0.068 A 
HETATM   17  C   UNL     1     -43.196  55.960 -50.786  1.00  0.00     0.039 A 
HETATM   18  C   UNL     1     -43.130  57.047 -51.669  1.00  0.00     0.032 A 
BRANCH  16  19
HETATM   19  O   UNL     1     -42.016  54.604 -49.108  1.00  0.00    -0.356 OA
HETATM   20  C   UNL     1     -40.814  54.508 -48.354  1.00  0.00     0.210 C 
ENDBRANCH  16  19
ENDBRANCH  10  13
ENDBRANCH   8   9
ENDBRANCH   1   8
BRANCH   2  21
HETATM   21  C   UNL     1     -42.043  55.150 -54.583  1.00  0.00     0.133 C 
BRANCH  21  22
HETATM   22  C   UNL     1     -40.530  54.976 -54.410  1.00  0.00     0.058 C 
BRANCH  22  23
HETATM   23  C   UNL     1     -40.234  53.758 -53.567  1.00  0.00    -0.054 A 
HETATM   24  C   UNL     1     -39.894  52.534 -54.162  1.00  0.00     0.046 A 
HETATM   25  C   UNL     1     -39.556  51.426 -53.372  1.00  0.00     0.102 A 
HETATM   26  C   UNL     1     -39.549  51.546 -51.967  1.00  0.00     0.101 A 
HETATM   27  C   UNL     1     -39.896  52.766 -51.378  1.00  0.00     0.040 A 
HETATM   28  C   UNL     1     -40.233  53.863 -52.173  1.00  0.00     0.010 A 
BRANCH  25  29
HETATM   29  O   UNL     1     -39.200  50.197 -53.871  1.00  0.00    -0.353 OA
HETATM   30  C   UNL     1     -39.907  49.714 -55.004  1.00  0.00     0.210 C 
ENDBRANCH  25  29
BRANCH  26  31
HETATM   31  O   UNL     1     -39.195  50.420 -51.265  1.00  0.00    -0.353 OA
HETATM   32  C   UNL     1     -40.197  49.793 -50.479  1.00  0.00     0.210 C 
ENDBRANCH  26  31
ENDBRANCH  22  23
ENDBRANCH  21  22
ENDBRANCH   2  21
BRANCH   5  33
HETATM   33  C   UNL     1     -44.369  56.210 -58.836  1.00  0.00     0.047 A 
HETATM   34  C   UNL     1     -45.541  56.952 -59.070  1.00  0.00     0.030 A 
HETATM   35  C   UNL     1     -46.299  56.787 -60.237  1.00  0.00     0.002 A 
HETATM   36  C   UNL     1     -45.909  55.869 -61.202  1.00  0.00     0.000 A 
HETATM   37  C   UNL     1     -44.761  55.116 -60.997  1.00  0.00     0.002 A 
HETATM   38  C   UNL     1     -44.005  55.285 -59.829  1.00  0.00     0.030 A 
ENDBRANCH   5  33
TORSDOF 10
ENDMDL
MODEL 7
REMARK VINA RESULT:      -7.5      2.432      7.622
REMARK  10 active torsions:
REMARK  status: ('A' for Active; 'I' for Inactive)
REMARK    1  A    between atoms: O_2  and  C_3 
REMARK    2  A    between atoms: C_6  and  N_7 
REMARK       I    between atoms: N_7  and  C_8 
REMARK    3  A    between atoms: C_8  and  C_9 
REMARK    4  A    between atoms: C_9  and  C_10 
REMARK    5  A    between atoms: N_11  and  C_12 
REMARK    6  A    between atoms: C_12  and  C_13 
REMARK    7  A    between atoms: C_13  and  C_14 
REMARK    8  A    between atoms: C_16  and  O_17 
REMARK    9  A    between atoms: C_19  and  O_20 
REMARK   10  A    between atoms: N_26  and  C_27 
ROOT
HETATM    1  C   UNL     1     -41.528  57.642 -53.835  1.00  0.00     0.190 C 
HETATM    2  N   UNL     1     -41.872  56.736 -54.914  1.00  0.00    -0.319 N 
HETATM    3  C   UNL     1     -42.379  57.426 -56.013  1.00  0.00     0.332 C 
HETATM    4  O   UNL     1     -42.967  56.859 -56.923  1.00  0.00    -0.246 OA
HETATM    5  N   UNL     1     -42.147  58.777 -55.834  1.00  0.00    -0.232 N 
HETATM    6  C   UNL     1     -41.646  58.983 -54.564  1.00  0.00     0.256 C 
HETATM    7  O   UNL     1     -41.375  60.044 -54.011  1.00  0.00    -0.270 OA
ENDROOT
BRANCH   1   8
HETATM    8  C   UNL     1     -42.529  57.605 -52.679  1.00  0.00     0.138 C 
BRANCH   8   9
HETATM    9  C   UNL     1     -41.855  57.856 -51.353  1.00  0.00     0.224 C 
HETATM   10  N   UNL     1     -42.110  58.993 -50.642  1.00  0.00    -0.327 N 
HETATM   11  H   UNL     1     -41.462  59.075 -49.866  1.00  0.00     0.169 HD
HETATM   12  O   UNL     1     -41.063  57.041 -50.872  1.00  0.00    -0.273 OA
BRANCH  10  13
HETATM   13  C   UNL     1     -43.083  60.005 -50.737  1.00  0.00     0.034 A 
HETATM   14  C   UNL     1     -44.457  59.799 -50.846  1.00  0.00     0.032 A 
HETATM   15  C   UNL     1     -45.340  60.886 -50.866  1.00  0.00     0.039 A 
HETATM   16  C   UNL     1     -44.872  62.194 -50.764  1.00  0.00     0.068 A 
HETATM   17  C   UNL     1     -43.503  62.412 -50.666  1.00  0.00     0.039 A 
HETATM   18  C   UNL     1     -42.619  61.325 -50.644  1.00  0.00     0.032 A 
BRANCH  16  19
HETATM   19  O   UNL     1     -45.845  63.154 -50.771  1.00  0.00    -0.356 OA
HETATM   20  C   UNL     1     -46.933  62.965 -49.874  1.00  0.00     0.210 C 
ENDBRANCH  16  19
ENDBRANCH  10  13
ENDBRANCH   8   9
ENDBRANCH   1   8
BRANCH   2  21
HETATM   21  C   UNL     1     -42.122  55.317 -54.692  1.00  0.00     0.133 C 
BRANCH  21  22
HETATM   22  C   UNL     1     -40.992  54.396 -55.169  1.00  0.00     0.058 C 
BRANCH  22  23
HETATM   23  C   UNL     1     -40.540  53.494 -54.045  1.00  0.00    -0.054 A 
HETATM   24  C   UNL     1     -40.729  53.861 -52.705  1.00  0.00     0.046 A 
HETATM   25  C   UNL     1     -40.368  52.989 -51.668  1.00  0.00     0.102 A 
HETATM   26  C   UNL     1     -39.817  51.728 -51.975  1.00  0.00     0.101 A 
HETATM   27  C   UNL     1     -39.624  51.370 -53.313  1.00  0.00     0.040 A 
HETATM   28  C   UNL     1     -39.985  52.245 -54.338  1.00  0.00     0.010 A 
BRANCH  25  29
HETATM   29  O   UNL     1     -40.530  53.265 -50.332  1.00  0.00    -0.353 OA
HETATM   30  C   UNL     1     -39.623  54.175 -49.730  1.00  0.00     0.210 C 
ENDBRANCH  25  29
BRANCH  26  31
HETATM   31  O   UNL     1     -39.503  50.928 -50.905  1.00  0.00    -0.353 OA
HETATM   32  C   UNL     1     -39.789  49.541 -51.015  1.00  0.00     0.210 C 
ENDBRANCH  26  31
ENDBRANCH  22  23
ENDBRANCH  21  22
ENDBRANCH   2  21
BRANCH   5  33
HETATM   33  C   UNL     1     -42.448  59.801 -56.791  1.00  0.00     0.047 A 
HETATM   34  C   UNL     1     -43.636  60.551 -56.718  1.00  0.00     0.030 A 
HETATM   35  C   UNL     1     -43.937  61.552 -57.652  1.00  0.00     0.002 A 
HETATM   36  C   UNL     1     -43.059  61.828 -58.690  1.00  0.00     0.000 A 
HETATM   37  C   UNL     1     -41.881  61.100 -58.794  1.00  0.00     0.002 A 
HETATM   38  C   UNL     1     -41.584  60.101 -57.857  1.00  0.00     0.030 A 
ENDBRANCH   5  33
TORSDOF 10
ENDMDL
MODEL 8
REMARK VINA RESULT:      -7.5      2.411      7.850
REMARK  10 active torsions:
REMARK  status: ('A' for Active; 'I' for Inactive)
REMARK    1  A    between atoms: O_2  and  C_3 
REMARK    2  A    between atoms: C_6  and  N_7 
REMARK       I    between atoms: N_7  and  C_8 
REMARK    3  A    between atoms: C_8  and  C_9 
REMARK    4  A    between atoms: C_9  and  C_10 
REMARK    5  A    between atoms: N_11  and  C_12 
REMARK    6  A    between atoms: C_12  and  C_13 
REMARK    7  A    between atoms: C_13  and  C_14 
REMARK    8  A    between atoms: C_16  and  O_17 
REMARK    9  A    between atoms: C_19  and  O_20 
REMARK   10  A    between atoms: N_26  and  C_27 
ROOT
HETATM    1  C   UNL     1     -43.364  57.287 -52.479  1.00  0.00     0.190 C 
HETATM    2  N   UNL     1     -42.283  57.330 -51.513  1.00  0.00    -0.319 N 
HETATM    3  C   UNL     1     -42.140  58.605 -50.970  1.00  0.00     0.332 C 
HETATM    4  O   UNL     1     -41.146  58.935 -50.338  1.00  0.00    -0.246 OA
HETATM    5  N   UNL     1     -43.240  59.363 -51.321  1.00  0.00    -0.232 N 
HETATM    6  C   UNL     1     -44.011  58.649 -52.217  1.00  0.00     0.256 C 
HETATM    7  O   UNL     1     -45.028  59.003 -52.804  1.00  0.00    -0.270 OA
ENDROOT
BRANCH   1   8
HETATM    8  C   UNL     1     -42.872  57.230 -53.926  1.00  0.00     0.138 C 
BRANCH   8   9
HETATM    9  C   UNL     1     -43.696  56.276 -54.756  1.00  0.00     0.224 C 
HETATM   10  N   UNL     1     -44.063  56.596 -56.031  1.00  0.00    -0.327 N 
HETATM   11  H   UNL     1     -44.738  55.924 -56.381  1.00  0.00     0.169 HD
HETATM   12  O   UNL     1     -44.053  55.183 -54.310  1.00  0.00    -0.273 OA
BRANCH  10  13
HETATM   13  C   UNL     1     -43.670  57.598 -56.937  1.00  0.00     0.034 A 
HETATM   14  C   UNL     1     -44.262  58.854 -57.062  1.00  0.00     0.032 A 
HETATM   15  C   UNL     1     -43.743  59.800 -57.955  1.00  0.00     0.039 A 
HETATM   16  C   UNL     1     -42.620  59.516 -58.730  1.00  0.00     0.068 A 
HETATM   17  C   UNL     1     -42.029  58.262 -58.624  1.00  0.00     0.039 A 
HETATM   18  C   UNL     1     -42.547  57.317 -57.728  1.00  0.00     0.032 A 
BRANCH  16  19
HETATM   19  O   UNL     1     -42.208  60.537 -59.539  1.00  0.00    -0.356 OA
HETATM   20  C   UNL     1     -41.304  61.477 -58.968  1.00  0.00     0.210 C 
ENDBRANCH  16  19
ENDBRANCH  10  13
ENDBRANCH   8   9
ENDBRANCH   1   8
BRANCH   2  21
HETATM   21  C   UNL     1     -41.211  56.342 -51.496  1.00  0.00     0.133 C 
BRANCH  21  22
HETATM   22  C   UNL     1     -41.633  54.962 -50.979  1.00  0.00     0.058 C 
BRANCH  22  23
HETATM   23  C   UNL     1     -40.948  53.873 -51.771  1.00  0.00    -0.054 A 
HETATM   24  C   UNL     1     -40.296  52.812 -51.126  1.00  0.00     0.046 A 
HETATM   25  C   UNL     1     -39.721  51.770 -51.868  1.00  0.00     0.102 A 
HETATM   26  C   UNL     1     -39.806  51.785 -53.275  1.00  0.00     0.101 A 
HETATM   27  C   UNL     1     -40.450  52.849 -53.915  1.00  0.00     0.040 A 
HETATM   28  C   UNL     1     -41.019  53.882 -53.168  1.00  0.00     0.010 A 
BRANCH  25  29
HETATM   29  O   UNL     1     -39.076  50.691 -51.316  1.00  0.00    -0.353 OA
HETATM   30  C   UNL     1     -39.875  49.641 -50.792  1.00  0.00     0.210 C 
ENDBRANCH  25  29
BRANCH  26  31
HETATM   31  O   UNL     1     -39.230  50.723 -53.927  1.00  0.00    -0.353 OA
HETATM   32  C   UNL     1     -40.091  49.835 -54.625  1.00  0.00     0.210 C 
ENDBRANCH  26  31
ENDBRANCH  22  23
ENDBRANCH  21  22
ENDBRANCH   2  21
BRANCH   5  33
HETATM   33  C   UNL     1     -43.498  60.702 -50.878  1.00  0.00     0.047 A 
HETATM   34  C   UNL     1     -44.182  60.962 -49.678  1.00  0.00     0.030 A 
HETATM   35  C   UNL     1     -44.439  62.269 -49.241  1.00  0.00     0.002 A 
HETATM   36  C   UNL     1     -44.022  63.355 -49.998  1.00  0.00     0.000 A 
HETATM   37  C   UNL     1     -43.351  63.131 -51.192  1.00  0.00     0.002 A 
HETATM   38  C   UNL     1     -43.095  61.823 -51.625  1.00  0.00     0.030 A 
ENDBRANCH   5  33
TORSDOF 10
ENDMDL
MODEL 9
REMARK VINA RESULT:      -7.5      2.346      7.622
REMARK  10 active torsions:
REMARK  status: ('A' for Active; 'I' for Inactive)
REMARK    1  A    between atoms: O_2  and  C_3 
REMARK    2  A    between atoms: C_6  and  N_7 
REMARK       I    between atoms: N_7  and  C_8 
REMARK    3  A    between atoms: C_8  and  C_9 
REMARK    4  A    between atoms: C_9  and  C_10 
REMARK    5  A    between atoms: N_11  and  C_12 
REMARK    6  A    between atoms: C_12  and  C_13 
REMARK    7  A    between atoms: C_13  and  C_14 
REMARK    8  A    between atoms: C_16  and  O_17 
REMARK    9  A    between atoms: C_19  and  O_20 
REMARK   10  A    between atoms: N_26  and  C_27 
ROOT
HETATM    1  C   UNL     1     -42.155  57.698 -56.339  1.00  0.00     0.190 C 
HETATM    2  N   UNL     1     -42.173  56.259 -56.154  1.00  0.00    -0.319 N 
HETATM    3  C   UNL     1     -43.115  55.653 -56.982  1.00  0.00     0.332 C 
HETATM    4  O   UNL     1     -43.481  54.498 -56.815  1.00  0.00    -0.246 OA
HETATM    5  N   UNL     1     -43.550  56.579 -57.911  1.00  0.00    -0.232 N 
HETATM    6  C   UNL     1     -43.025  57.816 -57.593  1.00  0.00     0.256 C 
HETATM    7  O   UNL     1     -43.228  58.896 -58.138  1.00  0.00    -0.270 OA
ENDROOT
BRANCH   1   8
HETATM    8  C   UNL     1     -42.818  58.458 -55.190  1.00  0.00     0.138 C 
BRANCH   8   9
HETATM    9  C   UNL     1     -42.320  59.880 -55.104  1.00  0.00     0.224 C 
HETATM   10  N   UNL     1     -42.829  60.745 -54.179  1.00  0.00    -0.327 N 
HETATM   11  H   UNL     1     -42.503  61.688 -54.363  1.00  0.00     0.169 HD
HETATM   12  O   UNL     1     -41.438  60.297 -55.860  1.00  0.00    -0.273 OA
BRANCH  10  13
HETATM   13  C   UNL     1     -43.639  60.589 -53.040  1.00  0.00     0.034 A 
HETATM   14  C   UNL     1     -44.995  60.267 -53.048  1.00  0.00     0.032 A 
HETATM   15  C   UNL     1     -45.687  60.071 -51.846  1.00  0.00     0.039 A 
HETATM   16  C   UNL     1     -45.039  60.179 -50.617  1.00  0.00     0.068 A 
HETATM   17  C   UNL     1     -43.689  60.511 -50.596  1.00  0.00     0.039 A 
HETATM   18  C   UNL     1     -42.996  60.705 -51.799  1.00  0.00     0.032 A 
BRANCH  16  19
HETATM   19  O   UNL     1     -45.829  59.938 -49.528  1.00  0.00    -0.356 OA
HETATM   20  C   UNL     1     -45.574  60.725 -48.371  1.00  0.00     0.210 C 
ENDBRANCH  16  19
ENDBRANCH  10  13
ENDBRANCH   8   9
ENDBRANCH   1   8
BRANCH   2  21
HETATM   21  C   UNL     1     -41.657  55.621 -54.948  1.00  0.00     0.133 C 
BRANCH  21  22
HETATM   22  C   UNL     1     -40.511  54.634 -55.198  1.00  0.00     0.058 C 
BRANCH  22  23
HETATM   23  C   UNL     1     -40.326  53.732 -54.001  1.00  0.00    -0.054 A 
HETATM   24  C   UNL     1     -40.651  54.170 -52.709  1.00  0.00     0.046 A 
HETATM   25  C   UNL     1     -40.540  53.304 -51.612  1.00  0.00     0.102 A 
HETATM   26  C   UNL     1     -40.104  51.978 -51.810  1.00  0.00     0.101 A 
HETATM   27  C   UNL     1     -39.773  51.547 -53.099  1.00  0.00     0.040 A 
HETATM   28  C   UNL     1     -39.886  52.417 -54.184  1.00  0.00     0.010 A 
BRANCH  25  29
HETATM   29  O   UNL     1     -40.849  53.648 -50.319  1.00  0.00    -0.353 OA
HETATM   30  C   UNL     1     -40.420  54.918 -49.852  1.00  0.00     0.210 C 
ENDBRANCH  25  29
BRANCH  26  31
HETATM   31  O   UNL     1     -40.034  51.190 -50.688  1.00  0.00    -0.353 OA
HETATM   32  C   UNL     1     -39.562  49.860 -50.847  1.00  0.00     0.210 C 
ENDBRANCH  26  31
ENDBRANCH  22  23
ENDBRANCH  21  22
ENDBRANCH   2  21
BRANCH   5  33
HETATM   33  C   UNL     1     -44.457  56.307 -58.987  1.00  0.00     0.047 A 
HETATM   34  C   UNL     1     -44.118  55.427 -60.031  1.00  0.00     0.030 A 
HETATM   35  C   UNL     1     -45.000  55.159 -61.088  1.00  0.00     0.002 A 
HETATM   36  C   UNL     1     -46.245  55.770 -61.132  1.00  0.00     0.000 A 
HETATM   37  C   UNL     1     -46.606  56.650 -60.121  1.00  0.00     0.002 A 
HETATM   38  C   UNL     1     -45.722  56.914 -59.065  1.00  0.00     0.030 A 
ENDBRANCH   5  33
TORSDOF 10
ENDMDL
MODEL 10
REMARK VINA RESULT:      -7.5      2.217      7.736
REMARK  10 active torsions:
REMARK  status: ('A' for Active; 'I' for Inactive)
REMARK    1  A    between atoms: O_2  and  C_3 
REMARK    2  A    between atoms: C_6  and  N_7 
REMARK       I    between atoms: N_7  and  C_8 
REMARK    3  A    between atoms: C_8  and  C_9 
REMARK    4  A    between atoms: C_9  and  C_10 
REMARK    5  A    between atoms: N_11  and  C_12 
REMARK    6  A    between atoms: C_12  and  C_13 
REMARK    7  A    between atoms: C_13  and  C_14 
REMARK    8  A    between atoms: C_16  and  O_17 
REMARK    9  A    between atoms: C_19  and  O_20 
REMARK   10  A    between atoms: N_26  and  C_27 
ROOT
HETATM    1  C   UNL     1     -43.386  58.495 -54.909  1.00  0.00     0.190 C 
HETATM    2  N   UNL     1     -42.791  57.313 -55.504  1.00  0.00    -0.319 N 
HETATM    3  C   UNL     1     -42.838  57.367 -56.895  1.00  0.00     0.332 C 
HETATM    4  O   UNL     1     -42.634  56.383 -57.592  1.00  0.00    -0.246 OA
HETATM    5  N   UNL     1     -43.193  58.647 -57.277  1.00  0.00    -0.232 N 
HETATM    6  C   UNL     1     -43.535  59.373 -56.153  1.00  0.00     0.256 C 
HETATM    7  O   UNL     1     -43.962  60.521 -56.085  1.00  0.00    -0.270 OA
ENDROOT
BRANCH   1   8
HETATM    8  C   UNL     1     -44.767  58.232 -54.307  1.00  0.00     0.138 C 
BRANCH   8   9
HETATM    9  C   UNL     1     -45.070  59.184 -53.177  1.00  0.00     0.224 C 
HETATM   10  N   UNL     1     -44.527  58.996 -51.939  1.00  0.00    -0.327 N 
HETATM   11  H   UNL     1     -44.955  59.624 -51.267  1.00  0.00     0.169 HD
HETATM   12  O   UNL     1     -45.809  60.159 -53.340  1.00  0.00    -0.273 OA
BRANCH  10  13
HETATM   13  C   UNL     1     -43.498  58.176 -51.440  1.00  0.00     0.034 A 
HETATM   14  C   UNL     1     -42.187  58.581 -51.194  1.00  0.00     0.032 A 
HETATM   15  C   UNL     1     -41.262  57.693 -50.631  1.00  0.00     0.039 A 
HETATM   16  C   UNL     1     -41.628  56.392 -50.291  1.00  0.00     0.068 A 
HETATM   17  C   UNL     1     -42.930  55.974 -50.543  1.00  0.00     0.039 A 
HETATM   18  C   UNL     1     -43.856  56.863 -51.104  1.00  0.00     0.032 A 
BRANCH  16  19
HETATM   19  O   UNL     1     -40.633  55.644 -49.728  1.00  0.00    -0.356 OA
HETATM   20  C   UNL     1     -41.018  54.754 -48.687  1.00  0.00     0.210 C 
ENDBRANCH  16  19
ENDBRANCH  10  13
ENDBRANCH   8   9
ENDBRANCH   1   8
BRANCH   2  21
HETATM   21  C   UNL     1     -42.638  56.062 -54.769  1.00  0.00     0.133 C 
BRANCH  21  22
HETATM   22  C   UNL     1     -41.416  56.020 -53.844  1.00  0.00     0.058 C 
BRANCH  22  23
HETATM   23  C   UNL     1     -40.851  54.620 -53.786  1.00  0.00    -0.054 A 
HETATM   24  C   UNL     1     -40.386  54.079 -52.579  1.00  0.00     0.046 A 
HETATM   25  C   UNL     1     -39.925  52.756 -52.520  1.00  0.00     0.102 A 
HETATM   26  C   UNL     1     -39.937  51.960 -53.684  1.00  0.00     0.101 A 
HETATM   27  C   UNL     1     -40.395  52.506 -54.887  1.00  0.00     0.040 A 
HETATM   28  C   UNL     1     -40.850  53.824 -54.936  1.00  0.00     0.010 A 
BRANCH  25  29
HETATM   29  O   UNL     1     -39.465  52.145 -51.380  1.00  0.00    -0.353 OA
HETATM   30  C   UNL     1     -40.424  51.725 -50.422  1.00  0.00     0.210 C 
ENDBRANCH  25  29
BRANCH  26  31
HETATM   31  O   UNL     1     -39.482  50.672 -53.541  1.00  0.00    -0.353 OA
HETATM   32  C   UNL     1     -39.858  49.729 -54.534  1.00  0.00     0.210 C 
ENDBRANCH  26  31
ENDBRANCH  22  23
ENDBRANCH  21  22
ENDBRANCH   2  21
BRANCH   5  33
HETATM   33  C   UNL     1     -43.262  59.117 -58.630  1.00  0.00     0.047 A 
HETATM   34  C   UNL     1     -44.469  59.109 -59.351  1.00  0.00     0.030 A 
HETATM   35  C   UNL     1     -44.542  59.564 -60.675  1.00  0.00     0.002 A 
HETATM   36  C   UNL     1     -43.406  60.037 -61.317  1.00  0.00     0.000 A 
HETATM   37  C   UNL     1     -42.197  60.051 -60.634  1.00  0.00     0.002 A 
HETATM   38  C   UNL     1     -42.129  59.595 -59.310  1.00  0.00     0.030 A 
ENDBRANCH   5  33
TORSDOF 10
ENDMDL
