MODEL 1
REMARK VINA RESULT:      -6.7      0.000      0.000
REMARK  13 active torsions:
REMARK  status: ('A' for Active; 'I' for Inactive)
REMARK    1  A    between atoms: C_2  and  N_3 
REMARK    2  A    between atoms: N_3  and  C_5 
REMARK    3  A    between atoms: N_3  and  C_34 
REMARK    4  A    between atoms: C_5  and  C_6 
REMARK    5  A    between atoms: C_6  and  O_7 
REMARK    6  A    between atoms: O_7  and  C_8 
REMARK    7  A    between atoms: N_15  and  N_16 
REMARK    8  A    between atoms: C_20  and  O_21 
REMARK    9  A    between atoms: O_21  and  C_22 
REMARK   10  A    between atoms: C_22  and  C_23 
REMARK   11  A    between atoms: C_23  and  N_24 
REMARK   12  A    between atoms: N_24  and  C_26 
REMARK   13  A    between atoms: N_24  and  C_28 
ROOT
HETATM    1  C   UNL     1     -42.954  59.417 -58.146  1.00  0.00     0.087 A 
HETATM    2  C   UNL     1     -42.434  60.414 -57.288  1.00  0.00     0.045 A 
HETATM    3 BR   UNL     1     -42.291  62.218 -57.875  1.00  0.00    -0.048 Br
HETATM    4  C   UNL     1     -42.029  60.118 -55.978  1.00  0.00     0.035 A 
HETATM    5  C   UNL     1     -42.130  58.807 -55.541  1.00  0.00    -0.011 A 
HETATM    6  C   UNL     1     -42.611  57.808 -56.411  1.00  0.00     0.009 A 
HETATM    7  C   UNL     1     -42.578  56.522 -55.663  1.00  0.00     0.093 A 
HETATM    8  N   UNL     1     -42.887  55.305 -55.985  1.00  0.00    -0.203 NA
HETATM    9  C   UNL     1     -42.074  56.844 -54.307  1.00  0.00     0.009 A 
HETATM   10  C   UNL     1     -41.812  58.217 -54.256  1.00  0.00    -0.011 A 
HETATM   11  C   UNL     1     -41.878  55.982 -53.239  1.00  0.00     0.053 A 
HETATM   12  C   UNL     1     -41.385  56.527 -52.052  1.00  0.00     0.087 A 
HETATM   13  C   UNL     1     -41.135  57.921 -51.978  1.00  0.00     0.045 A 
HETATM   14 BR   UNL     1     -40.491  58.702 -50.367  1.00  0.00    -0.048 Br
HETATM   15  C   UNL     1     -41.341  58.771 -53.078  1.00  0.00     0.035 A 
HETATM   16  C   UNL     1     -43.023  58.092 -57.704  1.00  0.00     0.053 A 
ENDROOT
BRANCH   1  17
HETATM   17  O   UNL     1     -43.336  59.811 -59.407  1.00  0.00    -0.348 OA
BRANCH  17  18
HETATM   18  C   UNL     1     -43.640  58.757 -60.329  1.00  0.00     0.203 C 
BRANCH  18  19
HETATM   19  C   UNL     1     -45.164  58.585 -60.358  1.00  0.00     0.261 C 
BRANCH  19  20
HETATM   20  N   UNL     1     -45.571  57.179 -60.798  1.00  0.00    -0.070 N 
HETATM   21  H   UNL     1     -45.587  57.231 -61.830  1.00  0.00     0.279 HD
BRANCH  20  22
HETATM   22  C   UNL     1     -46.975  56.803 -60.359  1.00  0.00     0.230 C 
HETATM   23  C   UNL     1     -47.929  56.792 -61.539  1.00  0.00     0.034 C 
ENDBRANCH  20  22
BRANCH  20  24
HETATM   24  C   UNL     1     -44.562  56.087 -60.491  1.00  0.00     0.230 C 
HETATM   25  C   UNL     1     -44.950  54.751 -61.098  1.00  0.00     0.034 C 
ENDBRANCH  20  24
ENDBRANCH  19  20
ENDBRANCH  18  19
ENDBRANCH  17  18
ENDBRANCH   1  17
BRANCH   8  26
HETATM   26  N   UNL     1     -43.309  55.088 -57.246  1.00  0.00    -0.226 NA
HETATM   27  H   UNL     1     -44.271  54.730 -57.206  1.00  0.00     0.145 HD
HETATM   28  H   UNL     1     -42.802  54.280 -57.624  1.00  0.00     0.145 HD
ENDBRANCH   8  26
BRANCH  12  29
HETATM   29  O   UNL     1     -41.150  55.786 -50.918  1.00  0.00    -0.348 OA
BRANCH  29  30
HETATM   30  C   UNL     1     -41.427  54.384 -51.005  1.00  0.00     0.203 C 
BRANCH  30  31
HETATM   31  C   UNL     1     -40.101  53.658 -51.259  1.00  0.00     0.261 C 
BRANCH  31  32
HETATM   32  N   UNL     1     -40.294  52.360 -52.049  1.00  0.00    -0.070 N 
HETATM   33  H   UNL     1     -41.218  52.019 -51.738  1.00  0.00     0.279 HD
BRANCH  32  34
HETATM   34  C   UNL     1     -40.422  52.537 -53.549  1.00  0.00     0.230 C 
HETATM   35  C   UNL     1     -40.271  51.233 -54.311  1.00  0.00     0.034 C 
ENDBRANCH  32  34
BRANCH  32  36
HETATM   36  C   UNL     1     -39.290  51.313 -51.601  1.00  0.00     0.230 C 
HETATM   37  C   UNL     1     -39.911  50.296 -50.662  1.00  0.00     0.034 C 
ENDBRANCH  32  36
ENDBRANCH  31  32
ENDBRANCH  30  31
ENDBRANCH  29  30
ENDBRANCH  12  29
TORSDOF 13
ENDMDL
MODEL 2
REMARK VINA RESULT:      -6.7      0.500      8.494
REMARK  13 active torsions:
REMARK  status: ('A' for Active; 'I' for Inactive)
REMARK    1  A    between atoms: C_2  and  N_3 
REMARK    2  A    between atoms: N_3  and  C_5 
REMARK    3  A    between atoms: N_3  and  C_34 
REMARK    4  A    between atoms: C_5  and  C_6 
REMARK    5  A    between atoms: C_6  and  O_7 
REMARK    6  A    between atoms: O_7  and  C_8 
REMARK    7  A    between atoms: N_15  and  N_16 
REMARK    8  A    between atoms: C_20  and  O_21 
REMARK    9  A    between atoms: O_21  and  C_22 
REMARK   10  A    between atoms: C_22  and  C_23 
REMARK   11  A    between atoms: C_23  and  N_24 
REMARK   12  A    between atoms: N_24  and  C_26 
REMARK   13  A    between atoms: N_24  and  C_28 
ROOT
HETATM    1  C   UNL     1     -41.308  56.402 -52.033  1.00  0.00     0.087 A 
HETATM    2  C   UNL     1     -41.153  57.806 -51.989  1.00  0.00     0.045 A 
HETATM    3 BR   UNL     1     -40.541  58.664 -50.405  1.00  0.00    -0.048 Br
HETATM    4  C   UNL     1     -41.421  58.611 -53.107  1.00  0.00     0.035 A 
HETATM    5  C   UNL     1     -41.867  57.996 -54.265  1.00  0.00    -0.011 A 
HETATM    6  C   UNL     1     -42.058  56.600 -54.294  1.00  0.00     0.009 A 
HETATM    7  C   UNL     1     -42.556  56.253 -55.654  1.00  0.00     0.093 A 
HETATM    8  N   UNL     1     -42.906  55.135 -56.207  1.00  0.00    -0.203 NA
HETATM    9  C   UNL     1     -42.617  57.526 -56.409  1.00  0.00     0.009 A 
HETATM   10  C   UNL     1     -42.200  58.556 -55.559  1.00  0.00    -0.011 A 
HETATM   11  C   UNL     1     -43.006  57.724 -57.726  1.00  0.00     0.053 A 
HETATM   12  C   UNL     1     -42.982  59.030 -58.217  1.00  0.00     0.087 A 
HETATM   13  C   UNL     1     -42.541  60.082 -57.374  1.00  0.00     0.045 A 
HETATM   14 BR   UNL     1     -42.467  61.870 -58.020  1.00  0.00    -0.048 Br
HETATM   15  C   UNL     1     -42.154  59.853 -56.042  1.00  0.00     0.035 A 
HETATM   16  C   UNL     1     -41.787  55.795 -53.198  1.00  0.00     0.053 A 
ENDROOT
BRANCH   1  17
HETATM   17  O   UNL     1     -41.006  55.701 -50.889  1.00  0.00    -0.348 OA
BRANCH  17  18
HETATM   18  C   UNL     1     -41.357  54.312 -50.893  1.00  0.00     0.203 C 
BRANCH  18  19
HETATM   19  C   UNL     1     -40.059  53.500 -50.993  1.00  0.00     0.261 C 
BRANCH  19  20
HETATM   20  N   UNL     1     -40.216  52.283 -51.903  1.00  0.00    -0.070 N 
HETATM   21  H   UNL     1     -41.155  51.916 -51.676  1.00  0.00     0.279 HD
BRANCH  20  22
HETATM   22  C   UNL     1     -39.227  51.175 -51.588  1.00  0.00     0.230 C 
HETATM   23  C   UNL     1     -39.857  50.121 -50.696  1.00  0.00     0.034 C 
ENDBRANCH  20  22
BRANCH  20  24
HETATM   24  C   UNL     1     -40.280  52.589 -53.389  1.00  0.00     0.230 C 
HETATM   25  C   UNL     1     -40.266  51.333 -54.241  1.00  0.00     0.034 C 
ENDBRANCH  20  24
ENDBRANCH  19  20
ENDBRANCH  18  19
ENDBRANCH  17  18
ENDBRANCH   1  17
BRANCH   8  26
HETATM   26  N   UNL     1     -42.853  54.025 -55.445  1.00  0.00    -0.226 NA
HETATM   27  H   UNL     1     -42.262  53.334 -55.924  1.00  0.00     0.145 HD
HETATM   28  H   UNL     1     -43.771  53.568 -55.472  1.00  0.00     0.145 HD
ENDBRANCH   8  26
BRANCH  12  29
HETATM   29  O   UNL     1     -43.338  59.363 -59.502  1.00  0.00    -0.348 OA
BRANCH  29  30
HETATM   30  C   UNL     1     -43.671  58.276 -60.372  1.00  0.00     0.203 C 
BRANCH  30  31
HETATM   31  C   UNL     1     -45.195  58.113 -60.359  1.00  0.00     0.261 C 
BRANCH  31  32
HETATM   32  N   UNL     1     -45.620  56.659 -60.136  1.00  0.00    -0.070 N 
HETATM   33  H   UNL     1     -45.700  56.582 -59.109  1.00  0.00     0.279 HD
BRANCH  32  34
HETATM   34  C   UNL     1     -46.994  56.304 -60.668  1.00  0.00     0.230 C 
HETATM   35  C   UNL     1     -47.723  57.497 -61.259  1.00  0.00     0.034 C 
ENDBRANCH  32  34
BRANCH  32  36
HETATM   36  C   UNL     1     -44.502  55.713 -60.541  1.00  0.00     0.230 C 
HETATM   37  C   UNL     1     -44.478  54.462 -59.683  1.00  0.00     0.034 C 
ENDBRANCH  32  36
ENDBRANCH  31  32
ENDBRANCH  30  31
ENDBRANCH  29  30
ENDBRANCH  12  29
TORSDOF 13
ENDMDL
MODEL 3
REMARK VINA RESULT:      -6.6      5.352      8.320
REMARK  13 active torsions:
REMARK  status: ('A' for Active; 'I' for Inactive)
REMARK    1  A    between atoms: C_2  and  N_3 
REMARK    2  A    between atoms: N_3  and  C_5 
REMARK    3  A    between atoms: N_3  and  C_34 
REMARK    4  A    between atoms: C_5  and  C_6 
REMARK    5  A    between atoms: C_6  and  O_7 
REMARK    6  A    between atoms: O_7  and  C_8 
REMARK    7  A    between atoms: N_15  and  N_16 
REMARK    8  A    between atoms: C_20  and  O_21 
REMARK    9  A    between atoms: O_21  and  C_22 
REMARK   10  A    between atoms: C_22  and  C_23 
REMARK   11  A    between atoms: C_23  and  N_24 
REMARK   12  A    between atoms: N_24  and  C_26 
REMARK   13  A    between atoms: N_24  and  C_28 
ROOT
HETATM    1  C   UNL     1     -44.621  61.117 -50.942  1.00  0.00     0.087 A 
HETATM    2  C   UNL     1     -45.400  60.650 -52.025  1.00  0.00     0.045 A 
HETATM    3 BR   UNL     1     -46.986  61.565 -52.543  1.00  0.00    -0.048 Br
HETATM    4  C   UNL     1     -45.026  59.518 -52.765  1.00  0.00     0.035 A 
HETATM    5  C   UNL     1     -43.872  58.845 -52.396  1.00  0.00    -0.011 A 
HETATM    6  C   UNL     1     -43.119  59.290 -51.291  1.00  0.00     0.009 A 
HETATM    7  C   UNL     1     -41.968  58.358 -51.141  1.00  0.00     0.093 A 
HETATM    8  N   UNL     1     -40.991  58.291 -50.292  1.00  0.00    -0.203 NA
HETATM    9  C   UNL     1     -42.092  57.368 -52.237  1.00  0.00     0.009 A 
HETATM   10  C   UNL     1     -43.238  57.679 -52.976  1.00  0.00    -0.011 A 
HETATM   11  C   UNL     1     -41.252  56.304 -52.529  1.00  0.00     0.053 A 
HETATM   12  C   UNL     1     -41.583  55.501 -53.622  1.00  0.00     0.087 A 
HETATM   13  C   UNL     1     -42.730  55.817 -54.394  1.00  0.00     0.045 A 
HETATM   14 BR   UNL     1     -43.194  54.762 -55.907  1.00  0.00    -0.048 Br
HETATM   15  C   UNL     1     -43.565  56.901 -54.073  1.00  0.00     0.035 A 
HETATM   16  C   UNL     1     -43.475  60.413 -50.559  1.00  0.00     0.053 A 
ENDROOT
BRANCH   1  17
HETATM   17  O   UNL     1     -45.065  62.243 -50.288  1.00  0.00    -0.348 OA
BRANCH  17  18
HETATM   18  C   UNL     1     -44.380  62.576 -49.075  1.00  0.00     0.203 C 
BRANCH  18  19
HETATM   19  C   UNL     1     -45.324  63.436 -48.224  1.00  0.00     0.261 C 
BRANCH  19  20
HETATM   20  N   UNL     1     -45.706  62.742 -46.918  1.00  0.00    -0.070 N 
HETATM   21  H   UNL     1     -45.244  63.307 -46.186  1.00  0.00     0.279 HD
BRANCH  20  22
HETATM   22  C   UNL     1     -45.140  61.338 -46.805  1.00  0.00     0.230 C 
HETATM   23  C   UNL     1     -44.695  61.043 -45.384  1.00  0.00     0.034 C 
ENDBRANCH  20  22
BRANCH  20  24
HETATM   24  C   UNL     1     -47.181  62.797 -46.561  1.00  0.00     0.230 C 
HETATM   25  C   UNL     1     -47.451  63.652 -45.338  1.00  0.00     0.034 C 
ENDBRANCH  20  24
ENDBRANCH  19  20
ENDBRANCH  18  19
ENDBRANCH  17  18
ENDBRANCH   1  17
BRANCH   8  26
HETATM   26  N   UNL     1     -40.966  59.208 -49.306  1.00  0.00    -0.226 NA
HETATM   27  H   UNL     1     -40.045  59.663 -49.314  1.00  0.00     0.145 HD
HETATM   28  H   UNL     1     -40.948  58.717 -48.405  1.00  0.00     0.145 HD
ENDBRANCH   8  26
BRANCH  12  29
HETATM   29  O   UNL     1     -40.835  54.419 -54.022  1.00  0.00    -0.348 OA
BRANCH  29  30
HETATM   30  C   UNL     1     -40.540  53.443 -53.017  1.00  0.00     0.203 C 
BRANCH  30  31
HETATM   31  C   UNL     1     -39.813  52.275 -53.695  1.00  0.00     0.261 C 
BRANCH  31  32
HETATM   32  N   UNL     1     -39.395  51.195 -52.694  1.00  0.00    -0.070 N 
HETATM   33  H   UNL     1     -38.363  51.243 -52.699  1.00  0.00     0.279 HD
BRANCH  32  34
HETATM   34  C   UNL     1     -39.796  51.463 -51.257  1.00  0.00     0.230 C 
HETATM   35  C   UNL     1     -39.934  50.194 -50.437  1.00  0.00     0.034 C 
ENDBRANCH  32  34
BRANCH  32  36
HETATM   36  C   UNL     1     -39.751  49.817 -53.223  1.00  0.00     0.230 C 
HETATM   37  C   UNL     1     -39.778  49.780 -54.740  1.00  0.00     0.034 C 
ENDBRANCH  32  36
ENDBRANCH  31  32
ENDBRANCH  30  31
ENDBRANCH  29  30
ENDBRANCH  12  29
TORSDOF 13
ENDMDL
MODEL 4
REMARK VINA RESULT:      -6.6      5.347      8.632
REMARK  13 active torsions:
REMARK  status: ('A' for Active; 'I' for Inactive)
REMARK    1  A    between atoms: C_2  and  N_3 
REMARK    2  A    between atoms: N_3  and  C_5 
REMARK    3  A    between atoms: N_3  and  C_34 
REMARK    4  A    between atoms: C_5  and  C_6 
REMARK    5  A    between atoms: C_6  and  O_7 
REMARK    6  A    between atoms: O_7  and  C_8 
REMARK    7  A    between atoms: N_15  and  N_16 
REMARK    8  A    between atoms: C_20  and  O_21 
REMARK    9  A    between atoms: O_21  and  C_22 
REMARK   10  A    between atoms: C_22  and  C_23 
REMARK   11  A    between atoms: C_23  and  N_24 
REMARK   12  A    between atoms: N_24  and  C_26 
REMARK   13  A    between atoms: N_24  and  C_28 
ROOT
HETATM    1  C   UNL     1     -43.254  55.566 -54.947  1.00  0.00     0.087 A 
HETATM    2  C   UNL     1     -43.437  56.671 -55.810  1.00  0.00     0.045 A 
HETATM    3 BR   UNL     1     -42.932  56.562 -57.641  1.00  0.00    -0.048 Br
HETATM    4  C   UNL     1     -44.010  57.869 -55.359  1.00  0.00     0.035 A 
HETATM    5  C   UNL     1     -44.381  57.958 -54.027  1.00  0.00    -0.011 A 
HETATM    6  C   UNL     1     -44.162  56.869 -53.160  1.00  0.00     0.009 A 
HETATM    7  C   UNL     1     -44.642  57.280 -51.812  1.00  0.00     0.093 A 
HETATM    8  N   UNL     1     -44.661  56.682 -50.662  1.00  0.00    -0.203 NA
HETATM    9  C   UNL     1     -45.170  58.656 -51.961  1.00  0.00     0.009 A 
HETATM   10  C   UNL     1     -45.004  59.042 -53.295  1.00  0.00    -0.011 A 
HETATM   11  C   UNL     1     -45.740  59.466 -50.990  1.00  0.00     0.053 A 
HETATM   12  C   UNL     1     -46.163  60.738 -51.377  1.00  0.00     0.087 A 
HETATM   13  C   UNL     1     -46.022  61.135 -52.731  1.00  0.00     0.045 A 
HETATM   14 BR   UNL     1     -46.615  62.852 -53.299  1.00  0.00    -0.048 Br
HETATM   15  C   UNL     1     -45.438  60.295 -53.695  1.00  0.00     0.035 A 
HETATM   16  C   UNL     1     -43.605  55.677 -53.598  1.00  0.00     0.053 A 
ENDROOT
BRANCH   1  17
HETATM   17  O   UNL     1     -42.696  54.431 -55.488  1.00  0.00    -0.348 OA
BRANCH  17  18
HETATM   18  C   UNL     1     -41.346  54.149 -55.099  1.00  0.00     0.203 C 
BRANCH  18  19
HETATM   19  C   UNL     1     -41.345  52.811 -54.347  1.00  0.00     0.261 C 
BRANCH  19  20
HETATM   20  N   UNL     1     -40.188  52.717 -53.354  1.00  0.00    -0.070 N 
HETATM   21  H   UNL     1     -39.399  53.175 -53.839  1.00  0.00     0.279 HD
BRANCH  20  22
HETATM   22  C   UNL     1     -39.758  51.286 -53.079  1.00  0.00     0.230 C 
HETATM   23  C   UNL     1     -39.902  50.427 -54.322  1.00  0.00     0.034 C 
ENDBRANCH  20  22
BRANCH  20  24
HETATM   24  C   UNL     1     -40.363  53.518 -52.077  1.00  0.00     0.230 C 
HETATM   25  C   UNL     1     -40.360  52.643 -50.837  1.00  0.00     0.034 C 
ENDBRANCH  20  24
ENDBRANCH  19  20
ENDBRANCH  18  19
ENDBRANCH  17  18
ENDBRANCH   1  17
BRANCH   8  26
HETATM   26  N   UNL     1     -44.134  55.444 -50.601  1.00  0.00    -0.226 NA
HETATM   27  H   UNL     1     -43.308  55.415 -51.211  1.00  0.00     0.145 HD
HETATM   28  H   UNL     1     -44.769  54.796 -51.081  1.00  0.00     0.145 HD
ENDBRANCH   8  26
BRANCH  12  29
HETATM   29  O   UNL     1     -46.747  61.637 -50.516  1.00  0.00    -0.348 OA
BRANCH  29  30
HETATM   30  C   UNL     1     -45.864  62.346 -49.641  1.00  0.00     0.203 C 
BRANCH  30  31
HETATM   31  C   UNL     1     -46.614  62.613 -48.331  1.00  0.00     0.261 C 
BRANCH  31  32
HETATM   32  N   UNL     1     -45.737  62.366 -47.100  1.00  0.00    -0.070 N 
HETATM   33  H   UNL     1     -44.895  62.937 -47.282  1.00  0.00     0.279 HD
BRANCH  32  34
HETATM   34  C   UNL     1     -46.300  62.895 -45.796  1.00  0.00     0.230 C 
HETATM   35  C   UNL     1     -45.257  63.596 -44.945  1.00  0.00     0.034 C 
ENDBRANCH  32  34
BRANCH  32  36
HETATM   36  C   UNL     1     -45.265  60.923 -47.068  1.00  0.00     0.230 C 
HETATM   37  C   UNL     1     -46.206  60.035 -46.275  1.00  0.00     0.034 C 
ENDBRANCH  32  36
ENDBRANCH  31  32
ENDBRANCH  30  31
ENDBRANCH  29  30
ENDBRANCH  12  29
TORSDOF 13
ENDMDL
MODEL 5
REMARK VINA RESULT:      -6.6      2.968      9.236
REMARK  13 active torsions:
REMARK  status: ('A' for Active; 'I' for Inactive)
REMARK    1  A    between atoms: C_2  and  N_3 
REMARK    2  A    between atoms: N_3  and  C_5 
REMARK    3  A    between atoms: N_3  and  C_34 
REMARK    4  A    between atoms: C_5  and  C_6 
REMARK    5  A    between atoms: C_6  and  O_7 
REMARK    6  A    between atoms: O_7  and  C_8 
REMARK    7  A    between atoms: N_15  and  N_16 
REMARK    8  A    between atoms: C_20  and  O_21 
REMARK    9  A    between atoms: O_21  and  C_22 
REMARK   10  A    between atoms: C_22  and  C_23 
REMARK   11  A    between atoms: C_23  and  N_24 
REMARK   12  A    between atoms: N_24  and  C_26 
REMARK   13  A    between atoms: N_24  and  C_28 
ROOT
HETATM    1  C   UNL     1     -40.959  55.077 -53.462  1.00  0.00     0.087 A 
HETATM    2  C   UNL     1     -41.315  54.023 -54.334  1.00  0.00     0.045 A 
HETATM    3 BR   UNL     1     -40.985  52.213 -53.850  1.00  0.00    -0.048 Br
HETATM    4  C   UNL     1     -41.937  54.268 -55.567  1.00  0.00     0.035 A 
HETATM    5  C   UNL     1     -42.182  55.583 -55.929  1.00  0.00    -0.011 A 
HETATM    6  C   UNL     1     -41.790  56.634 -55.075  1.00  0.00     0.009 A 
HETATM    7  C   UNL     1     -42.167  57.908 -55.746  1.00  0.00     0.093 A 
HETATM    8  N   UNL     1     -42.024  59.154 -55.419  1.00  0.00    -0.203 NA
HETATM    9  C   UNL     1     -42.818  57.527 -57.022  1.00  0.00     0.009 A 
HETATM   10  C   UNL     1     -42.816  56.131 -57.110  1.00  0.00    -0.011 A 
HETATM   11  C   UNL     1     -43.354  58.360 -57.993  1.00  0.00     0.053 A 
HETATM   12  C   UNL     1     -43.915  57.759 -59.121  1.00  0.00     0.087 A 
HETATM   13  C   UNL     1     -43.941  56.345 -59.214  1.00  0.00     0.045 A 
HETATM   14 BR   UNL     1     -44.725  55.492 -60.723  1.00  0.00    -0.048 Br
HETATM   15  C   UNL     1     -43.388  55.524 -58.216  1.00  0.00     0.035 A 
HETATM   16  C   UNL     1     -41.183  56.402 -53.850  1.00  0.00     0.053 A 
ENDROOT
BRANCH   1  17
HETATM   17  O   UNL     1     -40.365  54.733 -52.270  1.00  0.00    -0.348 OA
BRANCH  17  18
HETATM   18  C   UNL     1     -41.240  54.631 -51.140  1.00  0.00     0.203 C 
BRANCH  18  19
HETATM   19  C   UNL     1     -40.991  55.850 -50.242  1.00  0.00     0.261 C 
BRANCH  19  20
HETATM   20  N   UNL     1     -42.159  56.834 -50.281  1.00  0.00    -0.070 N 
HETATM   21  H   UNL     1     -42.366  57.022 -49.286  1.00  0.00     0.279 HD
BRANCH  20  22
HETATM   22  C   UNL     1     -43.419  56.236 -50.882  1.00  0.00     0.230 C 
HETATM   23  C   UNL     1     -44.158  57.261 -51.724  1.00  0.00     0.034 C 
ENDBRANCH  20  22
BRANCH  20  24
HETATM   24  C   UNL     1     -41.838  58.199 -50.862  1.00  0.00     0.230 C 
HETATM   25  C   UNL     1     -40.354  58.512 -50.826  1.00  0.00     0.034 C 
ENDBRANCH  20  24
ENDBRANCH  19  20
ENDBRANCH  18  19
ENDBRANCH  17  18
ENDBRANCH   1  17
BRANCH   8  26
HETATM   26  N   UNL     1     -41.394  59.420 -54.259  1.00  0.00    -0.226 NA
HETATM   27  H   UNL     1     -40.483  58.944 -54.271  1.00  0.00     0.145 HD
HETATM   28  H   UNL     1     -41.879  58.921 -53.504  1.00  0.00     0.145 HD
ENDBRANCH   8  26
BRANCH  12  29
HETATM   29  O   UNL     1     -44.484  58.468 -60.153  1.00  0.00    -0.348 OA
BRANCH  29  30
HETATM   30  C   UNL     1     -44.401  59.894 -60.066  1.00  0.00     0.203 C 
BRANCH  30  31
HETATM   31  C   UNL     1     -45.830  60.450 -60.081  1.00  0.00     0.261 C 
BRANCH  31  32
HETATM   32  N   UNL     1     -46.879  59.355 -59.864  1.00  0.00    -0.070 N 
HETATM   33  H   UNL     1     -46.331  58.480 -59.902  1.00  0.00     0.279 HD
BRANCH  32  34
HETATM   34  C   UNL     1     -47.530  59.355 -58.495  1.00  0.00     0.230 C 
HETATM   35  C   UNL     1     -47.214  58.106 -57.692  1.00  0.00     0.034 C 
ENDBRANCH  32  34
BRANCH  32  36
HETATM   36  C   UNL     1     -47.837  59.300 -61.040  1.00  0.00     0.230 C 
HETATM   37  C   UNL     1     -48.018  57.886 -61.560  1.00  0.00     0.034 C 
ENDBRANCH  32  36
ENDBRANCH  31  32
ENDBRANCH  30  31
ENDBRANCH  29  30
ENDBRANCH  12  29
TORSDOF 13
ENDMDL
MODEL 6
REMARK VINA RESULT:      -6.5      5.603      8.742
REMARK  13 active torsions:
REMARK  status: ('A' for Active; 'I' for Inactive)
REMARK    1  A    between atoms: C_2  and  N_3 
REMARK    2  A    between atoms: N_3  and  C_5 
REMARK    3  A    between atoms: N_3  and  C_34 
REMARK    4  A    between atoms: C_5  and  C_6 
REMARK    5  A    between atoms: C_6  and  O_7 
REMARK    6  A    between atoms: O_7  and  C_8 
REMARK    7  A    between atoms: N_15  and  N_16 
REMARK    8  A    between atoms: C_20  and  O_21 
REMARK    9  A    between atoms: O_21  and  C_22 
REMARK   10  A    between atoms: C_22  and  C_23 
REMARK   11  A    between atoms: C_23  and  N_24 
REMARK   12  A    between atoms: N_24  and  C_26 
REMARK   13  A    between atoms: N_24  and  C_28 
ROOT
HETATM    1  C   UNL     1     -43.216  55.961 -54.861  1.00  0.00     0.087 A 
HETATM    2  C   UNL     1     -43.311  57.122 -55.662  1.00  0.00     0.045 A 
HETATM    3 BR   UNL     1     -42.677  57.114 -57.456  1.00  0.00    -0.048 Br
HETATM    4  C   UNL     1     -43.890  58.305 -55.178  1.00  0.00     0.035 A 
HETATM    5  C   UNL     1     -44.355  58.321 -53.873  1.00  0.00    -0.011 A 
HETATM    6  C   UNL     1     -44.223  57.175 -53.063  1.00  0.00     0.009 A 
HETATM    7  C   UNL     1     -44.790  57.514 -51.729  1.00  0.00     0.093 A 
HETATM    8  N   UNL     1     -44.906  56.846 -50.624  1.00  0.00    -0.203 NA
HETATM    9  C   UNL     1     -45.276  58.910 -51.828  1.00  0.00     0.009 A 
HETATM   10  C   UNL     1     -45.005  59.373 -53.119  1.00  0.00    -0.011 A 
HETATM   11  C   UNL     1     -45.897  59.672 -50.850  1.00  0.00     0.053 A 
HETATM   12  C   UNL     1     -46.263  60.977 -51.184  1.00  0.00     0.087 A 
HETATM   13  C   UNL     1     -46.015  61.454 -52.496  1.00  0.00     0.045 A 
HETATM   14 BR   UNL     1     -46.528  63.217 -52.995  1.00  0.00    -0.048 Br
HETATM   15  C   UNL     1     -45.381  60.660 -53.468  1.00  0.00     0.035 A 
HETATM   16  C   UNL     1     -43.661  55.998 -53.535  1.00  0.00     0.053 A 
ENDROOT
BRANCH   1  17
HETATM   17  O   UNL     1     -42.645  54.849 -55.432  1.00  0.00    -0.348 OA
BRANCH  17  18
HETATM   18  C   UNL     1     -42.421  53.738 -54.555  1.00  0.00     0.203 C 
BRANCH  18  19
HETATM   19  C   UNL     1     -40.979  53.829 -54.041  1.00  0.00     0.261 C 
BRANCH  19  20
HETATM   20  N   UNL     1     -40.591  52.605 -53.213  1.00  0.00    -0.070 N 
HETATM   21  H   UNL     1     -41.472  52.074 -53.115  1.00  0.00     0.279 HD
BRANCH  20  22
HETATM   22  C   UNL     1     -40.137  52.958 -51.808  1.00  0.00     0.230 C 
HETATM   23  C   UNL     1     -41.004  54.054 -51.216  1.00  0.00     0.034 C 
ENDBRANCH  20  22
BRANCH  20  24
HETATM   24  C   UNL     1     -39.642  51.635 -53.895  1.00  0.00     0.230 C 
HETATM   25  C   UNL     1     -40.334  50.359 -54.337  1.00  0.00     0.034 C 
ENDBRANCH  20  24
ENDBRANCH  19  20
ENDBRANCH  18  19
ENDBRANCH  17  18
ENDBRANCH   1  17
BRANCH   8  26
HETATM   26  N   UNL     1     -44.412  55.593 -50.605  1.00  0.00    -0.226 NA
HETATM   27  H   UNL     1     -44.827  55.072 -51.387  1.00  0.00     0.145 HD
HETATM   28  H   UNL     1     -44.805  55.101 -49.795  1.00  0.00     0.145 HD
ENDBRANCH   8  26
BRANCH  12  29
HETATM   29  O   UNL     1     -46.888  61.836 -50.311  1.00  0.00    -0.348 OA
BRANCH  29  30
HETATM   30  C   UNL     1     -46.214  62.089 -49.074  1.00  0.00     0.203 C 
BRANCH  30  31
HETATM   31  C   UNL     1     -47.220  62.732 -48.113  1.00  0.00     0.261 C 
BRANCH  31  32
HETATM   32  N   UNL     1     -47.188  62.085 -46.725  1.00  0.00    -0.070 N 
HETATM   33  H   UNL     1     -48.063  61.535 -46.692  1.00  0.00     0.279 HD
BRANCH  32  34
HETATM   34  C   UNL     1     -46.078  61.076 -46.514  1.00  0.00     0.230 C 
HETATM   35  C   UNL     1     -46.587  59.733 -46.022  1.00  0.00     0.034 C 
ENDBRANCH  32  34
BRANCH  32  36
HETATM   36  C   UNL     1     -47.320  63.145 -45.645  1.00  0.00     0.230 C 
HETATM   37  C   UNL     1     -46.920  64.520 -46.146  1.00  0.00     0.034 C 
ENDBRANCH  32  36
ENDBRANCH  31  32
ENDBRANCH  30  31
ENDBRANCH  29  30
ENDBRANCH  12  29
TORSDOF 13
ENDMDL
MODEL 7
REMARK VINA RESULT:      -6.5      5.250      8.353
REMARK  13 active torsions:
REMARK  status: ('A' for Active; 'I' for Inactive)
REMARK    1  A    between atoms: C_2  and  N_3 
REMARK    2  A    between atoms: N_3  and  C_5 
REMARK    3  A    between atoms: N_3  and  C_34 
REMARK    4  A    between atoms: C_5  and  C_6 
REMARK    5  A    between atoms: C_6  and  O_7 
REMARK    6  A    between atoms: O_7  and  C_8 
REMARK    7  A    between atoms: N_15  and  N_16 
REMARK    8  A    between atoms: C_20  and  O_21 
REMARK    9  A    between atoms: O_21  and  C_22 
REMARK   10  A    between atoms: C_22  and  C_23 
REMARK   11  A    between atoms: C_23  and  N_24 
REMARK   12  A    between atoms: N_24  and  C_26 
REMARK   13  A    between atoms: N_24  and  C_28 
ROOT
HETATM    1  C   UNL     1     -44.844  60.933 -50.778  1.00  0.00     0.087 A 
HETATM    2  C   UNL     1     -45.583  60.566 -51.926  1.00  0.00     0.045 A 
HETATM    3 BR   UNL     1     -47.246  61.404 -52.315  1.00  0.00    -0.048 Br
HETATM    4  C   UNL     1     -45.114  59.595 -52.823  1.00  0.00     0.035 A 
HETATM    5  C   UNL     1     -43.904  58.979 -52.548  1.00  0.00    -0.011 A 
HETATM    6  C   UNL     1     -43.188  59.318 -51.382  1.00  0.00     0.009 A 
HETATM    7  C   UNL     1     -41.959  58.479 -51.362  1.00  0.00     0.093 A 
HETATM    8  N   UNL     1     -40.976  58.373 -50.524  1.00  0.00    -0.203 NA
HETATM    9  C   UNL     1     -41.999  57.656 -52.594  1.00  0.00     0.009 A 
HETATM   10  C   UNL     1     -43.171  57.972 -53.289  1.00  0.00    -0.011 A 
HETATM   11  C   UNL     1     -41.069  56.726 -53.034  1.00  0.00     0.053 A 
HETATM   12  C   UNL     1     -41.333  56.069 -54.237  1.00  0.00     0.087 A 
HETATM   13  C   UNL     1     -42.507  56.394 -54.964  1.00  0.00     0.045 A 
HETATM   14 BR   UNL     1     -42.882  55.540 -56.622  1.00  0.00    -0.048 Br
HETATM   15  C   UNL     1     -43.433  57.340 -54.492  1.00  0.00     0.035 A 
HETATM   16  C   UNL     1     -43.638  60.284 -50.494  1.00  0.00     0.053 A 
ENDROOT
BRANCH   1  17
HETATM   17  O   UNL     1     -45.383  61.905 -49.968  1.00  0.00    -0.348 OA
BRANCH  17  18
HETATM   18  C   UNL     1     -45.120  61.772 -48.566  1.00  0.00     0.203 C 
BRANCH  18  19
HETATM   19  C   UNL     1     -46.470  61.705 -47.840  1.00  0.00     0.261 C 
BRANCH  19  20
HETATM   20  N   UNL     1     -46.315  61.255 -46.389  1.00  0.00    -0.070 N 
HETATM   21  H   UNL     1     -47.207  61.526 -45.942  1.00  0.00     0.279 HD
BRANCH  20  22
HETATM   22  C   UNL     1     -45.215  61.997 -45.651  1.00  0.00     0.230 C 
HETATM   23  C   UNL     1     -44.339  61.035 -44.870  1.00  0.00     0.034 C 
ENDBRANCH  20  22
BRANCH  20  24
HETATM   24  C   UNL     1     -46.233  59.753 -46.181  1.00  0.00     0.230 C 
HETATM   25  C   UNL     1     -47.548  59.158 -45.715  1.00  0.00     0.034 C 
ENDBRANCH  20  24
ENDBRANCH  19  20
ENDBRANCH  18  19
ENDBRANCH  17  18
ENDBRANCH   1  17
BRANCH   8  26
HETATM   26  N   UNL     1     -41.027  59.132 -49.412  1.00  0.00    -0.226 NA
HETATM   27  H   UNL     1     -41.808  58.800 -48.833  1.00  0.00     0.145 HD
HETATM   28  H   UNL     1     -41.347  60.071 -49.674  1.00  0.00     0.145 HD
ENDBRANCH   8  26
BRANCH  12  29
HETATM   29  O   UNL     1     -40.494  55.129 -54.787  1.00  0.00    -0.348 OA
BRANCH  29  30
HETATM   30  C   UNL     1     -40.199  53.987 -53.976  1.00  0.00     0.203 C 
BRANCH  30  31
HETATM   31  C   UNL     1     -41.512  53.500 -53.354  1.00  0.00     0.261 C 
BRANCH  31  32
HETATM   32  N   UNL     1     -41.359  53.161 -51.869  1.00  0.00    -0.070 N 
HETATM   33  H   UNL     1     -41.620  52.163 -51.817  1.00  0.00     0.279 HD
BRANCH  32  34
HETATM   34  C   UNL     1     -39.940  53.227 -51.340  1.00  0.00     0.230 C 
HETATM   35  C   UNL     1     -39.841  53.936 -50.002  1.00  0.00     0.034 C 
ENDBRANCH  32  34
BRANCH  32  36
HETATM   36  C   UNL     1     -42.395  53.907 -51.046  1.00  0.00     0.230 C 
HETATM   37  C   UNL     1     -43.612  54.283 -51.871  1.00  0.00     0.034 C 
ENDBRANCH  32  36
ENDBRANCH  31  32
ENDBRANCH  30  31
ENDBRANCH  29  30
ENDBRANCH  12  29
TORSDOF 13
ENDMDL
MODEL 8
REMARK VINA RESULT:      -6.4      1.366      8.700
REMARK  13 active torsions:
REMARK  status: ('A' for Active; 'I' for Inactive)
REMARK    1  A    between atoms: C_2  and  N_3 
REMARK    2  A    between atoms: N_3  and  C_5 
REMARK    3  A    between atoms: N_3  and  C_34 
REMARK    4  A    between atoms: C_5  and  C_6 
REMARK    5  A    between atoms: C_6  and  O_7 
REMARK    6  A    between atoms: O_7  and  C_8 
REMARK    7  A    between atoms: N_15  and  N_16 
REMARK    8  A    between atoms: C_20  and  O_21 
REMARK    9  A    between atoms: O_21  and  C_22 
REMARK   10  A    between atoms: C_22  and  C_23 
REMARK   11  A    between atoms: C_23  and  N_24 
REMARK   12  A    between atoms: N_24  and  C_26 
REMARK   13  A    between atoms: N_24  and  C_28 
ROOT
HETATM    1  C   UNL     1     -41.538  57.217 -52.307  1.00  0.00     0.087 A 
HETATM    2  C   UNL     1     -41.465  58.629 -52.337  1.00  0.00     0.045 A 
HETATM    3 BR   UNL     1     -41.078  59.612 -50.755  1.00  0.00    -0.048 Br
HETATM    4  C   UNL     1     -41.653  59.350 -53.526  1.00  0.00     0.035 A 
HETATM    5  C   UNL     1     -41.936  58.643 -54.684  1.00  0.00    -0.011 A 
HETATM    6  C   UNL     1     -42.047  57.239 -54.643  1.00  0.00     0.009 A 
HETATM    7  C   UNL     1     -42.374  56.785 -56.023  1.00  0.00     0.093 A 
HETATM    8  N   UNL     1     -42.600  55.617 -56.538  1.00  0.00    -0.203 NA
HETATM    9  C   UNL     1     -42.420  58.006 -56.860  1.00  0.00     0.009 A 
HETATM   10  C   UNL     1     -42.155  59.107 -56.039  1.00  0.00    -0.011 A 
HETATM   11  C   UNL     1     -42.674  58.104 -58.220  1.00  0.00     0.053 A 
HETATM   12  C   UNL     1     -42.667  59.379 -58.789  1.00  0.00     0.087 A 
HETATM   13  C   UNL     1     -42.377  60.502 -57.973  1.00  0.00     0.045 A 
HETATM   14 BR   UNL     1     -42.330  62.251 -58.721  1.00  0.00    -0.048 Br
HETATM   15  C   UNL     1     -42.126  60.374 -56.596  1.00  0.00     0.035 A 
HETATM   16  C   UNL     1     -41.854  56.516 -53.476  1.00  0.00     0.053 A 
ENDROOT
BRANCH   1  17
HETATM   17  O   UNL     1     -41.326  56.603 -51.096  1.00  0.00    -0.348 OA
BRANCH  17  18
HETATM   18  C   UNL     1     -42.419  55.832 -50.582  1.00  0.00     0.203 C 
BRANCH  18  19
HETATM   19  C   UNL     1     -41.931  54.388 -50.404  1.00  0.00     0.261 C 
BRANCH  19  20
HETATM   20  N   UNL     1     -40.421  54.268 -50.601  1.00  0.00    -0.070 N 
HETATM   21  H   UNL     1     -40.161  55.130 -51.108  1.00  0.00     0.279 HD
BRANCH  20  22
HETATM   22  C   UNL     1     -40.030  53.103 -51.493  1.00  0.00     0.230 C 
HETATM   23  C   UNL     1     -40.785  53.149 -52.809  1.00  0.00     0.034 C 
ENDBRANCH  20  22
BRANCH  20  24
HETATM   24  C   UNL     1     -39.596  54.317 -49.328  1.00  0.00     0.230 C 
HETATM   25  C   UNL     1     -40.394  53.916 -48.101  1.00  0.00     0.034 C 
ENDBRANCH  20  24
ENDBRANCH  19  20
ENDBRANCH  18  19
ENDBRANCH  17  18
ENDBRANCH   1  17
BRANCH   8  26
HETATM   26  N   UNL     1     -42.570  54.559 -55.705  1.00  0.00    -0.226 NA
HETATM   27  H   UNL     1     -41.607  54.443 -55.366  1.00  0.00     0.145 HD
HETATM   28  H   UNL     1     -42.700  53.705 -56.259  1.00  0.00     0.145 HD
ENDBRANCH   8  26
BRANCH  12  29
HETATM   29  O   UNL     1     -42.898  59.615 -60.124  1.00  0.00    -0.348 OA
BRANCH  29  30
HETATM   30  C   UNL     1     -44.048  58.980 -60.692  1.00  0.00     0.203 C 
BRANCH  30  31
HETATM   31  C   UNL     1     -45.291  59.722 -60.190  1.00  0.00     0.261 C 
BRANCH  31  32
HETATM   32  N   UNL     1     -46.324  58.773 -59.577  1.00  0.00    -0.070 N 
HETATM   33  H   UNL     1     -47.144  58.868 -60.199  1.00  0.00     0.279 HD
BRANCH  32  34
HETATM   34  C   UNL     1     -45.955  57.304 -59.630  1.00  0.00     0.230 C 
HETATM   35  C   UNL     1     -47.042  56.445 -60.250  1.00  0.00     0.034 C 
ENDBRANCH  32  34
BRANCH  32  36
HETATM   36  C   UNL     1     -46.770  59.283 -58.218  1.00  0.00     0.230 C 
HETATM   37  C   UNL     1     -46.144  58.496 -57.082  1.00  0.00     0.034 C 
ENDBRANCH  32  36
ENDBRANCH  31  32
ENDBRANCH  30  31
ENDBRANCH  29  30
ENDBRANCH  12  29
TORSDOF 13
ENDMDL
MODEL 9
REMARK VINA RESULT:      -6.4      2.966      4.363
REMARK  13 active torsions:
REMARK  status: ('A' for Active; 'I' for Inactive)
REMARK    1  A    between atoms: C_2  and  N_3 
REMARK    2  A    between atoms: N_3  and  C_5 
REMARK    3  A    between atoms: N_3  and  C_34 
REMARK    4  A    between atoms: C_5  and  C_6 
REMARK    5  A    between atoms: C_6  and  O_7 
REMARK    6  A    between atoms: O_7  and  C_8 
REMARK    7  A    between atoms: N_15  and  N_16 
REMARK    8  A    between atoms: C_20  and  O_21 
REMARK    9  A    between atoms: O_21  and  C_22 
REMARK   10  A    between atoms: C_22  and  C_23 
REMARK   11  A    between atoms: C_23  and  N_24 
REMARK   12  A    between atoms: N_24  and  C_26 
REMARK   13  A    between atoms: N_24  and  C_28 
ROOT
HETATM    1  C   UNL     1     -44.136  57.374 -59.093  1.00  0.00     0.087 A 
HETATM    2  C   UNL     1     -44.030  55.968 -59.186  1.00  0.00     0.045 A 
HETATM    3 BR   UNL     1     -44.687  55.047 -60.716  1.00  0.00    -0.048 Br
HETATM    4  C   UNL     1     -43.425  55.207 -58.174  1.00  0.00     0.035 A 
HETATM    5  C   UNL     1     -42.944  55.869 -57.056  1.00  0.00    -0.011 A 
HETATM    6  C   UNL     1     -43.086  57.267 -56.948  1.00  0.00     0.009 A 
HETATM    7  C   UNL     1     -42.497  57.667 -55.641  1.00  0.00     0.093 A 
HETATM    8  N   UNL     1     -42.379  58.809 -55.039  1.00  0.00    -0.203 NA
HETATM    9  C   UNL     1     -41.988  56.423 -55.017  1.00  0.00     0.009 A 
HETATM   10  C   UNL     1     -42.266  55.359 -55.882  1.00  0.00    -0.011 A 
HETATM   11  C   UNL     1     -41.341  56.278 -53.799  1.00  0.00     0.053 A 
HETATM   12  C   UNL     1     -40.956  54.990 -53.422  1.00  0.00     0.087 A 
HETATM   13  C   UNL     1     -41.212  53.904 -54.298  1.00  0.00     0.045 A 
HETATM   14 BR   UNL     1     -40.674  52.140 -53.829  1.00  0.00    -0.048 Br
HETATM   15  C   UNL     1     -41.872  54.081 -55.527  1.00  0.00     0.035 A 
HETATM   16  C   UNL     1     -43.674  58.028 -57.947  1.00  0.00     0.053 A 
ENDROOT
BRANCH   1  17
HETATM   17  O   UNL     1     -44.734  58.030 -60.144  1.00  0.00    -0.348 OA
BRANCH  17  18
HETATM   18  C   UNL     1     -45.597  59.119 -59.795  1.00  0.00     0.203 C 
BRANCH  18  19
HETATM   19  C   UNL     1     -47.045  58.647 -59.980  1.00  0.00     0.261 C 
BRANCH  19  20
HETATM   20  N   UNL     1     -47.331  58.237 -61.423  1.00  0.00    -0.070 N 
HETATM   21  H   UNL     1     -46.401  58.224 -61.873  1.00  0.00     0.279 HD
BRANCH  20  22
HETATM   22  C   UNL     1     -48.164  59.259 -62.177  1.00  0.00     0.230 C 
HETATM   23  C   UNL     1     -48.833  60.228 -61.219  1.00  0.00     0.034 C 
ENDBRANCH  20  22
BRANCH  20  24
HETATM   24  C   UNL     1     -47.856  56.824 -61.604  1.00  0.00     0.230 C 
HETATM   25  C   UNL     1     -49.102  56.773 -62.470  1.00  0.00     0.034 C 
ENDBRANCH  20  24
ENDBRANCH  19  20
ENDBRANCH  18  19
ENDBRANCH  17  18
ENDBRANCH   1  17
BRANCH   8  26
HETATM   26  N   UNL     1     -42.895  59.889 -55.656  1.00  0.00    -0.226 NA
HETATM   27  H   UNL     1     -43.918  59.795 -55.669  1.00  0.00     0.145 HD
HETATM   28  H   UNL     1     -42.668  59.832 -56.656  1.00  0.00     0.145 HD
ENDBRANCH   8  26
BRANCH  12  29
HETATM   29  O   UNL     1     -40.305  54.708 -52.245  1.00  0.00    -0.348 OA
BRANCH  29  30
HETATM   30  C   UNL     1     -41.124  54.599 -51.075  1.00  0.00     0.203 C 
BRANCH  30  31
HETATM   31  C   UNL     1     -40.875  55.840 -50.210  1.00  0.00     0.261 C 
BRANCH  31  32
HETATM   32  N   UNL     1     -42.061  56.809 -50.234  1.00  0.00    -0.070 N 
HETATM   33  H   UNL     1     -42.248  56.991 -49.234  1.00  0.00     0.279 HD
BRANCH  32  34
HETATM   34  C   UNL     1     -41.764  58.169 -50.834  1.00  0.00     0.230 C 
HETATM   35  C   UNL     1     -40.282  58.490 -50.865  1.00  0.00     0.034 C 
ENDBRANCH  32  34
BRANCH  32  36
HETATM   36  C   UNL     1     -43.300  56.116 -50.772  1.00  0.00     0.230 C 
HETATM   37  C   UNL     1     -44.218  57.079 -51.501  1.00  0.00     0.034 C 
ENDBRANCH  32  36
ENDBRANCH  31  32
ENDBRANCH  30  31
ENDBRANCH  29  30
ENDBRANCH  12  29
TORSDOF 13
ENDMDL
MODEL 10
REMARK VINA RESULT:      -6.4      3.368      4.930
REMARK  13 active torsions:
REMARK  status: ('A' for Active; 'I' for Inactive)
REMARK    1  A    between atoms: C_2  and  N_3 
REMARK    2  A    between atoms: N_3  and  C_5 
REMARK    3  A    between atoms: N_3  and  C_34 
REMARK    4  A    between atoms: C_5  and  C_6 
REMARK    5  A    between atoms: C_6  and  O_7 
REMARK    6  A    between atoms: O_7  and  C_8 
REMARK    7  A    between atoms: N_15  and  N_16 
REMARK    8  A    between atoms: C_20  and  O_21 
REMARK    9  A    between atoms: O_21  and  C_22 
REMARK   10  A    between atoms: C_22  and  C_23 
REMARK   11  A    between atoms: C_23  and  N_24 
REMARK   12  A    between atoms: N_24  and  C_26 
REMARK   13  A    between atoms: N_24  and  C_28 
ROOT
HETATM    1  C   UNL     1     -43.526  58.071 -59.531  1.00  0.00     0.087 A 
HETATM    2  C   UNL     1     -43.798  56.705 -59.287  1.00  0.00     0.045 A 
HETATM    3 BR   UNL     1     -44.607  55.624 -60.627  1.00  0.00    -0.048 Br
HETATM    4  C   UNL     1     -43.466  56.096 -58.067  1.00  0.00     0.035 A 
HETATM    5  C   UNL     1     -42.877  56.875 -57.084  1.00  0.00    -0.011 A 
HETATM    6  C   UNL     1     -42.642  58.245 -57.316  1.00  0.00     0.009 A 
HETATM    7  C   UNL     1     -42.027  58.800 -56.079  1.00  0.00     0.093 A 
HETATM    8  N   UNL     1     -41.635  59.989 -55.745  1.00  0.00    -0.203 NA
HETATM    9  C   UNL     1     -41.901  57.665 -55.135  1.00  0.00     0.009 A 
HETATM   10  C   UNL     1     -42.415  56.523 -55.757  1.00  0.00    -0.011 A 
HETATM   11  C   UNL     1     -41.374  57.672 -53.852  1.00  0.00     0.053 A 
HETATM   12  C   UNL     1     -41.367  56.466 -53.149  1.00  0.00     0.087 A 
HETATM   13  C   UNL     1     -41.864  55.295 -53.775  1.00  0.00     0.045 A 
HETATM   14 BR   UNL     1     -41.843  53.628 -52.858  1.00  0.00    -0.048 Br
HETATM   15  C   UNL     1     -42.395  55.317 -55.077  1.00  0.00     0.035 A 
HETATM   16  C   UNL     1     -42.957  58.854 -58.521  1.00  0.00     0.053 A 
ENDROOT
BRANCH   1  17
HETATM   17  O   UNL     1     -43.876  58.570 -60.763  1.00  0.00    -0.348 OA
BRANCH  17  18
HETATM   18  C   UNL     1     -44.652  59.775 -60.755  1.00  0.00     0.203 C 
BRANCH  18  19
HETATM   19  C   UNL     1     -46.086  59.406 -60.352  1.00  0.00     0.261 C 
BRANCH  19  20
HETATM   20  N   UNL     1     -46.554  60.190 -59.128  1.00  0.00    -0.070 N 
HETATM   21  H   UNL     1     -47.532  60.442 -59.345  1.00  0.00     0.279 HD
BRANCH  20  22
HETATM   22  C   UNL     1     -45.801  61.495 -58.935  1.00  0.00     0.230 C 
HETATM   23  C   UNL     1     -45.281  61.618 -57.514  1.00  0.00     0.034 C 
ENDBRANCH  20  22
BRANCH  20  24
HETATM   24  C   UNL     1     -46.649  59.389 -57.842  1.00  0.00     0.230 C 
HETATM   25  C   UNL     1     -46.991  57.931 -58.090  1.00  0.00     0.034 C 
ENDBRANCH  20  24
ENDBRANCH  19  20
ENDBRANCH  18  19
ENDBRANCH  17  18
ENDBRANCH   1  17
BRANCH   8  26
HETATM   26  N   UNL     1     -41.813  60.974 -56.647  1.00  0.00    -0.226 NA
HETATM   27  H   UNL     1     -42.753  60.875 -57.050  1.00  0.00     0.145 HD
HETATM   28  H   UNL     1     -41.217  60.781 -57.461  1.00  0.00     0.145 HD
ENDBRANCH   8  26
BRANCH  12  29
HETATM   29  O   UNL     1     -40.870  56.334 -51.874  1.00  0.00    -0.348 OA
BRANCH  29  30
HETATM   30  C   UNL     1     -41.295  57.314 -50.922  1.00  0.00     0.203 C 
BRANCH  30  31
HETATM   31  C   UNL     1     -42.827  57.296 -50.881  1.00  0.00     0.261 C 
BRANCH  31  32
HETATM   32  N   UNL     1     -43.421  58.706 -50.803  1.00  0.00    -0.070 N 
HETATM   33  H   UNL     1     -43.744  58.782 -49.824  1.00  0.00     0.279 HD
BRANCH  32  34
HETATM   34  C   UNL     1     -42.422  59.832 -50.978  1.00  0.00     0.230 C 
HETATM   35  C   UNL     1     -42.722  60.704 -52.183  1.00  0.00     0.034 C 
ENDBRANCH  32  34
BRANCH  32  36
HETATM   36  C   UNL     1     -44.669  58.802 -51.663  1.00  0.00     0.230 C 
HETATM   37  C   UNL     1     -44.760  57.663 -52.661  1.00  0.00     0.034 C 
ENDBRANCH  32  36
ENDBRANCH  31  32
ENDBRANCH  30  31
ENDBRANCH  29  30
ENDBRANCH  12  29
TORSDOF 13
ENDMDL
