MODEL 1
REMARK VINA RESULT:      -7.8      0.000      0.000
REMARK  9 active torsions:
REMARK  status: ('A' for Active; 'I' for Inactive)
REMARK    1  A    between atoms: C_2  and  N_3 
REMARK    2  A    between atoms: C_4  and  S_5 
REMARK    3  A    between atoms: S_5  and  C_6 
REMARK    4  A    between atoms: C_6  and  C_7 
REMARK       I    between atoms: C_7  and  N_8 
REMARK    5  A    between atoms: N_8  and  C_9 
REMARK    6  A    between atoms: C_9  and  C_10 
REMARK    7  A    between atoms: C_10  and  C_11 
REMARK    8  A    between atoms: C_20  and  C_21 
REMARK    9  A    between atoms: C_24  and  O_25 
ROOT
HETATM    1  N   UNL     1     -42.622  57.051 -54.251  1.00  0.00    -0.308 N 
HETATM    2  C   UNL     1     -41.813  56.717 -53.192  1.00  0.00     0.192 A 
HETATM    3  N   UNL     1     -40.883  55.883 -53.579  1.00  0.00    -0.122 NA
HETATM    4  N   UNL     1     -41.043  55.689 -54.919  1.00  0.00    -0.128 NA
HETATM    5  C   UNL     1     -42.085  56.390 -55.348  1.00  0.00     0.164 A 
ENDROOT
BRANCH   2   6
HETATM    6  S   UNL     1     -41.987  57.328 -51.583  1.00  0.00    -0.081 SA
BRANCH   6   7
HETATM    7  C   UNL     1     -43.309  56.262 -50.947  1.00  0.00     0.185 C 
BRANCH   7   8
HETATM    8  C   UNL     1     -42.875  54.811 -50.863  1.00  0.00     0.227 C 
HETATM    9  N   UNL     1     -41.677  54.593 -50.216  1.00  0.00    -0.360 N 
HETATM   10  H   UNL     1     -41.175  55.400 -49.844  1.00  0.00     0.162 HD
HETATM   11  O   UNL     1     -43.528  53.908 -51.383  1.00  0.00    -0.273 OA
BRANCH   9  12
HETATM   12  C   UNL     1     -41.022  53.301 -50.251  1.00  0.00     0.127 C 
BRANCH  12  13
HETATM   13  C   UNL     1     -39.823  53.282 -51.197  1.00  0.00     0.058 C 
BRANCH  13  14
HETATM   14  C   UNL     1     -39.886  52.114 -52.150  1.00  0.00    -0.057 A 
HETATM   15  C   UNL     1     -39.540  50.827 -51.715  1.00  0.00     0.007 A 
HETATM   16  C   UNL     1     -39.565  49.749 -52.601  1.00  0.00     0.001 A 
HETATM   17  C   UNL     1     -39.933  49.948 -53.930  1.00  0.00     0.000 A 
HETATM   18  C   UNL     1     -40.275  51.223 -54.374  1.00  0.00     0.001 A 
HETATM   19  C   UNL     1     -40.250  52.303 -53.489  1.00  0.00     0.007 A 
ENDBRANCH  13  14
ENDBRANCH  12  13
ENDBRANCH   9  12
ENDBRANCH   7   8
ENDBRANCH   6   7
ENDBRANCH   2   6
BRANCH   1  20
HETATM   20  C   UNL     1     -43.783  57.913 -54.192  1.00  0.00     0.128 C 
HETATM   21  C   UNL     1     -45.093  57.193 -54.454  1.00  0.00     0.027 C 
ENDBRANCH   1  20
BRANCH   5  22
HETATM   22  C   UNL     1     -42.466  56.448 -56.771  1.00  0.00     0.012 A 
HETATM   23  C   UNL     1     -43.056  55.304 -57.335  1.00  0.00     0.018 A 
HETATM   24  C   UNL     1     -43.483  55.282 -58.667  1.00  0.00     0.037 A 
HETATM   25  C   UNL     1     -43.332  56.405 -59.477  1.00  0.00     0.068 A 
HETATM   26  C   UNL     1     -42.754  57.550 -58.935  1.00  0.00     0.037 A 
HETATM   27  C   UNL     1     -42.340  57.573 -57.592  1.00  0.00     0.018 A 
BRANCH  25  28
HETATM   28  O   UNL     1     -43.794  56.259 -60.754  1.00  0.00    -0.356 OA
HETATM   29  C   UNL     1     -44.990  55.508 -60.927  1.00  0.00     0.210 C 
ENDBRANCH  25  28
ENDBRANCH   5  22
TORSDOF 9
ENDMDL
MODEL 2
REMARK VINA RESULT:      -7.5      3.319      6.659
REMARK  9 active torsions:
REMARK  status: ('A' for Active; 'I' for Inactive)
REMARK    1  A    between atoms: C_2  and  N_3 
REMARK    2  A    between atoms: C_4  and  S_5 
REMARK    3  A    between atoms: S_5  and  C_6 
REMARK    4  A    between atoms: C_6  and  C_7 
REMARK       I    between atoms: C_7  and  N_8 
REMARK    5  A    between atoms: N_8  and  C_9 
REMARK    6  A    between atoms: C_9  and  C_10 
REMARK    7  A    between atoms: C_10  and  C_11 
REMARK    8  A    between atoms: C_20  and  C_21 
REMARK    9  A    between atoms: C_24  and  O_25 
ROOT
HETATM    1  N   UNL     1     -43.390  58.345 -51.281  1.00  0.00    -0.308 N 
HETATM    2  C   UNL     1     -44.643  58.904 -51.220  1.00  0.00     0.192 A 
HETATM    3  N   UNL     1     -45.531  57.990 -50.923  1.00  0.00    -0.122 NA
HETATM    4  N   UNL     1     -44.862  56.817 -50.741  1.00  0.00    -0.128 NA
HETATM    5  C   UNL     1     -43.565  57.009 -50.946  1.00  0.00     0.164 A 
ENDROOT
BRANCH   2   6
HETATM    6  S   UNL     1     -44.995  60.578 -51.479  1.00  0.00    -0.081 SA
BRANCH   6   7
HETATM    7  C   UNL     1     -45.777  60.520 -53.114  1.00  0.00     0.185 C 
BRANCH   7   8
HETATM    8  C   UNL     1     -44.925  59.773 -54.123  1.00  0.00     0.227 C 
HETATM    9  N   UNL     1     -45.352  58.496 -54.420  1.00  0.00    -0.360 N 
HETATM   10  H   UNL     1     -46.192  58.147 -53.957  1.00  0.00     0.162 HD
HETATM   11  O   UNL     1     -43.901  60.262 -54.595  1.00  0.00    -0.273 OA
BRANCH   9  12
HETATM   12  C   UNL     1     -44.529  57.581 -55.185  1.00  0.00     0.127 C 
BRANCH  12  13
HETATM   13  C   UNL     1     -44.449  56.196 -54.545  1.00  0.00     0.058 C 
BRANCH  13  14
HETATM   14  C   UNL     1     -43.038  55.664 -54.546  1.00  0.00    -0.057 A 
HETATM   15  C   UNL     1     -41.958  56.521 -54.288  1.00  0.00     0.007 A 
HETATM   16  C   UNL     1     -40.649  56.039 -54.320  1.00  0.00     0.001 A 
HETATM   17  C   UNL     1     -40.405  54.699 -54.612  1.00  0.00     0.000 A 
HETATM   18  C   UNL     1     -41.471  53.840 -54.874  1.00  0.00     0.001 A 
HETATM   19  C   UNL     1     -42.781  54.320 -54.843  1.00  0.00     0.007 A 
ENDBRANCH  13  14
ENDBRANCH  12  13
ENDBRANCH   9  12
ENDBRANCH   7   8
ENDBRANCH   6   7
ENDBRANCH   2   6
BRANCH   1  20
HETATM   20  C   UNL     1     -42.168  59.040 -51.628  1.00  0.00     0.128 C 
HETATM   21  C   UNL     1     -41.501  59.727 -50.451  1.00  0.00     0.027 C 
ENDBRANCH   1  20
BRANCH   5  22
HETATM   22  C   UNL     1     -42.567  55.942 -50.747  1.00  0.00     0.012 A 
HETATM   23  C   UNL     1     -42.852  54.674 -51.284  1.00  0.00     0.018 A 
HETATM   24  C   UNL     1     -41.946  53.614 -51.175  1.00  0.00     0.037 A 
HETATM   25  C   UNL     1     -40.727  53.788 -50.526  1.00  0.00     0.068 A 
HETATM   26  C   UNL     1     -40.424  55.039 -49.992  1.00  0.00     0.037 A 
HETATM   27  C   UNL     1     -41.330  56.106 -50.116  1.00  0.00     0.018 A 
BRANCH  25  28
HETATM   28  O   UNL     1     -39.929  52.680 -50.493  1.00  0.00    -0.356 OA
HETATM   29  C   UNL     1     -39.794  51.945 -51.703  1.00  0.00     0.210 C 
ENDBRANCH  25  28
ENDBRANCH   5  22
TORSDOF 9
ENDMDL
MODEL 3
REMARK VINA RESULT:      -7.4      1.464      1.992
REMARK  9 active torsions:
REMARK  status: ('A' for Active; 'I' for Inactive)
REMARK    1  A    between atoms: C_2  and  N_3 
REMARK    2  A    between atoms: C_4  and  S_5 
REMARK    3  A    between atoms: S_5  and  C_6 
REMARK    4  A    between atoms: C_6  and  C_7 
REMARK       I    between atoms: C_7  and  N_8 
REMARK    5  A    between atoms: N_8  and  C_9 
REMARK    6  A    between atoms: C_9  and  C_10 
REMARK    7  A    between atoms: C_10  and  C_11 
REMARK    8  A    between atoms: C_20  and  C_21 
REMARK    9  A    between atoms: C_24  and  O_25 
ROOT
HETATM    1  N   UNL     1     -43.362  57.949 -54.734  1.00  0.00    -0.308 N 
HETATM    2  C   UNL     1     -42.755  58.781 -53.825  1.00  0.00     0.192 A 
HETATM    3  N   UNL     1     -41.846  59.511 -54.417  1.00  0.00    -0.122 NA
HETATM    4  N   UNL     1     -41.872  59.196 -55.743  1.00  0.00    -0.128 NA
HETATM    5  C   UNL     1     -42.786  58.259 -55.959  1.00  0.00     0.164 A 
ENDROOT
BRANCH   2   6
HETATM    6  S   UNL     1     -43.151  58.866 -52.143  1.00  0.00    -0.081 SA
BRANCH   6   7
HETATM    7  C   UNL     1     -41.719  58.031 -51.406  1.00  0.00     0.185 C 
BRANCH   7   8
HETATM    8  C   UNL     1     -41.960  56.544 -51.229  1.00  0.00     0.227 C 
HETATM    9  N   UNL     1     -40.919  55.729 -51.619  1.00  0.00    -0.360 N 
HETATM   10  H   UNL     1     -40.075  56.168 -51.990  1.00  0.00     0.162 HD
HETATM   11  O   UNL     1     -43.032  56.107 -50.813  1.00  0.00    -0.273 OA
BRANCH   9  12
HETATM   12  C   UNL     1     -41.079  54.294 -51.723  1.00  0.00     0.127 C 
BRANCH  12  13
HETATM   13  C   UNL     1     -40.801  53.777 -53.134  1.00  0.00     0.058 C 
BRANCH  13  14
HETATM   14  C   UNL     1     -40.337  52.342 -53.119  1.00  0.00    -0.057 A 
HETATM   15  C   UNL     1     -40.406  51.564 -54.284  1.00  0.00     0.007 A 
HETATM   16  C   UNL     1     -40.007  50.227 -54.267  1.00  0.00     0.001 A 
HETATM   17  C   UNL     1     -39.539  49.654 -53.086  1.00  0.00     0.000 A 
HETATM   18  C   UNL     1     -39.469  50.417 -51.923  1.00  0.00     0.001 A 
HETATM   19  C   UNL     1     -39.868  51.754 -51.938  1.00  0.00     0.007 A 
ENDBRANCH  13  14
ENDBRANCH  12  13
ENDBRANCH   9  12
ENDBRANCH   7   8
ENDBRANCH   6   7
ENDBRANCH   2   6
BRANCH   1  20
HETATM   20  C   UNL     1     -44.383  56.967 -54.435  1.00  0.00     0.128 C 
HETATM   21  C   UNL     1     -43.846  55.559 -54.264  1.00  0.00     0.027 C 
ENDBRANCH   1  20
BRANCH   5  22
HETATM   22  C   UNL     1     -43.106  57.764 -57.310  1.00  0.00     0.012 A 
HETATM   23  C   UNL     1     -42.745  56.442 -57.624  1.00  0.00     0.018 A 
HETATM   24  C   UNL     1     -43.043  55.878 -58.869  1.00  0.00     0.037 A 
HETATM   25  C   UNL     1     -43.711  56.619 -59.840  1.00  0.00     0.068 A 
HETATM   26  C   UNL     1     -44.082  57.929 -59.547  1.00  0.00     0.037 A 
HETATM   27  C   UNL     1     -43.795  58.488 -58.289  1.00  0.00     0.018 A 
BRANCH  25  28
HETATM   28  O   UNL     1     -43.948  55.953 -61.009  1.00  0.00    -0.356 OA
HETATM   29  C   UNL     1     -45.037  55.038 -61.022  1.00  0.00     0.210 C 
ENDBRANCH  25  28
ENDBRANCH   5  22
TORSDOF 9
ENDMDL
MODEL 4
REMARK VINA RESULT:      -7.3      2.369      6.961
REMARK  9 active torsions:
REMARK  status: ('A' for Active; 'I' for Inactive)
REMARK    1  A    between atoms: C_2  and  N_3 
REMARK    2  A    between atoms: C_4  and  S_5 
REMARK    3  A    between atoms: S_5  and  C_6 
REMARK    4  A    between atoms: C_6  and  C_7 
REMARK       I    between atoms: C_7  and  N_8 
REMARK    5  A    between atoms: N_8  and  C_9 
REMARK    6  A    between atoms: C_9  and  C_10 
REMARK    7  A    between atoms: C_10  and  C_11 
REMARK    8  A    between atoms: C_20  and  C_21 
REMARK    9  A    between atoms: C_24  and  O_25 
ROOT
HETATM    1  N   UNL     1     -42.240  56.946 -52.840  1.00  0.00    -0.308 N 
HETATM    2  C   UNL     1     -43.400  57.653 -53.043  1.00  0.00     0.192 A 
HETATM    3  N   UNL     1     -44.300  56.892 -53.610  1.00  0.00    -0.122 NA
HETATM    4  N   UNL     1     -43.753  55.651 -53.751  1.00  0.00    -0.128 NA
HETATM    5  C   UNL     1     -42.510  55.658 -53.286  1.00  0.00     0.164 A 
ENDROOT
BRANCH   2   6
HETATM    6  S   UNL     1     -43.643  59.306 -52.593  1.00  0.00    -0.081 SA
BRANCH   6   7
HETATM    7  C   UNL     1     -43.749  60.096 -54.223  1.00  0.00     0.185 C 
BRANCH   7   8
HETATM    8  C   UNL     1     -42.737  59.524 -55.197  1.00  0.00     0.227 C 
HETATM    9  N   UNL     1     -43.246  58.632 -56.116  1.00  0.00    -0.360 N 
HETATM   10  H   UNL     1     -44.245  58.421 -56.084  1.00  0.00     0.162 HD
HETATM   11  O   UNL     1     -41.542  59.805 -55.128  1.00  0.00    -0.273 OA
BRANCH   9  12
HETATM   12  C   UNL     1     -42.378  57.835 -56.959  1.00  0.00     0.127 C 
BRANCH  12  13
HETATM   13  C   UNL     1     -42.832  56.380 -57.052  1.00  0.00     0.058 C 
BRANCH  13  14
HETATM   14  C   UNL     1     -43.499  56.088 -58.372  1.00  0.00    -0.057 A 
HETATM   15  C   UNL     1     -43.815  57.133 -59.252  1.00  0.00     0.007 A 
HETATM   16  C   UNL     1     -44.461  56.871 -60.461  1.00  0.00     0.001 A 
HETATM   17  C   UNL     1     -44.800  55.563 -60.801  1.00  0.00     0.000 A 
HETATM   18  C   UNL     1     -44.494  54.517 -59.932  1.00  0.00     0.001 A 
HETATM   19  C   UNL     1     -43.848  54.777 -58.723  1.00  0.00     0.007 A 
ENDBRANCH  13  14
ENDBRANCH  12  13
ENDBRANCH   9  12
ENDBRANCH   7   8
ENDBRANCH   6   7
ENDBRANCH   2   6
BRANCH   1  20
HETATM   20  C   UNL     1     -41.014  57.471 -52.278  1.00  0.00     0.128 C 
HETATM   21  C   UNL     1     -40.932  57.347 -50.768  1.00  0.00     0.027 C 
ENDBRANCH   1  20
BRANCH   5  22
HETATM   22  C   UNL     1     -41.681  54.441 -53.228  1.00  0.00     0.012 A 
HETATM   23  C   UNL     1     -41.335  53.828 -54.444  1.00  0.00     0.018 A 
HETATM   24  C   UNL     1     -40.522  52.690 -54.486  1.00  0.00     0.037 A 
HETATM   25  C   UNL     1     -40.028  52.130 -53.310  1.00  0.00     0.068 A 
HETATM   26  C   UNL     1     -40.355  52.726 -52.095  1.00  0.00     0.037 A 
HETATM   27  C   UNL     1     -41.161  53.878 -52.057  1.00  0.00     0.018 A 
BRANCH  25  28
HETATM   28  O   UNL     1     -39.241  51.028 -53.485  1.00  0.00    -0.356 OA
HETATM   29  C   UNL     1     -39.716  50.031 -54.381  1.00  0.00     0.210 C 
ENDBRANCH  25  28
ENDBRANCH   5  22
TORSDOF 9
ENDMDL
MODEL 5
REMARK VINA RESULT:      -7.2      2.427      7.808
REMARK  9 active torsions:
REMARK  status: ('A' for Active; 'I' for Inactive)
REMARK    1  A    between atoms: C_2  and  N_3 
REMARK    2  A    between atoms: C_4  and  S_5 
REMARK    3  A    between atoms: S_5  and  C_6 
REMARK    4  A    between atoms: C_6  and  C_7 
REMARK       I    between atoms: C_7  and  N_8 
REMARK    5  A    between atoms: N_8  and  C_9 
REMARK    6  A    between atoms: C_9  and  C_10 
REMARK    7  A    between atoms: C_10  and  C_11 
REMARK    8  A    between atoms: C_20  and  C_21 
REMARK    9  A    between atoms: C_24  and  O_25 
ROOT
HETATM    1  N   UNL     1     -42.439  55.806 -54.154  1.00  0.00    -0.308 N 
HETATM    2  C   UNL     1     -42.377  57.176 -54.234  1.00  0.00     0.192 A 
HETATM    3  N   UNL     1     -41.277  57.613 -53.679  1.00  0.00    -0.122 NA
HETATM    4  N   UNL     1     -40.573  56.523 -53.259  1.00  0.00    -0.128 NA
HETATM    5  C   UNL     1     -41.253  55.419 -53.542  1.00  0.00     0.164 A 
ENDROOT
BRANCH   2   6
HETATM    6  S   UNL     1     -43.573  58.179 -54.981  1.00  0.00    -0.081 SA
BRANCH   6   7
HETATM    7  C   UNL     1     -42.607  59.675 -55.324  1.00  0.00     0.185 C 
BRANCH   7   8
HETATM    8  C   UNL     1     -42.069  59.689 -56.743  1.00  0.00     0.227 C 
HETATM    9  N   UNL     1     -42.386  58.583 -57.502  1.00  0.00    -0.360 N 
HETATM   10  H   UNL     1     -42.948  57.847 -57.073  1.00  0.00     0.162 HD
HETATM   11  O   UNL     1     -41.360  60.604 -57.157  1.00  0.00    -0.273 OA
BRANCH   9  12
HETATM   12  C   UNL     1     -41.764  58.344 -58.788  1.00  0.00     0.127 C 
BRANCH  12  13
HETATM   13  C   UNL     1     -42.753  58.472 -59.946  1.00  0.00     0.058 C 
BRANCH  13  14
HETATM   14  C   UNL     1     -43.711  57.309 -59.990  1.00  0.00    -0.057 A 
HETATM   15  C   UNL     1     -43.243  55.999 -59.812  1.00  0.00     0.007 A 
HETATM   16  C   UNL     1     -44.121  54.917 -59.884  1.00  0.00     0.001 A 
HETATM   17  C   UNL     1     -45.474  55.132 -60.138  1.00  0.00     0.000 A 
HETATM   18  C   UNL     1     -45.949  56.429 -60.320  1.00  0.00     0.001 A 
HETATM   19  C   UNL     1     -45.073  57.513 -60.248  1.00  0.00     0.007 A 
ENDBRANCH  13  14
ENDBRANCH  12  13
ENDBRANCH   9  12
ENDBRANCH   7   8
ENDBRANCH   6   7
ENDBRANCH   2   6
BRANCH   1  20
HETATM   20  C   UNL     1     -43.530  54.978 -54.620  1.00  0.00     0.128 C 
HETATM   21  C   UNL     1     -43.295  54.373 -55.992  1.00  0.00     0.027 C 
ENDBRANCH   1  20
BRANCH   5  22
HETATM   22  C   UNL     1     -40.716  54.071 -53.282  1.00  0.00     0.012 A 
HETATM   23  C   UNL     1     -40.668  53.635 -51.947  1.00  0.00     0.018 A 
HETATM   24  C   UNL     1     -40.208  52.357 -51.611  1.00  0.00     0.037 A 
HETATM   25  C   UNL     1     -39.781  51.476 -52.600  1.00  0.00     0.068 A 
HETATM   26  C   UNL     1     -39.826  51.888 -53.930  1.00  0.00     0.037 A 
HETATM   27  C   UNL     1     -40.302  53.167 -54.266  1.00  0.00     0.018 A 
BRANCH  25  28
HETATM   28  O   UNL     1     -39.363  50.258 -52.144  1.00  0.00    -0.356 OA
HETATM   29  C   UNL     1     -39.575  49.976 -50.767  1.00  0.00     0.210 C 
ENDBRANCH  25  28
ENDBRANCH   5  22
TORSDOF 9
ENDMDL
MODEL 6
REMARK VINA RESULT:      -7.2      1.868      2.547
REMARK  9 active torsions:
REMARK  status: ('A' for Active; 'I' for Inactive)
REMARK    1  A    between atoms: C_2  and  N_3 
REMARK    2  A    between atoms: C_4  and  S_5 
REMARK    3  A    between atoms: S_5  and  C_6 
REMARK    4  A    between atoms: C_6  and  C_7 
REMARK       I    between atoms: C_7  and  N_8 
REMARK    5  A    between atoms: N_8  and  C_9 
REMARK    6  A    between atoms: C_9  and  C_10 
REMARK    7  A    between atoms: C_10  and  C_11 
REMARK    8  A    between atoms: C_20  and  C_21 
REMARK    9  A    between atoms: C_24  and  O_25 
ROOT
HETATM    1  N   UNL     1     -43.350  58.367 -54.804  1.00  0.00    -0.308 N 
HETATM    2  C   UNL     1     -42.706  59.323 -54.056  1.00  0.00     0.192 A 
HETATM    3  N   UNL     1     -41.747  59.873 -54.754  1.00  0.00    -0.122 NA
HETATM    4  N   UNL     1     -41.775  59.312 -55.997  1.00  0.00    -0.128 NA
HETATM    5  C   UNL     1     -42.740  58.404 -56.052  1.00  0.00     0.164 A 
ENDROOT
BRANCH   2   6
HETATM    6  S   UNL     1     -43.117  59.751 -52.431  1.00  0.00    -0.081 SA
BRANCH   6   7
HETATM    7  C   UNL     1     -41.578  59.339 -51.563  1.00  0.00     0.185 C 
BRANCH   7   8
HETATM    8  C   UNL     1     -41.311  57.846 -51.562  1.00  0.00     0.227 C 
HETATM    9  N   UNL     1     -41.669  57.187 -50.405  1.00  0.00    -0.360 N 
HETATM   10  H   UNL     1     -42.082  57.731 -49.646  1.00  0.00     0.162 HD
HETATM   11  O   UNL     1     -40.767  57.285 -52.511  1.00  0.00    -0.273 OA
BRANCH   9  12
HETATM   12  C   UNL     1     -41.275  55.814 -50.164  1.00  0.00     0.127 C 
BRANCH  12  13
HETATM   13  C   UNL     1     -42.178  54.813 -50.883  1.00  0.00     0.058 C 
BRANCH  13  14
HETATM   14  C   UNL     1     -41.376  53.794 -51.652  1.00  0.00    -0.057 A 
HETATM   15  C   UNL     1     -40.497  52.932 -50.982  1.00  0.00     0.007 A 
HETATM   16  C   UNL     1     -39.729  52.009 -51.693  1.00  0.00     0.001 A 
HETATM   17  C   UNL     1     -39.831  51.940 -53.081  1.00  0.00     0.000 A 
HETATM   18  C   UNL     1     -40.699  52.794 -53.758  1.00  0.00     0.001 A 
HETATM   19  C   UNL     1     -41.467  53.718 -53.048  1.00  0.00     0.007 A 
ENDBRANCH  13  14
ENDBRANCH  12  13
ENDBRANCH   9  12
ENDBRANCH   7   8
ENDBRANCH   6   7
ENDBRANCH   2   6
BRANCH   1  20
HETATM   20  C   UNL     1     -44.431  57.521 -54.348  1.00  0.00     0.128 C 
HETATM   21  C   UNL     1     -43.993  56.117 -53.975  1.00  0.00     0.027 C 
ENDBRANCH   1  20
BRANCH   5  22
HETATM   22  C   UNL     1     -43.072  57.677 -57.291  1.00  0.00     0.012 A 
HETATM   23  C   UNL     1     -43.593  58.421 -58.364  1.00  0.00     0.018 A 
HETATM   24  C   UNL     1     -43.901  57.821 -59.589  1.00  0.00     0.037 A 
HETATM   25  C   UNL     1     -43.699  56.456 -59.779  1.00  0.00     0.068 A 
HETATM   26  C   UNL     1     -43.179  55.703 -58.729  1.00  0.00     0.037 A 
HETATM   27  C   UNL     1     -42.856  56.312 -57.504  1.00  0.00     0.018 A 
BRANCH  25  28
HETATM   28  O   UNL     1     -44.032  55.993 -61.020  1.00  0.00    -0.356 OA
HETATM   29  C   UNL     1     -45.064  55.017 -61.090  1.00  0.00     0.210 C 
ENDBRANCH  25  28
ENDBRANCH   5  22
TORSDOF 9
ENDMDL
MODEL 7
REMARK VINA RESULT:      -7.2      2.804      5.367
REMARK  9 active torsions:
REMARK  status: ('A' for Active; 'I' for Inactive)
REMARK    1  A    between atoms: C_2  and  N_3 
REMARK    2  A    between atoms: C_4  and  S_5 
REMARK    3  A    between atoms: S_5  and  C_6 
REMARK    4  A    between atoms: C_6  and  C_7 
REMARK       I    between atoms: C_7  and  N_8 
REMARK    5  A    between atoms: N_8  and  C_9 
REMARK    6  A    between atoms: C_9  and  C_10 
REMARK    7  A    between atoms: C_10  and  C_11 
REMARK    8  A    between atoms: C_20  and  C_21 
REMARK    9  A    between atoms: C_24  and  O_25 
ROOT
HETATM    1  N   UNL     1     -42.672  57.910 -55.409  1.00  0.00    -0.308 N 
HETATM    2  C   UNL     1     -42.300  59.212 -55.179  1.00  0.00     0.192 A 
HETATM    3  N   UNL     1     -41.273  59.253 -54.370  1.00  0.00    -0.122 NA
HETATM    4  N   UNL     1     -40.926  57.964 -54.088  1.00  0.00    -0.128 NA
HETATM    5  C   UNL     1     -41.754  57.135 -54.711  1.00  0.00     0.164 A 
ENDROOT
BRANCH   2   6
HETATM    6  S   UNL     1     -43.066  60.598 -55.875  1.00  0.00    -0.081 SA
BRANCH   6   7
HETATM    7  C   UNL     1     -43.998  61.231 -54.453  1.00  0.00     0.185 C 
BRANCH   7   8
HETATM    8  C   UNL     1     -44.442  60.116 -53.525  1.00  0.00     0.227 C 
HETATM    9  N   UNL     1     -43.633  59.909 -52.428  1.00  0.00    -0.360 N 
HETATM   10  H   UNL     1     -42.812  60.504 -52.312  1.00  0.00     0.162 HD
HETATM   11  O   UNL     1     -45.425  59.421 -53.773  1.00  0.00    -0.273 OA
BRANCH   9  12
HETATM   12  C   UNL     1     -43.794  58.747 -51.578  1.00  0.00     0.127 C 
BRANCH  12  13
HETATM   13  C   UNL     1     -42.462  58.233 -51.035  1.00  0.00     0.058 C 
BRANCH  13  14
HETATM   14  C   UNL     1     -42.423  56.726 -50.992  1.00  0.00    -0.057 A 
HETATM   15  C   UNL     1     -41.195  56.049 -51.003  1.00  0.00     0.007 A 
HETATM   16  C   UNL     1     -41.155  54.654 -50.996  1.00  0.00     0.001 A 
HETATM   17  C   UNL     1     -42.341  53.923 -50.981  1.00  0.00     0.000 A 
HETATM   18  C   UNL     1     -43.567  54.585 -50.974  1.00  0.00     0.001 A 
HETATM   19  C   UNL     1     -43.609  55.980 -50.981  1.00  0.00     0.007 A 
ENDBRANCH  13  14
ENDBRANCH  12  13
ENDBRANCH   9  12
ENDBRANCH   7   8
ENDBRANCH   6   7
ENDBRANCH   2   6
BRANCH   1  20
HETATM   20  C   UNL     1     -43.794  57.479 -56.215  1.00  0.00     0.128 C 
HETATM   21  C   UNL     1     -43.405  57.013 -57.605  1.00  0.00     0.027 C 
ENDBRANCH   1  20
BRANCH   5  22
HETATM   22  C   UNL     1     -41.589  55.671 -54.665  1.00  0.00     0.012 A 
HETATM   23  C   UNL     1     -40.279  55.162 -54.636  1.00  0.00     0.018 A 
HETATM   24  C   UNL     1     -40.029  53.788 -54.555  1.00  0.00     0.037 A 
HETATM   25  C   UNL     1     -41.083  52.880 -54.500  1.00  0.00     0.068 A 
HETATM   26  C   UNL     1     -42.389  53.364 -54.523  1.00  0.00     0.037 A 
HETATM   27  C   UNL     1     -42.636  54.746 -54.589  1.00  0.00     0.018 A 
BRANCH  25  28
HETATM   28  O   UNL     1     -40.708  51.569 -54.416  1.00  0.00    -0.356 OA
HETATM   29  C   UNL     1     -39.621  51.262 -53.551  1.00  0.00     0.210 C 
ENDBRANCH  25  28
ENDBRANCH   5  22
TORSDOF 9
ENDMDL
MODEL 8
REMARK VINA RESULT:      -7.1      2.340      3.092
REMARK  9 active torsions:
REMARK  status: ('A' for Active; 'I' for Inactive)
REMARK    1  A    between atoms: C_2  and  N_3 
REMARK    2  A    between atoms: C_4  and  S_5 
REMARK    3  A    between atoms: S_5  and  C_6 
REMARK    4  A    between atoms: C_6  and  C_7 
REMARK       I    between atoms: C_7  and  N_8 
REMARK    5  A    between atoms: N_8  and  C_9 
REMARK    6  A    between atoms: C_9  and  C_10 
REMARK    7  A    between atoms: C_10  and  C_11 
REMARK    8  A    between atoms: C_20  and  C_21 
REMARK    9  A    between atoms: C_24  and  O_25 
ROOT
HETATM    1  N   UNL     1     -43.575  59.577 -54.563  1.00  0.00    -0.308 N 
HETATM    2  C   UNL     1     -42.989  60.275 -53.536  1.00  0.00     0.192 A 
HETATM    3  N   UNL     1     -41.686  60.218 -53.637  1.00  0.00    -0.122 NA
HETATM    4  N   UNL     1     -41.396  59.511 -54.766  1.00  0.00    -0.128 NA
HETATM    5  C   UNL     1     -42.523  59.120 -55.347  1.00  0.00     0.164 A 
ENDROOT
BRANCH   2   6
HETATM    6  S   UNL     1     -43.848  61.124 -52.298  1.00  0.00    -0.081 SA
BRANCH   6   7
HETATM    7  C   UNL     1     -43.441  60.121 -50.842  1.00  0.00     0.185 C 
BRANCH   7   8
HETATM    8  C   UNL     1     -43.433  58.638 -51.160  1.00  0.00     0.227 C 
HETATM    9  N   UNL     1     -42.203  58.023 -51.059  1.00  0.00    -0.360 N 
HETATM   10  H   UNL     1     -41.400  58.589 -50.782  1.00  0.00     0.162 HD
HETATM   11  O   UNL     1     -44.447  58.050 -51.530  1.00  0.00    -0.273 OA
BRANCH   9  12
HETATM   12  C   UNL     1     -41.989  56.675 -51.543  1.00  0.00     0.127 C 
BRANCH  12  13
HETATM   13  C   UNL     1     -41.486  56.647 -52.986  1.00  0.00     0.058 C 
BRANCH  13  14
HETATM   14  C   UNL     1     -41.061  55.261 -53.400  1.00  0.00    -0.057 A 
HETATM   15  C   UNL     1     -41.097  54.205 -52.479  1.00  0.00     0.007 A 
HETATM   16  C   UNL     1     -40.674  52.927 -52.850  1.00  0.00     0.001 A 
HETATM   17  C   UNL     1     -40.209  52.694 -54.142  1.00  0.00     0.000 A 
HETATM   18  C   UNL     1     -40.166  53.738 -55.065  1.00  0.00     0.001 A 
HETATM   19  C   UNL     1     -40.588  55.016 -54.696  1.00  0.00     0.007 A 
ENDBRANCH  13  14
ENDBRANCH  12  13
ENDBRANCH   9  12
ENDBRANCH   7   8
ENDBRANCH   6   7
ENDBRANCH   2   6
BRANCH   1  20
HETATM   20  C   UNL     1     -44.997  59.382 -54.752  1.00  0.00     0.128 C 
HETATM   21  C   UNL     1     -45.594  60.257 -55.839  1.00  0.00     0.027 C 
ENDBRANCH   1  20
BRANCH   5  22
HETATM   22  C   UNL     1     -42.541  58.401 -56.633  1.00  0.00     0.012 A 
HETATM   23  C   UNL     1     -43.049  57.090 -56.641  1.00  0.00     0.018 A 
HETATM   24  C   UNL     1     -43.137  56.347 -57.823  1.00  0.00     0.037 A 
HETATM   25  C   UNL     1     -42.721  56.892 -59.035  1.00  0.00     0.068 A 
HETATM   26  C   UNL     1     -42.219  58.191 -59.048  1.00  0.00     0.037 A 
HETATM   27  C   UNL     1     -42.145  58.941 -57.861  1.00  0.00     0.018 A 
BRANCH  25  28
HETATM   28  O   UNL     1     -42.865  56.069 -60.116  1.00  0.00    -0.356 OA
HETATM   29  C   UNL     1     -43.925  55.122 -60.069  1.00  0.00     0.210 C 
ENDBRANCH  25  28
ENDBRANCH   5  22
TORSDOF 9
ENDMDL
MODEL 9
REMARK VINA RESULT:      -7.0      2.182      6.701
REMARK  9 active torsions:
REMARK  status: ('A' for Active; 'I' for Inactive)
REMARK    1  A    between atoms: C_2  and  N_3 
REMARK    2  A    between atoms: C_4  and  S_5 
REMARK    3  A    between atoms: S_5  and  C_6 
REMARK    4  A    between atoms: C_6  and  C_7 
REMARK       I    between atoms: C_7  and  N_8 
REMARK    5  A    between atoms: N_8  and  C_9 
REMARK    6  A    between atoms: C_9  and  C_10 
REMARK    7  A    between atoms: C_10  and  C_11 
REMARK    8  A    between atoms: C_20  and  C_21 
REMARK    9  A    between atoms: C_24  and  O_25 
ROOT
HETATM    1  N   UNL     1     -42.015  56.045 -51.822  1.00  0.00    -0.308 N 
HETATM    2  C   UNL     1     -42.129  57.389 -52.082  1.00  0.00     0.192 A 
HETATM    3  N   UNL     1     -41.359  57.722 -53.086  1.00  0.00    -0.122 NA
HETATM    4  N   UNL     1     -40.755  56.583 -53.530  1.00  0.00    -0.128 NA
HETATM    5  C   UNL     1     -41.141  55.556 -52.785  1.00  0.00     0.164 A 
ENDROOT
BRANCH   2   6
HETATM    6  S   UNL     1     -43.159  58.480 -51.221  1.00  0.00    -0.081 SA
BRANCH   6   7
HETATM    7  C   UNL     1     -44.772  58.084 -51.951  1.00  0.00     0.185 C 
BRANCH   7   8
HETATM    8  C   UNL     1     -44.757  58.213 -53.462  1.00  0.00     0.227 C 
HETATM    9  N   UNL     1     -44.843  57.023 -54.154  1.00  0.00    -0.360 N 
HETATM   10  H   UNL     1     -44.913  56.156 -53.619  1.00  0.00     0.162 HD
HETATM   11  O   UNL     1     -44.624  59.301 -54.018  1.00  0.00    -0.273 OA
BRANCH   9  12
HETATM   12  C   UNL     1     -44.616  56.960 -55.583  1.00  0.00     0.127 C 
BRANCH  12  13
HETATM   13  C   UNL     1     -43.193  56.524 -55.928  1.00  0.00     0.058 C 
BRANCH  13  14
HETATM   14  C   UNL     1     -42.884  56.739 -57.388  1.00  0.00    -0.057 A 
HETATM   15  C   UNL     1     -43.170  55.738 -58.327  1.00  0.00     0.007 A 
HETATM   16  C   UNL     1     -42.856  55.921 -59.675  1.00  0.00     0.001 A 
HETATM   17  C   UNL     1     -42.250  57.103 -60.096  1.00  0.00     0.000 A 
HETATM   18  C   UNL     1     -41.958  58.102 -59.170  1.00  0.00     0.001 A 
HETATM   19  C   UNL     1     -42.272  57.922 -57.822  1.00  0.00     0.007 A 
ENDBRANCH  13  14
ENDBRANCH  12  13
ENDBRANCH   9  12
ENDBRANCH   7   8
ENDBRANCH   6   7
ENDBRANCH   2   6
BRANCH   1  20
HETATM   20  C   UNL     1     -42.681  55.329 -50.755  1.00  0.00     0.128 C 
HETATM   21  C   UNL     1     -43.771  54.390 -51.238  1.00  0.00     0.027 C 
ENDBRANCH   1  20
BRANCH   5  22
HETATM   22  C   UNL     1     -40.719  54.172 -53.067  1.00  0.00     0.012 A 
HETATM   23  C   UNL     1     -40.213  53.413 -51.998  1.00  0.00     0.018 A 
HETATM   24  C   UNL     1     -39.823  52.080 -52.167  1.00  0.00     0.037 A 
HETATM   25  C   UNL     1     -39.927  51.465 -53.411  1.00  0.00     0.068 A 
HETATM   26  C   UNL     1     -40.431  52.198 -54.482  1.00  0.00     0.037 A 
HETATM   27  C   UNL     1     -40.836  53.533 -54.306  1.00  0.00     0.018 A 
BRANCH  25  28
HETATM   28  O   UNL     1     -39.521  50.161 -53.443  1.00  0.00    -0.356 OA
HETATM   29  C   UNL     1     -39.583  49.434 -52.222  1.00  0.00     0.210 C 
ENDBRANCH  25  28
ENDBRANCH   5  22
TORSDOF 9
ENDMDL
MODEL 10
REMARK VINA RESULT:      -7.0      2.481      7.226
REMARK  9 active torsions:
REMARK  status: ('A' for Active; 'I' for Inactive)
REMARK    1  A    between atoms: C_2  and  N_3 
REMARK    2  A    between atoms: C_4  and  S_5 
REMARK    3  A    between atoms: S_5  and  C_6 
REMARK    4  A    between atoms: C_6  and  C_7 
REMARK       I    between atoms: C_7  and  N_8 
REMARK    5  A    between atoms: N_8  and  C_9 
REMARK    6  A    between atoms: C_9  and  C_10 
REMARK    7  A    between atoms: C_10  and  C_11 
REMARK    8  A    between atoms: C_20  and  C_21 
REMARK    9  A    between atoms: C_24  and  O_25 
ROOT
HETATM    1  N   UNL     1     -42.389  57.973 -53.685  1.00  0.00    -0.308 N 
HETATM    2  C   UNL     1     -41.968  59.281 -53.696  1.00  0.00     0.192 A 
HETATM    3  N   UNL     1     -40.667  59.338 -53.568  1.00  0.00    -0.122 NA
HETATM    4  N   UNL     1     -40.207  58.056 -53.513  1.00  0.00    -0.128 NA
HETATM    5  C   UNL     1     -41.230  57.213 -53.589  1.00  0.00     0.164 A 
ENDROOT
BRANCH   2   6
HETATM    6  S   UNL     1     -43.005  60.654 -53.874  1.00  0.00    -0.081 SA
BRANCH   6   7
HETATM    7  C   UNL     1     -43.729  60.332 -55.506  1.00  0.00     0.185 C 
BRANCH   7   8
HETATM    8  C   UNL     1     -42.675  59.959 -56.530  1.00  0.00     0.227 C 
HETATM    9  N   UNL     1     -42.944  58.823 -57.263  1.00  0.00    -0.360 N 
HETATM   10  H   UNL     1     -43.814  58.322 -57.076  1.00  0.00     0.162 HD
HETATM   11  O   UNL     1     -41.634  60.602 -56.652  1.00  0.00    -0.273 OA
BRANCH   9  12
HETATM   12  C   UNL     1     -41.942  58.214 -58.112  1.00  0.00     0.127 C 
BRANCH  12  13
HETATM   13  C   UNL     1     -42.373  58.160 -59.577  1.00  0.00     0.058 C 
BRANCH  13  14
HETATM   14  C   UNL     1     -43.437  57.116 -59.805  1.00  0.00    -0.057 A 
HETATM   15  C   UNL     1     -44.743  57.499 -60.145  1.00  0.00     0.007 A 
HETATM   16  C   UNL     1     -45.738  56.537 -60.326  1.00  0.00     0.001 A 
HETATM   17  C   UNL     1     -45.440  55.186 -60.166  1.00  0.00     0.000 A 
HETATM   18  C   UNL     1     -44.146  54.795 -59.825  1.00  0.00     0.001 A 
HETATM   19  C   UNL     1     -43.150  55.755 -59.644  1.00  0.00     0.007 A 
ENDBRANCH  13  14
ENDBRANCH  12  13
ENDBRANCH   9  12
ENDBRANCH   7   8
ENDBRANCH   6   7
ENDBRANCH   2   6
BRANCH   1  20
HETATM   20  C   UNL     1     -43.763  57.525 -53.759  1.00  0.00     0.128 C 
HETATM   21  C   UNL     1     -44.417  57.336 -52.403  1.00  0.00     0.027 C 
ENDBRANCH   1  20
BRANCH   5  22
HETATM   22  C   UNL     1     -41.048  55.751 -53.635  1.00  0.00     0.012 A 
HETATM   23  C   UNL     1     -40.544  55.193 -54.823  1.00  0.00     0.018 A 
HETATM   24  C   UNL     1     -40.305  53.820 -54.943  1.00  0.00     0.037 A 
HETATM   25  C   UNL     1     -40.563  52.962 -53.877  1.00  0.00     0.068 A 
HETATM   26  C   UNL     1     -41.058  53.496 -52.690  1.00  0.00     0.037 A 
HETATM   27  C   UNL     1     -41.283  54.878 -52.568  1.00  0.00     0.018 A 
BRANCH  25  28
HETATM   28  O   UNL     1     -40.281  51.647 -54.117  1.00  0.00    -0.356 OA
HETATM   29  C   UNL     1     -39.635  50.924 -53.077  1.00  0.00     0.210 C 
ENDBRANCH  25  28
ENDBRANCH   5  22
TORSDOF 9
ENDMDL
