MODEL 1
REMARK VINA RESULT:      -9.9      0.000      0.000
REMARK  4 active torsions:
REMARK  status: ('A' for Active; 'I' for Inactive)
REMARK    1  A    between atoms: C_8  and  C_9 
REMARK       I    between atoms: C_9  and  N_10 
REMARK    2  A    between atoms: N_10  and  C_11 
REMARK    3  A    between atoms: C_12  and  N_13 
REMARK    4  A    between atoms: C_16  and  O_17 
ROOT
HETATM    1  C   UNL     1     -41.736  57.282 -54.565  1.00  0.00     0.256 C 
HETATM    2  N   UNL     1     -41.772  58.388 -53.743  1.00  0.00    -0.321 N 
HETATM    3  O   UNL     1     -42.285  57.324 -55.665  1.00  0.00    -0.267 OA
HETATM    4  H   UNL     1     -42.514  59.047 -53.942  1.00  0.00     0.169 HD
ENDROOT
BRANCH   2   5
HETATM    5  C   UNL     1     -40.956  58.699 -52.642  1.00  0.00     0.061 A 
HETATM    6  C   UNL     1     -41.532  59.047 -51.392  1.00  0.00     0.057 A 
HETATM    7  C   UNL     1     -40.619  59.430 -50.389  1.00  0.00     0.031 A 
HETATM    8  C   UNL     1     -39.237  59.506 -50.612  1.00  0.00     0.002 A 
HETATM    9  C   UNL     1     -38.711  59.176 -51.852  1.00  0.00     0.002 A 
HETATM   10  C   UNL     1     -39.567  58.758 -52.861  1.00  0.00     0.032 A 
BRANCH   6  11
HETATM   11  N   UNL     1     -42.901  59.006 -51.133  1.00  0.00    -0.379 N 
HETATM   12  C   UNL     1     -43.629  60.180 -50.641  1.00  0.00     0.125 C 
HETATM   13  C   UNL     1     -44.895  60.349 -51.480  1.00  0.00     0.051 C 
HETATM   14  C   UNL     1     -45.729  59.069 -51.562  1.00  0.00     0.121 C 
HETATM   15  C   UNL     1     -44.891  57.822 -51.858  1.00  0.00     0.051 C 
HETATM   16  C   UNL     1     -43.650  57.754 -50.969  1.00  0.00     0.125 C 
BRANCH  14  17
HETATM   17  O   UNL     1     -46.481  58.890 -50.362  1.00  0.00    -0.395 OA
HETATM   18  H   UNL     1     -46.649  57.943 -50.228  1.00  0.00     0.210 HD
ENDBRANCH  14  17
ENDBRANCH   6  11
ENDBRANCH   2   5
BRANCH   1  19
HETATM   19  C   UNL     1     -41.190  55.975 -54.076  1.00  0.00     0.033 A 
HETATM   20  C   UNL     1     -41.297  55.583 -52.734  1.00  0.00     0.025 A 
HETATM   21  C   UNL     1     -40.875  54.312 -52.374  1.00  0.00    -0.042 A 
HETATM   22  C   UNL     1     -40.381  53.400 -53.324  1.00  0.00    -0.019 A 
HETATM   23  C   UNL     1     -40.890  53.693 -50.993  1.00  0.00     0.078 A 
HETATM   24  C   UNL     1     -40.089  52.151 -52.652  1.00  0.00    -0.019 A 
HETATM   25  C   UNL     1     -40.283  53.768 -54.656  1.00  0.00     0.014 A 
HETATM   26  C   UNL     1     -40.380  52.297 -51.276  1.00  0.00    -0.043 A 
HETATM   27  C   UNL     1     -39.631  50.940 -53.143  1.00  0.00     0.013 A 
HETATM   28  C   UNL     1     -40.211  51.255 -50.381  1.00  0.00     0.008 A 
HETATM   29  C   UNL     1     -39.747  50.036 -50.877  1.00  0.00     0.001 A 
HETATM   30  C   UNL     1     -39.463  49.880 -52.245  1.00  0.00     0.001 A 
HETATM   31  C   UNL     1     -40.688  55.062 -55.027  1.00  0.00     0.018 A 
ENDBRANCH   1  19
TORSDOF 4
ENDMDL
MODEL 2
REMARK VINA RESULT:      -9.7      1.667      3.290
REMARK  4 active torsions:
REMARK  status: ('A' for Active; 'I' for Inactive)
REMARK    1  A    between atoms: C_8  and  C_9 
REMARK       I    between atoms: C_9  and  N_10 
REMARK    2  A    between atoms: N_10  and  C_11 
REMARK    3  A    between atoms: C_12  and  N_13 
REMARK    4  A    between atoms: C_16  and  O_17 
ROOT
HETATM    1  C   UNL     1     -43.939  57.084 -51.083  1.00  0.00     0.256 C 
HETATM    2  N   UNL     1     -43.278  58.279 -50.890  1.00  0.00    -0.321 N 
HETATM    3  O   UNL     1     -45.156  57.027 -50.908  1.00  0.00    -0.267 OA
HETATM    4  H   UNL     1     -43.764  58.949 -50.308  1.00  0.00     0.169 HD
ENDROOT
BRANCH   2   5
HETATM    5  C   UNL     1     -42.009  58.671 -51.349  1.00  0.00     0.061 A 
HETATM    6  C   UNL     1     -41.796  58.953 -52.724  1.00  0.00     0.057 A 
HETATM    7  C   UNL     1     -40.464  59.244 -53.083  1.00  0.00     0.031 A 
HETATM    8  C   UNL     1     -39.408  59.220 -52.161  1.00  0.00     0.002 A 
HETATM    9  C   UNL     1     -39.652  58.923 -50.829  1.00  0.00     0.002 A 
HETATM   10  C   UNL     1     -40.953  58.664 -50.420  1.00  0.00     0.032 A 
BRANCH   6  11
HETATM   11  N   UNL     1     -42.811  58.967 -53.679  1.00  0.00    -0.379 N 
HETATM   12  C   UNL     1     -42.719  58.185 -54.916  1.00  0.00     0.125 C 
HETATM   13  C   UNL     1     -44.034  57.431 -55.109  1.00  0.00     0.051 C 
HETATM   14  C   UNL     1     -45.260  58.342 -55.018  1.00  0.00     0.121 C 
HETATM   15  C   UNL     1     -45.209  59.305 -53.830  1.00  0.00     0.051 C 
HETATM   16  C   UNL     1     -43.853  60.001 -53.727  1.00  0.00     0.125 C 
BRANCH  14  17
HETATM   17  O   UNL     1     -45.431  59.064 -56.238  1.00  0.00    -0.395 OA
HETATM   18  H   UNL     1     -45.779  58.464 -56.918  1.00  0.00     0.210 HD
ENDBRANCH  14  17
ENDBRANCH   6  11
ENDBRANCH   2   5
BRANCH   1  19
HETATM   19  C   UNL     1     -43.181  55.816 -51.333  1.00  0.00     0.033 A 
HETATM   20  C   UNL     1     -43.008  55.299 -52.625  1.00  0.00     0.025 A 
HETATM   21  C   UNL     1     -42.198  54.186 -52.796  1.00  0.00    -0.042 A 
HETATM   22  C   UNL     1     -41.520  53.592 -51.716  1.00  0.00    -0.019 A 
HETATM   23  C   UNL     1     -41.883  53.465 -54.088  1.00  0.00     0.078 A 
HETATM   24  C   UNL     1     -40.713  52.503 -52.225  1.00  0.00    -0.019 A 
HETATM   25  C   UNL     1     -41.671  54.100 -50.436  1.00  0.00     0.014 A 
HETATM   26  C   UNL     1     -40.909  52.406 -53.621  1.00  0.00    -0.043 A 
HETATM   27  C   UNL     1     -39.837  51.644 -51.583  1.00  0.00     0.013 A 
HETATM   28  C   UNL     1     -40.252  51.459 -54.387  1.00  0.00     0.008 A 
HETATM   29  C   UNL     1     -39.371  50.592 -53.738  1.00  0.00     0.001 A 
HETATM   30  C   UNL     1     -39.164  50.686 -52.350  1.00  0.00     0.001 A 
HETATM   31  C   UNL     1     -42.507  55.214 -50.249  1.00  0.00     0.018 A 
ENDBRANCH   1  19
TORSDOF 4
ENDMDL
MODEL 3
REMARK VINA RESULT:      -9.6      2.126      4.245
REMARK  4 active torsions:
REMARK  status: ('A' for Active; 'I' for Inactive)
REMARK    1  A    between atoms: C_8  and  C_9 
REMARK       I    between atoms: C_9  and  N_10 
REMARK    2  A    between atoms: N_10  and  C_11 
REMARK    3  A    between atoms: C_12  and  N_13 
REMARK    4  A    between atoms: C_16  and  O_17 
ROOT
HETATM    1  C   UNL     1     -44.755  57.545 -51.619  1.00  0.00     0.256 C 
HETATM    2  N   UNL     1     -44.657  58.597 -52.505  1.00  0.00    -0.321 N 
HETATM    3  O   UNL     1     -45.498  57.639 -50.643  1.00  0.00    -0.267 OA
HETATM    4  H   UNL     1     -44.940  59.496 -52.136  1.00  0.00     0.169 HD
ENDROOT
BRANCH   2   5
HETATM    5  C   UNL     1     -44.176  58.600 -53.825  1.00  0.00     0.061 A 
HETATM    6  C   UNL     1     -42.833  58.968 -54.102  1.00  0.00     0.057 A 
HETATM    7  C   UNL     1     -42.490  59.025 -55.468  1.00  0.00     0.031 A 
HETATM    8  C   UNL     1     -43.415  58.779 -56.493  1.00  0.00     0.002 A 
HETATM    9  C   UNL     1     -44.723  58.440 -56.185  1.00  0.00     0.002 A 
HETATM   10  C   UNL     1     -45.100  58.336 -54.852  1.00  0.00     0.032 A 
BRANCH   6  11
HETATM   11  N   UNL     1     -41.886  59.242 -53.116  1.00  0.00    -0.379 N 
HETATM   12  C   UNL     1     -41.977  60.436 -52.270  1.00  0.00     0.125 C 
HETATM   13  C   UNL     1     -41.775  60.014 -50.816  1.00  0.00     0.051 C 
HETATM   14  C   UNL     1     -40.509  59.179 -50.610  1.00  0.00     0.121 C 
HETATM   15  C   UNL     1     -40.338  58.076 -51.657  1.00  0.00     0.051 C 
HETATM   16  C   UNL     1     -40.565  58.604 -53.073  1.00  0.00     0.125 C 
BRANCH  14  17
HETATM   17  O   UNL     1     -39.358  60.023 -50.582  1.00  0.00    -0.395 OA
HETATM   18  H   UNL     1     -38.810  59.790 -49.816  1.00  0.00     0.210 HD
ENDBRANCH  14  17
ENDBRANCH   6  11
ENDBRANCH   2   5
BRANCH   1  19
HETATM   19  C   UNL     1     -43.847  56.359 -51.729  1.00  0.00     0.033 A 
HETATM   20  C   UNL     1     -43.589  55.734 -52.957  1.00  0.00     0.025 A 
HETATM   21  C   UNL     1     -42.648  54.715 -53.004  1.00  0.00    -0.042 A 
HETATM   22  C   UNL     1     -41.925  54.324 -51.862  1.00  0.00    -0.019 A 
HETATM   23  C   UNL     1     -42.226  53.905 -54.210  1.00  0.00     0.078 A 
HETATM   24  C   UNL     1     -40.983  53.293 -52.248  1.00  0.00    -0.019 A 
HETATM   25  C   UNL     1     -42.159  54.942 -50.645  1.00  0.00     0.014 A 
HETATM   26  C   UNL     1     -41.141  53.027 -53.627  1.00  0.00    -0.043 A 
HETATM   27  C   UNL     1     -40.023  52.619 -51.513  1.00  0.00     0.013 A 
HETATM   28  C   UNL     1     -40.361  52.091 -54.283  1.00  0.00     0.008 A 
HETATM   29  C   UNL     1     -39.395  51.411 -53.541  1.00  0.00     0.001 A 
HETATM   30  C   UNL     1     -39.226  51.674 -52.170  1.00  0.00     0.001 A 
HETATM   31  C   UNL     1     -43.125  55.961 -50.583  1.00  0.00     0.018 A 
ENDBRANCH   1  19
TORSDOF 4
ENDMDL
MODEL 4
REMARK VINA RESULT:      -9.1      1.853      3.662
REMARK  4 active torsions:
REMARK  status: ('A' for Active; 'I' for Inactive)
REMARK    1  A    between atoms: C_8  and  C_9 
REMARK       I    between atoms: C_9  and  N_10 
REMARK    2  A    between atoms: N_10  and  C_11 
REMARK    3  A    between atoms: C_12  and  N_13 
REMARK    4  A    between atoms: C_16  and  O_17 
ROOT
HETATM    1  C   UNL     1     -41.342  58.821 -53.133  1.00  0.00     0.256 C 
HETATM    2  N   UNL     1     -41.850  59.385 -54.284  1.00  0.00    -0.321 N 
HETATM    3  O   UNL     1     -40.860  59.546 -52.263  1.00  0.00    -0.267 OA
HETATM    4  H   UNL     1     -41.507  60.313 -54.494  1.00  0.00     0.169 HD
ENDROOT
BRANCH   2   5
HETATM    5  C   UNL     1     -42.735  58.830 -55.224  1.00  0.00     0.061 A 
HETATM    6  C   UNL     1     -44.071  58.515 -54.858  1.00  0.00     0.057 A 
HETATM    7  C   UNL     1     -44.837  57.877 -55.854  1.00  0.00     0.031 A 
HETATM    8  C   UNL     1     -44.315  57.535 -57.109  1.00  0.00     0.002 A 
HETATM    9  C   UNL     1     -43.000  57.841 -57.425  1.00  0.00     0.002 A 
HETATM   10  C   UNL     1     -42.215  58.502 -56.489  1.00  0.00     0.032 A 
BRANCH   6  11
HETATM   11  N   UNL     1     -44.625  58.818 -53.615  1.00  0.00    -0.379 N 
HETATM   12  C   UNL     1     -44.962  57.771 -52.645  1.00  0.00     0.125 C 
HETATM   13  C   UNL     1     -44.406  58.179 -51.282  1.00  0.00     0.051 C 
HETATM   14  C   UNL     1     -44.822  59.593 -50.869  1.00  0.00     0.121 C 
HETATM   15  C   UNL     1     -44.663  60.620 -51.992  1.00  0.00     0.051 C 
HETATM   16  C   UNL     1     -45.248  60.111 -53.308  1.00  0.00     0.125 C 
BRANCH  14  17
HETATM   17  O   UNL     1     -46.165  59.590 -50.382  1.00  0.00    -0.395 OA
HETATM   18  H   UNL     1     -46.587  58.748 -50.617  1.00  0.00     0.210 HD
ENDBRANCH  14  17
ENDBRANCH   6  11
ENDBRANCH   2   5
BRANCH   1  19
HETATM   19  C   UNL     1     -41.209  57.335 -52.996  1.00  0.00     0.033 A 
HETATM   20  C   UNL     1     -40.978  56.506 -54.103  1.00  0.00     0.025 A 
HETATM   21  C   UNL     1     -40.749  55.155 -53.889  1.00  0.00    -0.042 A 
HETATM   22  C   UNL     1     -40.706  54.608 -52.594  1.00  0.00    -0.019 A 
HETATM   23  C   UNL     1     -40.490  54.088 -54.931  1.00  0.00     0.078 A 
HETATM   24  C   UNL     1     -40.386  53.200 -52.701  1.00  0.00    -0.019 A 
HETATM   25  C   UNL     1     -40.919  55.417 -51.489  1.00  0.00     0.014 A 
HETATM   26  C   UNL     1     -40.254  52.868 -54.069  1.00  0.00    -0.043 A 
HETATM   27  C   UNL     1     -40.185  52.236 -51.728  1.00  0.00     0.013 A 
HETATM   28  C   UNL     1     -39.934  51.586 -54.481  1.00  0.00     0.008 A 
HETATM   29  C   UNL     1     -39.734  50.615 -53.498  1.00  0.00     0.001 A 
HETATM   30  C   UNL     1     -39.856  50.938 -52.136  1.00  0.00     0.001 A 
HETATM   31  C   UNL     1     -41.172  56.784 -51.697  1.00  0.00     0.018 A 
ENDBRANCH   1  19
TORSDOF 4
ENDMDL
MODEL 5
REMARK VINA RESULT:      -8.7      2.028      3.958
REMARK  4 active torsions:
REMARK  status: ('A' for Active; 'I' for Inactive)
REMARK    1  A    between atoms: C_8  and  C_9 
REMARK       I    between atoms: C_9  and  N_10 
REMARK    2  A    between atoms: N_10  and  C_11 
REMARK    3  A    between atoms: C_12  and  N_13 
REMARK    4  A    between atoms: C_16  and  O_17 
ROOT
HETATM    1  C   UNL     1     -41.227  58.953 -53.133  1.00  0.00     0.256 C 
HETATM    2  N   UNL     1     -42.429  59.625 -53.071  1.00  0.00    -0.321 N 
HETATM    3  O   UNL     1     -40.236  59.521 -53.589  1.00  0.00    -0.267 OA
HETATM    4  H   UNL     1     -42.511  60.417 -53.696  1.00  0.00     0.169 HD
ENDROOT
BRANCH   2   5
HETATM    5  C   UNL     1     -43.567  59.333 -52.300  1.00  0.00     0.061 A 
HETATM    6  C   UNL     1     -44.688  58.687 -52.886  1.00  0.00     0.057 A 
HETATM    7  C   UNL     1     -45.807  58.531 -52.041  1.00  0.00     0.031 A 
HETATM    8  C   UNL     1     -45.836  59.012 -50.725  1.00  0.00     0.002 A 
HETATM    9  C   UNL     1     -44.728  59.655 -50.193  1.00  0.00     0.002 A 
HETATM   10  C   UNL     1     -43.590  59.801 -50.974  1.00  0.00     0.032 A 
BRANCH   6  11
HETATM   11  N   UNL     1     -44.711  58.212 -54.196  1.00  0.00    -0.379 N 
HETATM   12  C   UNL     1     -45.140  59.055 -55.316  1.00  0.00     0.125 C 
HETATM   13  C   UNL     1     -44.112  58.926 -56.438  1.00  0.00     0.051 C 
HETATM   14  C   UNL     1     -43.817  57.471 -56.810  1.00  0.00     0.121 C 
HETATM   15  C   UNL     1     -43.595  56.572 -55.592  1.00  0.00     0.051 C 
HETATM   16  C   UNL     1     -44.674  56.783 -54.532  1.00  0.00     0.125 C 
BRANCH  14  17
HETATM   17  O   UNL     1     -44.862  56.949 -57.632  1.00  0.00    -0.395 OA
HETATM   18  H   UNL     1     -44.563  56.933 -58.556  1.00  0.00     0.210 HD
ENDBRANCH  14  17
ENDBRANCH   6  11
ENDBRANCH   2   5
BRANCH   1  19
HETATM   19  C   UNL     1     -41.144  57.491 -52.814  1.00  0.00     0.033 A 
HETATM   20  C   UNL     1     -40.885  56.531 -53.802  1.00  0.00     0.025 A 
HETATM   21  C   UNL     1     -40.705  55.210 -53.418  1.00  0.00    -0.042 A 
HETATM   22  C   UNL     1     -40.738  54.822 -52.066  1.00  0.00    -0.019 A 
HETATM   23  C   UNL     1     -40.429  54.020 -54.311  1.00  0.00     0.078 A 
HETATM   24  C   UNL     1     -40.453  53.404 -51.990  1.00  0.00    -0.019 A 
HETATM   25  C   UNL     1     -40.979  55.762 -51.078  1.00  0.00     0.014 A 
HETATM   26  C   UNL     1     -40.268  52.907 -53.301  1.00  0.00    -0.043 A 
HETATM   27  C   UNL     1     -40.326  52.560 -50.900  1.00  0.00     0.013 A 
HETATM   28  C   UNL     1     -39.966  51.578 -53.540  1.00  0.00     0.008 A 
HETATM   29  C   UNL     1     -39.840  50.728 -52.441  1.00  0.00     0.001 A 
HETATM   30  C   UNL     1     -40.016  51.215 -51.134  1.00  0.00     0.001 A 
HETATM   31  C   UNL     1     -41.183  57.099 -51.458  1.00  0.00     0.018 A 
ENDBRANCH   1  19
TORSDOF 4
ENDMDL
MODEL 6
REMARK VINA RESULT:      -8.4      3.064      5.292
REMARK  4 active torsions:
REMARK  status: ('A' for Active; 'I' for Inactive)
REMARK    1  A    between atoms: C_8  and  C_9 
REMARK       I    between atoms: C_9  and  N_10 
REMARK    2  A    between atoms: N_10  and  C_11 
REMARK    3  A    between atoms: C_12  and  N_13 
REMARK    4  A    between atoms: C_16  and  O_17 
ROOT
HETATM    1  C   UNL     1     -41.059  58.548 -53.428  1.00  0.00     0.256 C 
HETATM    2  N   UNL     1     -41.921  59.109 -54.346  1.00  0.00    -0.321 N 
HETATM    3  O   UNL     1     -40.235  59.258 -52.853  1.00  0.00    -0.267 OA
HETATM    4  H   UNL     1     -41.617  59.993 -54.734  1.00  0.00     0.169 HD
ENDROOT
BRANCH   2   5
HETATM    5  C   UNL     1     -43.131  58.602 -54.848  1.00  0.00     0.061 A 
HETATM    6  C   UNL     1     -43.578  58.959 -56.148  1.00  0.00     0.057 A 
HETATM    7  C   UNL     1     -44.849  58.467 -56.507  1.00  0.00     0.031 A 
HETATM    8  C   UNL     1     -45.644  57.711 -55.634  1.00  0.00     0.002 A 
HETATM    9  C   UNL     1     -45.182  57.398 -54.365  1.00  0.00     0.002 A 
HETATM   10  C   UNL     1     -43.921  57.829 -53.977  1.00  0.00     0.032 A 
BRANCH   6  11
HETATM   11  N   UNL     1     -42.831  59.725 -57.040  1.00  0.00    -0.379 N 
HETATM   12  C   UNL     1     -41.866  59.115 -57.961  1.00  0.00     0.125 C 
HETATM   13  C   UNL     1     -42.103  59.690 -59.357  1.00  0.00     0.051 C 
HETATM   14  C   UNL     1     -42.124  61.220 -59.374  1.00  0.00     0.121 C 
HETATM   15  C   UNL     1     -42.969  61.823 -58.250  1.00  0.00     0.051 C 
HETATM   16  C   UNL     1     -42.657  61.176 -56.901  1.00  0.00     0.125 C 
BRANCH  14  17
HETATM   17  O   UNL     1     -40.793  61.734 -59.328  1.00  0.00    -0.395 OA
HETATM   18  H   UNL     1     -40.826  62.701 -59.251  1.00  0.00     0.210 HD
ENDBRANCH  14  17
ENDBRANCH   6  11
ENDBRANCH   2   5
BRANCH   1  19
HETATM   19  C   UNL     1     -40.991  57.062 -53.243  1.00  0.00     0.033 A 
HETATM   20  C   UNL     1     -40.696  56.196 -54.305  1.00  0.00     0.025 A 
HETATM   21  C   UNL     1     -40.534  54.844 -54.039  1.00  0.00    -0.042 A 
HETATM   22  C   UNL     1     -40.621  54.332 -52.731  1.00  0.00    -0.019 A 
HETATM   23  C   UNL     1     -40.224  53.741 -55.027  1.00  0.00     0.078 A 
HETATM   24  C   UNL     1     -40.343  52.912 -52.775  1.00  0.00    -0.019 A 
HETATM   25  C   UNL     1     -40.899  55.178 -51.670  1.00  0.00     0.014 A 
HETATM   26  C   UNL     1     -40.106  52.538 -54.118  1.00  0.00    -0.043 A 
HETATM   27  C   UNL     1     -40.260  51.970 -51.765  1.00  0.00     0.013 A 
HETATM   28  C   UNL     1     -39.798  51.235 -54.468  1.00  0.00     0.008 A 
HETATM   29  C   UNL     1     -39.717  50.286 -53.448  1.00  0.00     0.001 A 
HETATM   30  C   UNL     1     -39.944  50.651 -52.109  1.00  0.00     0.001 A 
HETATM   31  C   UNL     1     -41.085  56.547 -51.932  1.00  0.00     0.018 A 
ENDBRANCH   1  19
TORSDOF 4
ENDMDL
MODEL 7
REMARK VINA RESULT:      -8.3      4.528      6.417
REMARK  4 active torsions:
REMARK  status: ('A' for Active; 'I' for Inactive)
REMARK    1  A    between atoms: C_8  and  C_9 
REMARK       I    between atoms: C_9  and  N_10 
REMARK    2  A    between atoms: N_10  and  C_11 
REMARK    3  A    between atoms: C_12  and  N_13 
REMARK    4  A    between atoms: C_16  and  O_17 
ROOT
HETATM    1  C   UNL     1     -45.335  57.965 -56.446  1.00  0.00     0.256 C 
HETATM    2  N   UNL     1     -45.031  59.148 -57.085  1.00  0.00    -0.321 N 
HETATM    3  O   UNL     1     -46.507  57.700 -56.183  1.00  0.00    -0.267 OA
HETATM    4  H   UNL     1     -45.736  59.870 -57.009  1.00  0.00     0.169 HD
ENDROOT
BRANCH   2   5
HETATM    5  C   UNL     1     -43.863  59.501 -57.782  1.00  0.00     0.061 A 
HETATM    6  C   UNL     1     -43.616  58.986 -59.082  1.00  0.00     0.057 A 
HETATM    7  C   UNL     1     -42.370  59.334 -59.644  1.00  0.00     0.031 A 
HETATM    8  C   UNL     1     -41.417  60.100 -58.960  1.00  0.00     0.002 A 
HETATM    9  C   UNL     1     -41.687  60.571 -57.684  1.00  0.00     0.002 A 
HETATM   10  C   UNL     1     -42.914  60.286 -57.101  1.00  0.00     0.032 A 
BRANCH   6  11
HETATM   11  N   UNL     1     -44.525  58.203 -59.791  1.00  0.00    -0.379 N 
HETATM   12  C   UNL     1     -44.146  56.908 -60.365  1.00  0.00     0.125 C 
HETATM   13  C   UNL     1     -45.214  55.882 -59.989  1.00  0.00     0.051 C 
HETATM   14  C   UNL     1     -46.631  56.345 -60.336  1.00  0.00     0.121 C 
HETATM   15  C   UNL     1     -46.913  57.789 -59.916  1.00  0.00     0.051 C 
HETATM   16  C   UNL     1     -45.783  58.729 -60.336  1.00  0.00     0.125 C 
BRANCH  14  17
HETATM   17  O   UNL     1     -46.879  56.174 -61.732  1.00  0.00    -0.395 OA
HETATM   18  H   UNL     1     -47.837  56.120 -61.882  1.00  0.00     0.210 HD
ENDBRANCH  14  17
ENDBRANCH   6  11
ENDBRANCH   2   5
BRANCH   1  19
HETATM   19  C   UNL     1     -44.253  57.077 -55.912  1.00  0.00     0.033 A 
HETATM   20  C   UNL     1     -44.117  56.816 -54.541  1.00  0.00     0.025 A 
HETATM   21  C   UNL     1     -43.167  55.893 -54.128  1.00  0.00    -0.042 A 
HETATM   22  C   UNL     1     -42.369  55.191 -55.049  1.00  0.00    -0.019 A 
HETATM   23  C   UNL     1     -42.848  55.471 -52.711  1.00  0.00     0.078 A 
HETATM   24  C   UNL     1     -41.532  54.263 -54.317  1.00  0.00    -0.019 A 
HETATM   25  C   UNL     1     -42.501  55.428 -56.408  1.00  0.00     0.014 A 
HETATM   26  C   UNL     1     -41.794  54.409 -52.935  1.00  0.00    -0.043 A 
HETATM   27  C   UNL     1     -40.615  53.325 -54.756  1.00  0.00     0.013 A 
HETATM   28  C   UNL     1     -41.148  53.638 -51.985  1.00  0.00     0.008 A 
HETATM   29  C   UNL     1     -40.222  52.693 -52.430  1.00  0.00     0.001 A 
HETATM   30  C   UNL     1     -39.960  52.537 -53.802  1.00  0.00     0.001 A 
HETATM   31  C   UNL     1     -43.446  56.377 -56.835  1.00  0.00     0.018 A 
ENDBRANCH   1  19
TORSDOF 4
ENDMDL
MODEL 8
REMARK VINA RESULT:      -8.2      5.031      6.987
REMARK  4 active torsions:
REMARK  status: ('A' for Active; 'I' for Inactive)
REMARK    1  A    between atoms: C_8  and  C_9 
REMARK       I    between atoms: C_9  and  N_10 
REMARK    2  A    between atoms: N_10  and  C_11 
REMARK    3  A    between atoms: C_12  and  N_13 
REMARK    4  A    between atoms: C_16  and  O_17 
ROOT
HETATM    1  C   UNL     1     -43.621  58.813 -57.506  1.00  0.00     0.256 C 
HETATM    2  N   UNL     1     -43.785  58.457 -58.827  1.00  0.00    -0.321 N 
HETATM    3  O   UNL     1     -43.487  59.999 -57.207  1.00  0.00    -0.267 OA
HETATM    4  H   UNL     1     -43.461  59.141 -59.499  1.00  0.00     0.169 HD
ENDROOT
BRANCH   2   5
HETATM    5  C   UNL     1     -44.293  57.262 -59.365  1.00  0.00     0.061 A 
HETATM    6  C   UNL     1     -45.689  57.094 -59.557  1.00  0.00     0.057 A 
HETATM    7  C   UNL     1     -46.089  55.821 -60.013  1.00  0.00     0.031 A 
HETATM    8  C   UNL     1     -45.182  54.773 -60.227  1.00  0.00     0.002 A 
HETATM    9  C   UNL     1     -43.827  54.969 -60.011  1.00  0.00     0.002 A 
HETATM   10  C   UNL     1     -43.380  56.216 -59.596  1.00  0.00     0.032 A 
BRANCH   6  11
HETATM   11  N   UNL     1     -46.628  58.100 -59.337  1.00  0.00    -0.379 N 
HETATM   12  C   UNL     1     -47.263  58.291 -58.029  1.00  0.00     0.125 C 
HETATM   13  C   UNL     1     -47.194  59.776 -57.672  1.00  0.00     0.051 C 
HETATM   14  C   UNL     1     -47.734  60.679 -58.783  1.00  0.00     0.121 C 
HETATM   15  C   UNL     1     -47.217  60.301 -60.172  1.00  0.00     0.051 C 
HETATM   16  C   UNL     1     -47.326  58.798 -60.424  1.00  0.00     0.125 C 
BRANCH  14  17
HETATM   17  O   UNL     1     -49.162  60.684 -58.767  1.00  0.00    -0.395 OA
HETATM   18  H   UNL     1     -49.471  61.226 -58.022  1.00  0.00     0.210 HD
ENDBRANCH  14  17
ENDBRANCH   6  11
ENDBRANCH   2   5
BRANCH   1  19
HETATM   19  C   UNL     1     -43.432  57.771 -56.445  1.00  0.00     0.033 A 
HETATM   20  C   UNL     1     -42.224  57.075 -56.297  1.00  0.00     0.025 A 
HETATM   21  C   UNL     1     -42.079  56.211 -55.222  1.00  0.00    -0.042 A 
HETATM   22  C   UNL     1     -43.096  56.046 -54.263  1.00  0.00    -0.019 A 
HETATM   23  C   UNL     1     -40.876  55.359 -54.879  1.00  0.00     0.078 A 
HETATM   24  C   UNL     1     -42.620  55.136 -53.242  1.00  0.00    -0.019 A 
HETATM   25  C   UNL     1     -44.290  56.738 -54.388  1.00  0.00     0.014 A 
HETATM   26  C   UNL     1     -41.313  54.716 -53.582  1.00  0.00    -0.043 A 
HETATM   27  C   UNL     1     -43.213  54.689 -52.074  1.00  0.00     0.013 A 
HETATM   28  C   UNL     1     -40.594  53.848 -52.779  1.00  0.00     0.008 A 
HETATM   29  C   UNL     1     -41.195  53.397 -51.603  1.00  0.00     0.001 A 
HETATM   30  C   UNL     1     -42.491  53.815 -51.253  1.00  0.00     0.001 A 
HETATM   31  C   UNL     1     -44.454  57.600 -55.486  1.00  0.00     0.018 A 
ENDBRANCH   1  19
TORSDOF 4
ENDMDL
MODEL 9
REMARK VINA RESULT:      -8.1     16.294     18.847
REMARK  4 active torsions:
REMARK  status: ('A' for Active; 'I' for Inactive)
REMARK    1  A    between atoms: C_8  and  C_9 
REMARK       I    between atoms: C_9  and  N_10 
REMARK    2  A    between atoms: N_10  and  C_11 
REMARK    3  A    between atoms: C_12  and  N_13 
REMARK    4  A    between atoms: C_16  and  O_17 
ROOT
HETATM    1  C   UNL     1     -35.383  41.726 -54.077  1.00  0.00     0.256 C 
HETATM    2  N   UNL     1     -34.224  41.195 -53.552  1.00  0.00    -0.321 N 
HETATM    3  O   UNL     1     -35.944  42.656 -53.497  1.00  0.00    -0.267 OA
HETATM    4  H   UNL     1     -34.080  41.371 -52.566  1.00  0.00     0.169 HD
ENDROOT
BRANCH   2   5
HETATM    5  C   UNL     1     -33.247  40.407 -54.184  1.00  0.00     0.061 A 
HETATM    6  C   UNL     1     -32.535  39.420 -53.453  1.00  0.00     0.057 A 
HETATM    7  C   UNL     1     -31.515  38.757 -54.166  1.00  0.00     0.031 A 
HETATM    8  C   UNL     1     -31.190  39.072 -55.493  1.00  0.00     0.002 A 
HETATM    9  C   UNL     1     -31.895  40.056 -56.169  1.00  0.00     0.002 A 
HETATM   10  C   UNL     1     -32.933  40.712 -55.521  1.00  0.00     0.032 A 
BRANCH   6  11
HETATM   11  N   UNL     1     -32.810  39.089 -52.127  1.00  0.00    -0.379 N 
HETATM   12  C   UNL     1     -31.878  39.413 -51.042  1.00  0.00     0.125 C 
HETATM   13  C   UNL     1     -32.668  40.061 -49.906  1.00  0.00     0.051 C 
HETATM   14  C   UNL     1     -33.884  39.234 -49.480  1.00  0.00     0.121 C 
HETATM   15  C   UNL     1     -34.710  38.724 -50.663  1.00  0.00     0.051 C 
HETATM   16  C   UNL     1     -33.824  38.100 -51.741  1.00  0.00     0.125 C 
BRANCH  14  17
HETATM   17  O   UNL     1     -33.476  38.146 -48.650  1.00  0.00    -0.395 OA
HETATM   18  H   UNL     1     -34.251  37.602 -48.435  1.00  0.00     0.210 HD
ENDBRANCH  14  17
ENDBRANCH   6  11
ENDBRANCH   2   5
BRANCH   1  19
HETATM   19  C   UNL     1     -36.066  41.082 -55.245  1.00  0.00     0.033 A 
HETATM   20  C   UNL     1     -36.099  41.687 -56.510  1.00  0.00     0.025 A 
HETATM   21  C   UNL     1     -36.645  40.983 -57.573  1.00  0.00    -0.042 A 
HETATM   22  C   UNL     1     -37.128  39.671 -57.420  1.00  0.00    -0.019 A 
HETATM   23  C   UNL     1     -36.791  41.445 -59.006  1.00  0.00     0.078 A 
HETATM   24  C   UNL     1     -37.569  39.191 -58.713  1.00  0.00    -0.019 A 
HETATM   25  C   UNL     1     -37.089  39.054 -56.180  1.00  0.00     0.014 A 
HETATM   26  C   UNL     1     -37.381  40.218 -59.666  1.00  0.00    -0.043 A 
HETATM   27  C   UNL     1     -38.077  37.964 -59.103  1.00  0.00     0.013 A 
HETATM   28  C   UNL     1     -37.702  40.042 -61.001  1.00  0.00     0.008 A 
HETATM   29  C   UNL     1     -38.215  38.805 -61.392  1.00  0.00     0.001 A 
HETATM   30  C   UNL     1     -38.399  37.775 -60.452  1.00  0.00     0.001 A 
HETATM   31  C   UNL     1     -36.557  39.768 -55.092  1.00  0.00     0.018 A 
ENDBRANCH   1  19
TORSDOF 4
ENDMDL
MODEL 10
REMARK VINA RESULT:      -8.0      3.176      6.476
REMARK  4 active torsions:
REMARK  status: ('A' for Active; 'I' for Inactive)
REMARK    1  A    between atoms: C_8  and  C_9 
REMARK       I    between atoms: C_9  and  N_10 
REMARK    2  A    between atoms: N_10  and  C_11 
REMARK    3  A    between atoms: C_12  and  N_13 
REMARK    4  A    between atoms: C_16  and  O_17 
ROOT
HETATM    1  C   UNL     1     -40.755  58.737 -53.124  1.00  0.00     0.256 C 
HETATM    2  N   UNL     1     -41.512  59.012 -52.005  1.00  0.00    -0.321 N 
HETATM    3  O   UNL     1     -39.531  58.850 -53.073  1.00  0.00    -0.267 OA
HETATM    4  H   UNL     1     -41.061  59.598 -51.315  1.00  0.00     0.169 HD
ENDROOT
BRANCH   2   5
HETATM    5  C   UNL     1     -42.834  58.633 -51.717  1.00  0.00     0.061 A 
HETATM    6  C   UNL     1     -43.131  57.306 -51.308  1.00  0.00     0.057 A 
HETATM    7  C   UNL     1     -44.500  57.015 -51.138  1.00  0.00     0.031 A 
HETATM    8  C   UNL     1     -45.510  57.952 -51.393  1.00  0.00     0.002 A 
HETATM    9  C   UNL     1     -45.184  59.234 -51.810  1.00  0.00     0.002 A 
HETATM   10  C   UNL     1     -43.848  59.579 -51.957  1.00  0.00     0.032 A 
BRANCH   6  11
HETATM   11  N   UNL     1     -42.160  56.336 -51.064  1.00  0.00    -0.379 N 
HETATM   12  C   UNL     1     -41.206  56.461 -49.957  1.00  0.00     0.125 C 
HETATM   13  C   UNL     1     -41.167  55.133 -49.202  1.00  0.00     0.051 C 
HETATM   14  C   UNL     1     -40.927  53.933 -50.121  1.00  0.00     0.121 C 
HETATM   15  C   UNL     1     -41.790  53.960 -51.384  1.00  0.00     0.051 C 
HETATM   16  C   UNL     1     -41.761  55.331 -52.057  1.00  0.00     0.125 C 
BRANCH  14  17
HETATM   17  O   UNL     1     -39.544  53.842 -50.464  1.00  0.00    -0.395 OA
HETATM   18  H   UNL     1     -39.352  54.463 -51.185  1.00  0.00     0.210 HD
ENDBRANCH  14  17
ENDBRANCH   6  11
ENDBRANCH   2   5
BRANCH   1  19
HETATM   19  C   UNL     1     -41.405  58.470 -54.448  1.00  0.00     0.033 A 
HETATM   20  C   UNL     1     -41.571  57.169 -54.943  1.00  0.00     0.025 A 
HETATM   21  C   UNL     1     -42.285  56.988 -56.118  1.00  0.00    -0.042 A 
HETATM   22  C   UNL     1     -42.873  58.068 -56.800  1.00  0.00    -0.019 A 
HETATM   23  C   UNL     1     -42.573  55.684 -56.829  1.00  0.00     0.078 A 
HETATM   24  C   UNL     1     -43.596  57.550 -57.943  1.00  0.00    -0.019 A 
HETATM   25  C   UNL     1     -42.729  59.358 -56.316  1.00  0.00     0.014 A 
HETATM   26  C   UNL     1     -43.435  56.146 -57.983  1.00  0.00    -0.043 A 
HETATM   27  C   UNL     1     -44.372  58.190 -58.894  1.00  0.00     0.013 A 
HETATM   28  C   UNL     1     -44.029  55.372 -58.965  1.00  0.00     0.008 A 
HETATM   29  C   UNL     1     -44.809  56.019 -59.924  1.00  0.00     0.001 A 
HETATM   30  C   UNL     1     -44.981  57.414 -59.887  1.00  0.00     0.001 A 
HETATM   31  C   UNL     1     -41.990  59.554 -55.137  1.00  0.00     0.018 A 
ENDBRANCH   1  19
TORSDOF 4
ENDMDL
