MODEL 1
REMARK VINA RESULT:      -7.8      0.000      0.000
REMARK  6 active torsions:
REMARK  status: ('A' for Active; 'I' for Inactive)
REMARK    1  A    between atoms: C_4  and  C_5 
REMARK    2  A    between atoms: C_7  and  N_8 
REMARK       I    between atoms: N_8  and  C_9 
REMARK    3  A    between atoms: C_9  and  C_10 
REMARK    4  A    between atoms: C_10  and  N_11 
REMARK    5  A    between atoms: N_11  and  C_14 
REMARK    6  A    between atoms: C_20  and  C_21 
REMARK       I    between atoms: C_21  and  N_22 
ROOT
HETATM    1  C   UNL     1     -40.579  53.492 -53.485  1.00  0.00     0.018 A 
HETATM    2  S   UNL     1     -40.641  54.021 -55.111  1.00  0.00    -0.071 SA
HETATM    3  C   UNL     1     -41.102  55.589 -54.673  1.00  0.00     0.093 A 
HETATM    4  C   UNL     1     -41.215  55.755 -53.298  1.00  0.00     0.067 A 
HETATM    5  C   UNL     1     -40.898  54.526 -52.623  1.00  0.00     0.039 A 
ENDROOT
BRANCH   3   6
HETATM    6  N   UNL     1     -41.329  56.580 -55.621  1.00  0.00    -0.319 N 
HETATM    7  C   UNL     1     -42.522  56.892 -56.229  1.00  0.00     0.248 C 
HETATM    8  O   UNL     1     -43.628  56.376 -56.074  1.00  0.00    -0.271 OA
HETATM    9  H   UNL     1     -40.489  57.125 -55.833  1.00  0.00     0.169 HD
BRANCH   7  10
HETATM   10  C   UNL     1     -42.423  58.057 -57.213  1.00  0.00     0.335 C 
BRANCH  10  11
HETATM   11  N   UNL     1     -41.854  57.554 -58.522  1.00  0.00    -0.063 N 
HETATM   12  H   UNL     1     -41.181  58.280 -58.827  1.00  0.00     0.278 HD
HETATM   13  H   UNL     1     -41.240  56.751 -58.318  1.00  0.00     0.278 HD
BRANCH  11  14
HETATM   14  C   UNL     1     -42.819  57.248 -59.596  1.00  0.00     0.186 C 
HETATM   15  C   UNL     1     -43.091  55.753 -59.653  1.00  0.00     0.033 C 
HETATM   16  C   UNL     1     -44.387  55.679 -60.448  1.00  0.00     0.002 C 
HETATM   17  C   UNL     1     -45.165  56.942 -60.077  1.00  0.00     0.002 C 
HETATM   18  C   UNL     1     -44.191  57.842 -59.314  1.00  0.00     0.033 C 
ENDBRANCH  11  14
ENDBRANCH  10  11
ENDBRANCH   7  10
ENDBRANCH   3   6
BRANCH   4  19
HETATM   19  C   UNL     1     -41.611  57.034 -52.712  1.00  0.00     0.252 C 
HETATM   20  N   UNL     1     -42.666  57.024 -51.852  1.00  0.00    -0.366 N 
HETATM   21  H   UNL     1     -43.203  56.201 -51.620  1.00  0.00     0.159 HD
HETATM   22  H   UNL     1     -42.962  57.904 -51.451  1.00  0.00     0.159 HD
HETATM   23  O   UNL     1     -41.027  58.083 -52.984  1.00  0.00    -0.268 OA
ENDBRANCH   4  19
BRANCH   1  24
HETATM   24  C   UNL     1     -40.194  52.113 -53.162  1.00  0.00    -0.019 A 
HETATM   25  C   UNL     1     -40.177  51.134 -54.167  1.00  0.00     0.013 A 
HETATM   26  C   UNL     1     -39.800  49.820 -53.879  1.00  0.00     0.001 A 
HETATM   27  C   UNL     1     -39.430  49.468 -52.583  1.00  0.00     0.000 A 
HETATM   28  C   UNL     1     -39.437  50.429 -51.575  1.00  0.00     0.001 A 
HETATM   29  C   UNL     1     -39.816  51.744 -51.862  1.00  0.00     0.013 A 
ENDBRANCH   1  24
TORSDOF 6
ENDMDL
MODEL 2
REMARK VINA RESULT:      -7.7      1.229      1.747
REMARK  6 active torsions:
REMARK  status: ('A' for Active; 'I' for Inactive)
REMARK    1  A    between atoms: C_4  and  C_5 
REMARK    2  A    between atoms: C_7  and  N_8 
REMARK       I    between atoms: N_8  and  C_9 
REMARK    3  A    between atoms: C_9  and  C_10 
REMARK    4  A    between atoms: C_10  and  N_11 
REMARK    5  A    between atoms: N_11  and  C_14 
REMARK    6  A    between atoms: C_20  and  C_21 
REMARK       I    between atoms: C_21  and  N_22 
ROOT
HETATM    1  C   UNL     1     -40.642  53.550 -52.983  1.00  0.00     0.018 A 
HETATM    2  S   UNL     1     -40.701  54.436 -54.444  1.00  0.00    -0.071 SA
HETATM    3  C   UNL     1     -41.191  55.855 -53.662  1.00  0.00     0.093 A 
HETATM    4  C   UNL     1     -41.317  55.699 -52.288  1.00  0.00     0.067 A 
HETATM    5  C   UNL     1     -40.984  54.352 -51.909  1.00  0.00     0.039 A 
ENDROOT
BRANCH   3   6
HETATM    6  N   UNL     1     -41.428  57.034 -54.360  1.00  0.00    -0.319 N 
HETATM    7  C   UNL     1     -42.620  57.457 -54.898  1.00  0.00     0.248 C 
HETATM    8  O   UNL     1     -43.717  56.901 -54.881  1.00  0.00    -0.271 OA
HETATM    9  H   UNL     1     -40.597  57.628 -54.429  1.00  0.00     0.169 HD
BRANCH   7  10
HETATM   10  C   UNL     1     -42.534  58.820 -55.585  1.00  0.00     0.335 C 
BRANCH  10  11
HETATM   11  N   UNL     1     -43.130  58.713 -56.972  1.00  0.00    -0.063 N 
HETATM   12  H   UNL     1     -44.078  58.318 -56.835  1.00  0.00     0.278 HD
HETATM   13  H   UNL     1     -43.331  59.666 -57.310  1.00  0.00     0.278 HD
BRANCH  11  14
HETATM   14  C   UNL     1     -42.373  57.927 -57.965  1.00  0.00     0.186 C 
HETATM   15  C   UNL     1     -43.203  56.750 -58.453  1.00  0.00     0.033 C 
HETATM   16  C   UNL     1     -42.497  56.353 -59.741  1.00  0.00     0.002 C 
HETATM   17  C   UNL     1     -41.956  57.658 -60.328  1.00  0.00     0.002 C 
HETATM   18  C   UNL     1     -42.110  58.719 -59.237  1.00  0.00     0.033 C 
ENDBRANCH  11  14
ENDBRANCH  10  11
ENDBRANCH   7  10
ENDBRANCH   3   6
BRANCH   4  19
HETATM   19  C   UNL     1     -41.739  56.803 -51.427  1.00  0.00     0.252 C 
HETATM   20  N   UNL     1     -42.784  56.573 -50.588  1.00  0.00    -0.366 N 
HETATM   21  H   UNL     1     -43.297  55.705 -50.544  1.00  0.00     0.159 HD
HETATM   22  H   UNL     1     -43.098  57.333 -49.998  1.00  0.00     0.159 HD
HETATM   23  O   UNL     1     -41.183  57.902 -51.460  1.00  0.00    -0.268 OA
ENDBRANCH   4  19
BRANCH   1  24
HETATM   24  C   UNL     1     -40.236  52.139 -52.980  1.00  0.00    -0.019 A 
HETATM   25  C   UNL     1     -39.860  51.518 -51.779  1.00  0.00     0.013 A 
HETATM   26  C   UNL     1     -39.484  50.172 -51.757  1.00  0.00     0.001 A 
HETATM   27  C   UNL     1     -39.484  49.428 -52.934  1.00  0.00     0.000 A 
HETATM   28  C   UNL     1     -39.860  50.028 -54.134  1.00  0.00     0.001 A 
HETATM   29  C   UNL     1     -40.234  51.375 -54.157  1.00  0.00     0.013 A 
ENDBRANCH   1  24
TORSDOF 6
ENDMDL
MODEL 3
REMARK VINA RESULT:      -7.7      1.826      2.277
REMARK  6 active torsions:
REMARK  status: ('A' for Active; 'I' for Inactive)
REMARK    1  A    between atoms: C_4  and  C_5 
REMARK    2  A    between atoms: C_7  and  N_8 
REMARK       I    between atoms: N_8  and  C_9 
REMARK    3  A    between atoms: C_9  and  C_10 
REMARK    4  A    between atoms: C_10  and  N_11 
REMARK    5  A    between atoms: N_11  and  C_14 
REMARK    6  A    between atoms: C_20  and  C_21 
REMARK       I    between atoms: C_21  and  N_22 
ROOT
HETATM    1  C   UNL     1     -41.916  54.206 -53.631  1.00  0.00     0.018 A 
HETATM    2  S   UNL     1     -42.393  54.584 -55.229  1.00  0.00    -0.071 SA
HETATM    3  C   UNL     1     -43.296  55.927 -54.733  1.00  0.00     0.093 A 
HETATM    4  C   UNL     1     -43.257  56.126 -53.360  1.00  0.00     0.067 A 
HETATM    5  C   UNL     1     -42.442  55.120 -52.735  1.00  0.00     0.039 A 
ENDROOT
BRANCH   3   6
HETATM    6  N   UNL     1     -43.986  56.724 -55.639  1.00  0.00    -0.319 N 
HETATM    7  C   UNL     1     -43.456  57.650 -56.505  1.00  0.00     0.248 C 
HETATM    8  O   UNL     1     -42.280  57.973 -56.668  1.00  0.00    -0.271 OA
HETATM    9  H   UNL     1     -44.994  56.542 -55.641  1.00  0.00     0.169 HD
BRANCH   7  10
HETATM   10  C   UNL     1     -44.500  58.339 -57.383  1.00  0.00     0.335 C 
BRANCH  10  11
HETATM   11  N   UNL     1     -45.483  57.304 -57.887  1.00  0.00    -0.063 N 
HETATM   12  H   UNL     1     -45.294  56.451 -57.330  1.00  0.00     0.278 HD
HETATM   13  H   UNL     1     -46.426  57.574 -57.571  1.00  0.00     0.278 HD
BRANCH  11  14
HETATM   14  C   UNL     1     -45.453  57.003 -59.332  1.00  0.00     0.186 C 
HETATM   15  C   UNL     1     -44.661  55.732 -59.592  1.00  0.00     0.033 C 
HETATM   16  C   UNL     1     -45.111  55.336 -60.991  1.00  0.00     0.002 C 
HETATM   17  C   UNL     1     -46.571  55.783 -61.091  1.00  0.00     0.002 C 
HETATM   18  C   UNL     1     -46.836  56.669 -59.872  1.00  0.00     0.033 C 
ENDBRANCH  11  14
ENDBRANCH  10  11
ENDBRANCH   7  10
ENDBRANCH   3   6
BRANCH   4  19
HETATM   19  C   UNL     1     -43.979  57.228 -52.725  1.00  0.00     0.252 C 
HETATM   20  N   UNL     1     -44.734  56.930 -51.633  1.00  0.00    -0.366 N 
HETATM   21  H   UNL     1     -44.847  56.000 -51.256  1.00  0.00     0.159 HD
HETATM   22  H   UNL     1     -45.253  57.679 -51.194  1.00  0.00     0.159 HD
HETATM   23  O   UNL     1     -43.920  58.379 -53.158  1.00  0.00    -0.268 OA
ENDBRANCH   4  19
BRANCH   1  24
HETATM   24  C   UNL     1     -41.037  53.061 -53.364  1.00  0.00    -0.019 A 
HETATM   25  C   UNL     1     -40.435  52.917 -52.105  1.00  0.00     0.013 A 
HETATM   26  C   UNL     1     -39.606  51.826 -51.830  1.00  0.00     0.001 A 
HETATM   27  C   UNL     1     -39.373  50.862 -52.808  1.00  0.00     0.000 A 
HETATM   28  C   UNL     1     -39.968  50.988 -54.061  1.00  0.00     0.001 A 
HETATM   29  C   UNL     1     -40.796  52.080 -54.337  1.00  0.00     0.013 A 
ENDBRANCH   1  24
TORSDOF 6
ENDMDL
MODEL 4
REMARK VINA RESULT:      -7.4      3.912      6.786
REMARK  6 active torsions:
REMARK  status: ('A' for Active; 'I' for Inactive)
REMARK    1  A    between atoms: C_4  and  C_5 
REMARK    2  A    between atoms: C_7  and  N_8 
REMARK       I    between atoms: N_8  and  C_9 
REMARK    3  A    between atoms: C_9  and  C_10 
REMARK    4  A    between atoms: C_10  and  N_11 
REMARK    5  A    between atoms: N_11  and  C_14 
REMARK    6  A    between atoms: C_20  and  C_21 
REMARK       I    between atoms: C_21  and  N_22 
ROOT
HETATM    1  C   UNL     1     -41.708  54.578 -52.648  1.00  0.00     0.018 A 
HETATM    2  S   UNL     1     -41.198  55.684 -51.447  1.00  0.00    -0.071 SA
HETATM    3  C   UNL     1     -42.455  56.765 -51.788  1.00  0.00     0.093 A 
HETATM    4  C   UNL     1     -43.288  56.320 -52.806  1.00  0.00     0.067 A 
HETATM    5  C   UNL     1     -42.843  55.041 -53.288  1.00  0.00     0.039 A 
ENDROOT
BRANCH   3   6
HETATM    6  N   UNL     1     -42.604  57.961 -51.095  1.00  0.00    -0.319 N 
HETATM    7  C   UNL     1     -41.859  59.106 -51.242  1.00  0.00     0.248 C 
HETATM    8  O   UNL     1     -40.917  59.325 -52.002  1.00  0.00    -0.271 OA
HETATM    9  H   UNL     1     -43.386  57.941 -50.434  1.00  0.00     0.169 HD
BRANCH   7  10
HETATM   10  C   UNL     1     -42.306  60.250 -50.332  1.00  0.00     0.335 C 
BRANCH  10  11
HETATM   11  N   UNL     1     -43.806  60.175 -50.143  1.00  0.00    -0.063 N 
HETATM   12  H   UNL     1     -44.181  59.839 -51.049  1.00  0.00     0.278 HD
HETATM   13  H   UNL     1     -44.011  59.387 -49.510  1.00  0.00     0.278 HD
BRANCH  11  14
HETATM   14  C   UNL     1     -44.489  61.412 -49.719  1.00  0.00     0.186 C 
HETATM   15  C   UNL     1     -44.691  61.415 -48.212  1.00  0.00     0.033 C 
HETATM   16  C   UNL     1     -44.958  62.883 -47.912  1.00  0.00     0.002 C 
HETATM   17  C   UNL     1     -44.125  63.665 -48.929  1.00  0.00     0.002 C 
HETATM   18  C   UNL     1     -43.632  62.646 -49.958  1.00  0.00     0.033 C 
ENDBRANCH  11  14
ENDBRANCH  10  11
ENDBRANCH   7  10
ENDBRANCH   3   6
BRANCH   4  19
HETATM   19  C   UNL     1     -44.431  57.111 -53.260  1.00  0.00     0.252 C 
HETATM   20  N   UNL     1     -45.086  56.677 -54.371  1.00  0.00    -0.366 N 
HETATM   21  H   UNL     1     -44.816  55.868 -54.910  1.00  0.00     0.159 HD
HETATM   22  H   UNL     1     -45.868  57.224 -54.707  1.00  0.00     0.159 HD
HETATM   23  O   UNL     1     -44.788  58.133 -52.673  1.00  0.00    -0.268 OA
ENDBRANCH   4  19
BRANCH   1  24
HETATM   24  C   UNL     1     -40.982  53.320 -52.862  1.00  0.00    -0.019 A 
HETATM   25  C   UNL     1     -40.241  52.750 -51.816  1.00  0.00     0.013 A 
HETATM   26  C   UNL     1     -39.555  51.546 -51.999  1.00  0.00     0.001 A 
HETATM   27  C   UNL     1     -39.605  50.895 -53.229  1.00  0.00     0.000 A 
HETATM   28  C   UNL     1     -40.340  51.445 -54.276  1.00  0.00     0.001 A 
HETATM   29  C   UNL     1     -41.026  52.650 -54.094  1.00  0.00     0.013 A 
ENDBRANCH   1  24
TORSDOF 6
ENDMDL
MODEL 5
REMARK VINA RESULT:      -7.3      2.924      5.461
REMARK  6 active torsions:
REMARK  status: ('A' for Active; 'I' for Inactive)
REMARK    1  A    between atoms: C_4  and  C_5 
REMARK    2  A    between atoms: C_7  and  N_8 
REMARK       I    between atoms: N_8  and  C_9 
REMARK    3  A    between atoms: C_9  and  C_10 
REMARK    4  A    between atoms: C_10  and  N_11 
REMARK    5  A    between atoms: N_11  and  C_14 
REMARK    6  A    between atoms: C_20  and  C_21 
REMARK       I    between atoms: C_21  and  N_22 
ROOT
HETATM    1  C   UNL     1     -41.135  54.457 -53.991  1.00  0.00     0.018 A 
HETATM    2  S   UNL     1     -41.338  55.803 -52.957  1.00  0.00    -0.071 SA
HETATM    3  C   UNL     1     -41.989  56.761 -54.191  1.00  0.00     0.093 A 
HETATM    4  C   UNL     1     -42.075  56.092 -55.405  1.00  0.00     0.067 A 
HETATM    5  C   UNL     1     -41.581  54.749 -55.268  1.00  0.00     0.039 A 
ENDROOT
BRANCH   3   6
HETATM    6  N   UNL     1     -42.389  58.073 -53.969  1.00  0.00    -0.319 N 
HETATM    7  C   UNL     1     -41.586  59.151 -53.680  1.00  0.00     0.248 C 
HETATM    8  O   UNL     1     -40.362  59.193 -53.559  1.00  0.00    -0.271 OA
HETATM    9  H   UNL     1     -43.400  58.203 -54.069  1.00  0.00     0.169 HD
BRANCH   7  10
HETATM   10  C   UNL     1     -42.353  60.462 -53.516  1.00  0.00     0.335 C 
BRANCH  10  11
HETATM   11  N   UNL     1     -42.503  60.765 -52.040  1.00  0.00    -0.063 N 
HETATM   12  H   UNL     1     -41.995  60.007 -51.550  1.00  0.00     0.278 HD
HETATM   13  H   UNL     1     -41.931  61.595 -51.823  1.00  0.00     0.278 HD
BRANCH  11  14
HETATM   14  C   UNL     1     -43.879  60.895 -51.522  1.00  0.00     0.186 C 
HETATM   15  C   UNL     1     -44.585  59.549 -51.552  1.00  0.00     0.033 C 
HETATM   16  C   UNL     1     -45.751  59.761 -50.598  1.00  0.00     0.002 C 
HETATM   17  C   UNL     1     -45.234  60.727 -49.531  1.00  0.00     0.002 C 
HETATM   18  C   UNL     1     -43.899  61.267 -50.047  1.00  0.00     0.033 C 
ENDBRANCH  11  14
ENDBRANCH  10  11
ENDBRANCH   7  10
ENDBRANCH   3   6
BRANCH   4  19
HETATM   19  C   UNL     1     -42.601  56.745 -56.603  1.00  0.00     0.252 C 
HETATM   20  N   UNL     1     -43.528  56.061 -57.327  1.00  0.00    -0.366 N 
HETATM   21  H   UNL     1     -43.849  55.130 -57.106  1.00  0.00     0.159 HD
HETATM   22  H   UNL     1     -43.889  56.494 -58.168  1.00  0.00     0.159 HD
HETATM   23  O   UNL     1     -42.222  57.863 -56.953  1.00  0.00    -0.268 OA
ENDBRANCH   4  19
BRANCH   1  24
HETATM   24  C   UNL     1     -40.582  53.197 -53.479  1.00  0.00    -0.019 A 
HETATM   25  C   UNL     1     -40.366  52.119 -54.351  1.00  0.00     0.013 A 
HETATM   26  C   UNL     1     -39.828  50.917 -53.882  1.00  0.00     0.001 A 
HETATM   27  C   UNL     1     -39.494  50.780 -52.537  1.00  0.00     0.000 A 
HETATM   28  C   UNL     1     -39.698  51.842 -51.660  1.00  0.00     0.001 A 
HETATM   29  C   UNL     1     -40.237  53.043 -52.128  1.00  0.00     0.013 A 
ENDBRANCH   1  24
TORSDOF 6
ENDMDL
MODEL 6
REMARK VINA RESULT:      -7.3      2.326      3.076
REMARK  6 active torsions:
REMARK  status: ('A' for Active; 'I' for Inactive)
REMARK    1  A    between atoms: C_4  and  C_5 
REMARK    2  A    between atoms: C_7  and  N_8 
REMARK       I    between atoms: N_8  and  C_9 
REMARK    3  A    between atoms: C_9  and  C_10 
REMARK    4  A    between atoms: C_10  and  N_11 
REMARK    5  A    between atoms: N_11  and  C_14 
REMARK    6  A    between atoms: C_20  and  C_21 
REMARK       I    between atoms: C_21  and  N_22 
ROOT
HETATM    1  C   UNL     1     -41.084  54.500 -53.011  1.00  0.00     0.018 A 
HETATM    2  S   UNL     1     -41.218  55.428 -54.440  1.00  0.00    -0.071 SA
HETATM    3  C   UNL     1     -41.842  56.767 -53.614  1.00  0.00     0.093 A 
HETATM    4  C   UNL     1     -41.960  56.551 -52.247  1.00  0.00     0.067 A 
HETATM    5  C   UNL     1     -41.505  55.228 -51.913  1.00  0.00     0.039 A 
ENDROOT
BRANCH   3   6
HETATM    6  N   UNL     1     -42.185  57.942 -54.272  1.00  0.00    -0.319 N 
HETATM    7  C   UNL     1     -41.507  59.138 -54.246  1.00  0.00     0.248 C 
HETATM    8  O   UNL     1     -40.470  59.427 -53.650  1.00  0.00    -0.271 OA
HETATM    9  H   UNL     1     -43.027  57.845 -54.846  1.00  0.00     0.169 HD
BRANCH   7  10
HETATM   10  C   UNL     1     -42.150  60.227 -55.104  1.00  0.00     0.335 C 
BRANCH  10  11
HETATM   11  N   UNL     1     -42.680  59.604 -56.378  1.00  0.00    -0.063 N 
HETATM   12  H   UNL     1     -42.754  58.590 -56.179  1.00  0.00     0.278 HD
HETATM   13  H   UNL     1     -43.667  59.883 -56.486  1.00  0.00     0.278 HD
BRANCH  11  14
HETATM   14  C   UNL     1     -41.904  59.841 -57.611  1.00  0.00     0.186 C 
HETATM   15  C   UNL     1     -42.764  59.575 -58.836  1.00  0.00     0.033 C 
HETATM   16  C   UNL     1     -41.999  60.287 -59.943  1.00  0.00     0.002 C 
HETATM   17  C   UNL     1     -41.352  61.501 -59.275  1.00  0.00     0.002 C 
HETATM   18  C   UNL     1     -41.518  61.304 -57.767  1.00  0.00     0.033 C 
ENDBRANCH  11  14
ENDBRANCH  10  11
ENDBRANCH   7  10
ENDBRANCH   3   6
BRANCH   4  19
HETATM   19  C   UNL     1     -42.487  57.580 -51.352  1.00  0.00     0.252 C 
HETATM   20  N   UNL     1     -41.690  57.978 -50.324  1.00  0.00    -0.366 N 
HETATM   21  H   UNL     1     -40.780  57.590 -50.127  1.00  0.00     0.159 HD
HETATM   22  H   UNL     1     -42.049  58.677 -49.687  1.00  0.00     0.159 HD
HETATM   23  O   UNL     1     -43.607  58.066 -51.510  1.00  0.00    -0.268 OA
ENDBRANCH   4  19
BRANCH   1  24
HETATM   24  C   UNL     1     -40.548  53.133 -53.054  1.00  0.00    -0.019 A 
HETATM   25  C   UNL     1     -40.002  52.556 -51.897  1.00  0.00     0.013 A 
HETATM   26  C   UNL     1     -39.500  51.252 -51.918  1.00  0.00     0.001 A 
HETATM   27  C   UNL     1     -39.543  50.506 -53.093  1.00  0.00     0.000 A 
HETATM   28  C   UNL     1     -40.087  51.063 -54.248  1.00  0.00     0.001 A 
HETATM   29  C   UNL     1     -40.588  52.368 -54.229  1.00  0.00     0.013 A 
ENDBRANCH   1  24
TORSDOF 6
ENDMDL
MODEL 7
REMARK VINA RESULT:      -7.2      2.738      3.993
REMARK  6 active torsions:
REMARK  status: ('A' for Active; 'I' for Inactive)
REMARK    1  A    between atoms: C_4  and  C_5 
REMARK    2  A    between atoms: C_7  and  N_8 
REMARK       I    between atoms: N_8  and  C_9 
REMARK    3  A    between atoms: C_9  and  C_10 
REMARK    4  A    between atoms: C_10  and  N_11 
REMARK    5  A    between atoms: N_11  and  C_14 
REMARK    6  A    between atoms: C_20  and  C_21 
REMARK       I    between atoms: C_21  and  N_22 
ROOT
HETATM    1  C   UNL     1     -40.634  53.660 -52.913  1.00  0.00     0.018 A 
HETATM    2  S   UNL     1     -40.637  54.640 -54.314  1.00  0.00    -0.071 SA
HETATM    3  C   UNL     1     -41.121  56.015 -53.455  1.00  0.00     0.093 A 
HETATM    4  C   UNL     1     -41.286  55.773 -52.097  1.00  0.00     0.067 A 
HETATM    5  C   UNL     1     -40.989  54.398 -51.799  1.00  0.00     0.039 A 
ENDROOT
BRANCH   3   6
HETATM    6  N   UNL     1     -41.318  57.241 -54.079  1.00  0.00    -0.319 N 
HETATM    7  C   UNL     1     -42.309  57.571 -54.972  1.00  0.00     0.248 C 
HETATM    8  O   UNL     1     -43.223  56.872 -55.407  1.00  0.00    -0.271 OA
HETATM    9  H   UNL     1     -40.638  57.949 -53.787  1.00  0.00     0.169 HD
BRANCH   7  10
HETATM   10  C   UNL     1     -42.245  59.020 -55.453  1.00  0.00     0.335 C 
BRANCH  10  11
HETATM   11  N   UNL     1     -43.582  59.685 -55.199  1.00  0.00    -0.063 N 
HETATM   12  H   UNL     1     -43.704  60.362 -55.974  1.00  0.00     0.278 HD
HETATM   13  H   UNL     1     -44.325  58.995 -55.386  1.00  0.00     0.278 HD
BRANCH  11  14
HETATM   14  C   UNL     1     -43.761  60.345 -53.892  1.00  0.00     0.186 C 
HETATM   15  C   UNL     1     -44.395  59.386 -52.897  1.00  0.00     0.033 C 
HETATM   16  C   UNL     1     -44.085  60.038 -51.557  1.00  0.00     0.002 C 
HETATM   17  C   UNL     1     -42.729  60.721 -51.741  1.00  0.00     0.002 C 
HETATM   18  C   UNL     1     -42.430  60.692 -53.242  1.00  0.00     0.033 C 
ENDBRANCH  11  14
ENDBRANCH  10  11
ENDBRANCH   7  10
ENDBRANCH   3   6
BRANCH   4  19
HETATM   19  C   UNL     1     -41.711  56.827 -51.177  1.00  0.00     0.252 C 
HETATM   20  N   UNL     1     -42.927  56.683 -50.584  1.00  0.00    -0.366 N 
HETATM   21  H   UNL     1     -43.558  55.916 -50.761  1.00  0.00     0.159 HD
HETATM   22  H   UNL     1     -43.241  57.413 -49.958  1.00  0.00     0.159 HD
HETATM   23  O   UNL     1     -41.007  57.812 -50.949  1.00  0.00    -0.268 OA
ENDBRANCH   4  19
BRANCH   1  24
HETATM   24  C   UNL     1     -40.255  52.243 -52.993  1.00  0.00    -0.019 A 
HETATM   25  C   UNL     1     -40.337  51.562 -54.217  1.00  0.00     0.013 A 
HETATM   26  C   UNL     1     -39.968  50.218 -54.312  1.00  0.00     0.001 A 
HETATM   27  C   UNL     1     -39.506  49.539 -53.188  1.00  0.00     0.000 A 
HETATM   28  C   UNL     1     -39.413  50.202 -51.967  1.00  0.00     0.001 A 
HETATM   29  C   UNL     1     -39.783  51.547 -51.870  1.00  0.00     0.013 A 
ENDBRANCH   1  24
TORSDOF 6
ENDMDL
MODEL 8
REMARK VINA RESULT:      -7.1      3.176      6.094
REMARK  6 active torsions:
REMARK  status: ('A' for Active; 'I' for Inactive)
REMARK    1  A    between atoms: C_4  and  C_5 
REMARK    2  A    between atoms: C_7  and  N_8 
REMARK       I    between atoms: N_8  and  C_9 
REMARK    3  A    between atoms: C_9  and  C_10 
REMARK    4  A    between atoms: C_10  and  N_11 
REMARK    5  A    between atoms: N_11  and  C_14 
REMARK    6  A    between atoms: C_20  and  C_21 
REMARK       I    between atoms: C_21  and  N_22 
ROOT
HETATM    1  C   UNL     1     -40.747  53.578 -53.374  1.00  0.00     0.018 A 
HETATM    2  S   UNL     1     -40.730  54.657 -52.048  1.00  0.00    -0.071 SA
HETATM    3  C   UNL     1     -41.330  55.940 -52.975  1.00  0.00     0.093 A 
HETATM    4  C   UNL     1     -41.562  55.588 -54.298  1.00  0.00     0.067 A 
HETATM    5  C   UNL     1     -41.225  54.206 -54.511  1.00  0.00     0.039 A 
ENDROOT
BRANCH   3   6
HETATM    6  N   UNL     1     -41.558  57.197 -52.429  1.00  0.00    -0.319 N 
HETATM    7  C   UNL     1     -42.615  57.583 -51.640  1.00  0.00     0.248 C 
HETATM    8  O   UNL     1     -43.572  56.916 -51.248  1.00  0.00    -0.271 OA
HETATM    9  H   UNL     1     -40.813  57.865 -52.647  1.00  0.00     0.169 HD
BRANCH   7  10
HETATM   10  C   UNL     1     -42.545  59.042 -51.189  1.00  0.00     0.335 C 
BRANCH  10  11
HETATM   11  N   UNL     1     -43.878  59.439 -50.591  1.00  0.00    -0.063 N 
HETATM   12  H   UNL     1     -44.592  58.951 -51.162  1.00  0.00     0.278 HD
HETATM   13  H   UNL     1     -43.969  58.976 -49.674  1.00  0.00     0.278 HD
BRANCH  11  14
HETATM   14  C   UNL     1     -44.169  60.883 -50.508  1.00  0.00     0.186 C 
HETATM   15  C   UNL     1     -44.460  61.283 -49.070  1.00  0.00     0.033 C 
HETATM   16  C   UNL     1     -44.277  62.793 -49.098  1.00  0.00     0.002 C 
HETATM   17  C   UNL     1     -43.176  63.051 -50.128  1.00  0.00     0.002 C 
HETATM   18  C   UNL     1     -42.956  61.729 -50.866  1.00  0.00     0.033 C 
ENDBRANCH  11  14
ENDBRANCH  10  11
ENDBRANCH   7  10
ENDBRANCH   3   6
BRANCH   4  19
HETATM   19  C   UNL     1     -42.072  56.554 -55.270  1.00  0.00     0.252 C 
HETATM   20  N   UNL     1     -41.998  56.213 -56.585  1.00  0.00    -0.366 N 
HETATM   21  H   UNL     1     -41.591  55.355 -56.927  1.00  0.00     0.159 HD
HETATM   22  H   UNL     1     -42.333  56.879 -57.269  1.00  0.00     0.159 HD
HETATM   23  O   UNL     1     -42.544  57.637 -54.922  1.00  0.00    -0.268 OA
ENDBRANCH   4  19
BRANCH   1  24
HETATM   24  C   UNL     1     -40.321  52.182 -53.209  1.00  0.00    -0.019 A 
HETATM   25  C   UNL     1     -39.862  51.732 -51.961  1.00  0.00     0.013 A 
HETATM   26  C   UNL     1     -39.465  50.404 -51.783  1.00  0.00     0.001 A 
HETATM   27  C   UNL     1     -39.527  49.508 -52.847  1.00  0.00     0.000 A 
HETATM   28  C   UNL     1     -39.985  49.938 -54.090  1.00  0.00     0.001 A 
HETATM   29  C   UNL     1     -40.381  51.267 -54.270  1.00  0.00     0.013 A 
ENDBRANCH   1  24
TORSDOF 6
ENDMDL
MODEL 9
REMARK VINA RESULT:      -7.1     14.586     16.616
REMARK  6 active torsions:
REMARK  status: ('A' for Active; 'I' for Inactive)
REMARK    1  A    between atoms: C_4  and  C_5 
REMARK    2  A    between atoms: C_7  and  N_8 
REMARK       I    between atoms: N_8  and  C_9 
REMARK    3  A    between atoms: C_9  and  C_10 
REMARK    4  A    between atoms: C_10  and  N_11 
REMARK    5  A    between atoms: N_11  and  C_14 
REMARK    6  A    between atoms: C_20  and  C_21 
REMARK       I    between atoms: C_21  and  N_22 
ROOT
HETATM    1  C   UNL     1     -33.798  39.887 -50.670  1.00  0.00     0.018 A 
HETATM    2  S   UNL     1     -33.283  39.266 -52.177  1.00  0.00    -0.071 SA
HETATM    3  C   UNL     1     -34.340  40.261 -53.046  1.00  0.00     0.093 A 
HETATM    4  C   UNL     1     -35.101  41.086 -52.227  1.00  0.00     0.067 A 
HETATM    5  C   UNL     1     -34.765  40.861 -50.847  1.00  0.00     0.039 A 
ENDROOT
BRANCH   3   6
HETATM    6  N   UNL     1     -34.407  40.229 -54.434  1.00  0.00    -0.319 N 
HETATM    7  C   UNL     1     -33.390  40.488 -55.322  1.00  0.00     0.248 C 
HETATM    8  O   UNL     1     -32.222  40.799 -55.092  1.00  0.00    -0.271 OA
HETATM    9  H   UNL     1     -35.328  39.949 -54.781  1.00  0.00     0.169 HD
BRANCH   7  10
HETATM   10  C   UNL     1     -33.801  40.341 -56.787  1.00  0.00     0.335 C 
BRANCH  10  11
HETATM   11  N   UNL     1     -34.575  41.571 -57.209  1.00  0.00    -0.063 N 
HETATM   12  H   UNL     1     -34.463  42.247 -56.432  1.00  0.00     0.278 HD
HETATM   13  H   UNL     1     -34.061  42.026 -57.978  1.00  0.00     0.278 HD
BRANCH  11  14
HETATM   14  C   UNL     1     -36.001  41.382 -57.539  1.00  0.00     0.186 C 
HETATM   15  C   UNL     1     -36.349  39.902 -57.556  1.00  0.00     0.033 C 
HETATM   16  C   UNL     1     -37.867  39.913 -57.446  1.00  0.00     0.002 C 
HETATM   17  C   UNL     1     -38.204  41.130 -56.583  1.00  0.00     0.002 C 
HETATM   18  C   UNL     1     -36.914  41.942 -56.458  1.00  0.00     0.033 C 
ENDBRANCH  11  14
ENDBRANCH  10  11
ENDBRANCH   7  10
ENDBRANCH   3   6
BRANCH   4  19
HETATM   19  C   UNL     1     -36.084  42.017 -52.780  1.00  0.00     0.252 C 
HETATM   20  N   UNL     1     -37.398  41.714 -52.598  1.00  0.00    -0.366 N 
HETATM   21  H   UNL     1     -37.731  40.882 -52.135  1.00  0.00     0.159 HD
HETATM   22  H   UNL     1     -38.089  42.341 -52.989  1.00  0.00     0.159 HD
HETATM   23  O   UNL     1     -35.746  43.030 -53.392  1.00  0.00    -0.268 OA
ENDBRANCH   4  19
BRANCH   1  24
HETATM   24  C   UNL     1     -33.202  39.404 -49.418  1.00  0.00    -0.019 A 
HETATM   25  C   UNL     1     -33.861  38.423 -48.660  1.00  0.00     0.013 A 
HETATM   26  C   UNL     1     -33.301  37.943 -47.474  1.00  0.00     0.001 A 
HETATM   27  C   UNL     1     -32.074  38.431 -47.032  1.00  0.00     0.000 A 
HETATM   28  C   UNL     1     -31.405  39.400 -47.776  1.00  0.00     0.001 A 
HETATM   29  C   UNL     1     -31.965  39.883 -48.962  1.00  0.00     0.013 A 
ENDBRANCH   1  24
TORSDOF 6
ENDMDL
MODEL 10
REMARK VINA RESULT:      -7.0     14.660     17.172
REMARK  6 active torsions:
REMARK  status: ('A' for Active; 'I' for Inactive)
REMARK    1  A    between atoms: C_4  and  C_5 
REMARK    2  A    between atoms: C_7  and  N_8 
REMARK       I    between atoms: N_8  and  C_9 
REMARK    3  A    between atoms: C_9  and  C_10 
REMARK    4  A    between atoms: C_10  and  N_11 
REMARK    5  A    between atoms: N_11  and  C_14 
REMARK    6  A    between atoms: C_20  and  C_21 
REMARK       I    between atoms: C_21  and  N_22 
ROOT
HETATM    1  C   UNL     1     -32.588  39.560 -50.221  1.00  0.00     0.018 A 
HETATM    2  S   UNL     1     -33.796  40.700 -50.625  1.00  0.00    -0.071 SA
HETATM    3  C   UNL     1     -33.404  40.659 -52.271  1.00  0.00     0.093 A 
HETATM    4  C   UNL     1     -32.363  39.786 -52.556  1.00  0.00     0.067 A 
HETATM    5  C   UNL     1     -31.906  39.148 -51.351  1.00  0.00     0.039 A 
ENDROOT
BRANCH   3   6
HETATM    6  N   UNL     1     -34.083  41.431 -53.207  1.00  0.00    -0.319 N 
HETATM    7  C   UNL     1     -35.250  41.113 -53.859  1.00  0.00     0.248 C 
HETATM    8  O   UNL     1     -35.939  40.098 -53.762  1.00  0.00    -0.271 OA
HETATM    9  H   UNL     1     -33.636  42.337 -53.372  1.00  0.00     0.169 HD
BRANCH   7  10
HETATM   10  C   UNL     1     -35.737  42.203 -54.813  1.00  0.00     0.335 C 
BRANCH  10  11
HETATM   11  N   UNL     1     -37.212  41.998 -55.085  1.00  0.00    -0.063 N 
HETATM   12  H   UNL     1     -37.466  41.127 -54.585  1.00  0.00     0.278 HD
HETATM   13  H   UNL     1     -37.737  42.717 -54.565  1.00  0.00     0.278 HD
BRANCH  11  14
HETATM   14  C   UNL     1     -37.627  41.931 -56.500  1.00  0.00     0.186 C 
HETATM   15  C   UNL     1     -36.412  41.995 -57.412  1.00  0.00     0.033 C 
HETATM   16  C   UNL     1     -36.954  41.463 -58.731  1.00  0.00     0.002 C 
HETATM   17  C   UNL     1     -38.009  40.424 -58.348  1.00  0.00     0.002 C 
HETATM   18  C   UNL     1     -38.252  40.588 -56.846  1.00  0.00     0.033 C 
ENDBRANCH  11  14
ENDBRANCH  10  11
ENDBRANCH   7  10
ENDBRANCH   3   6
BRANCH   4  19
HETATM   19  C   UNL     1     -31.864  39.610 -53.919  1.00  0.00     0.252 C 
HETATM   20  N   UNL     1     -31.469  38.359 -54.280  1.00  0.00    -0.366 N 
HETATM   21  H   UNL     1     -31.473  37.561 -53.662  1.00  0.00     0.159 HD
HETATM   22  H   UNL     1     -31.106  38.225 -55.215  1.00  0.00     0.159 HD
HETATM   23  O   UNL     1     -31.793  40.550 -54.712  1.00  0.00    -0.268 OA
ENDBRANCH   4  19
BRANCH   1  24
HETATM   24  C   UNL     1     -32.408  39.121 -48.831  1.00  0.00    -0.019 A 
HETATM   25  C   UNL     1     -33.276  38.167 -48.277  1.00  0.00     0.013 A 
HETATM   26  C   UNL     1     -33.110  37.730 -46.961  1.00  0.00     0.001 A 
HETATM   27  C   UNL     1     -32.072  38.236 -46.182  1.00  0.00     0.000 A 
HETATM   28  C   UNL     1     -31.200  39.180 -46.718  1.00  0.00     0.001 A 
HETATM   29  C   UNL     1     -31.365  39.619 -48.035  1.00  0.00     0.013 A 
ENDBRANCH   1  24
TORSDOF 6
ENDMDL
