MODEL 1
REMARK VINA RESULT:      -8.0      0.000      0.000
REMARK  6 active torsions:
REMARK  status: ('A' for Active; 'I' for Inactive)
REMARK    1  A    between atoms: C_2  and  C_4 
REMARK    2  A    between atoms: C_2  and  C_11 
REMARK    3  A    between atoms: C_2  and  O_3 
REMARK    4  A    between atoms: C_11  and  N_12 
REMARK       I    between atoms: N_12  and  C_13 
REMARK    5  A    between atoms: C_13  and  C_14 
REMARK    6  A    between atoms: C_15  and  C_16 
ROOT
HETATM    1  N   UNL     1     -41.907  54.026 -54.762  1.00  0.00    -0.354 N 
HETATM    2  C   UNL     1     -40.560  53.791 -54.606  1.00  0.00     0.255 C 
HETATM    3  O   UNL     1     -39.712  54.550 -55.066  1.00  0.00    -0.268 OA
HETATM    4  H   UNL     1     -42.538  53.257 -54.574  1.00  0.00     0.162 HD
ENDROOT
BRANCH   2   5
HETATM    5  C   UNL     1     -40.235  52.583 -53.867  1.00  0.00     0.080 A 
HETATM    6  C   UNL     1     -40.297  52.352 -52.456  1.00  0.00     0.107 A 
HETATM    7  N   UNL     1     -40.008  51.069 -52.167  1.00  0.00    -0.173 NA
HETATM    8  N   UNL     1     -39.727  50.510 -53.349  1.00  0.00    -0.288 N 
HETATM    9  H   UNL     1     -39.474  49.528 -53.364  1.00  0.00     0.188 HD
HETATM   10  C   UNL     1     -39.840  51.369 -54.399  1.00  0.00     0.128 A 
BRANCH   6  11
HETATM   11  C   UNL     1     -40.607  53.292 -51.383  1.00  0.00     0.034 A 
HETATM   12  C   UNL     1     -41.900  53.792 -51.211  1.00  0.00     0.129 A 
HETATM   13  F   UNL     1     -42.888  53.435 -52.046  1.00  0.00    -0.205 F 
HETATM   14  C   UNL     1     -42.195  54.698 -50.193  1.00  0.00     0.043 A 
HETATM   15  C   UNL     1     -41.185  55.126 -49.334  1.00  0.00     0.003 A 
HETATM   16  C   UNL     1     -39.884  54.651 -49.502  1.00  0.00     0.001 A 
HETATM   17  C   UNL     1     -39.594  53.741 -50.523  1.00  0.00     0.017 A 
ENDBRANCH   6  11
ENDBRANCH   2   5
BRANCH   1  18
HETATM   18  C   UNL     1     -42.423  55.179 -55.489  1.00  0.00     0.165 C 
BRANCH  18  19
HETATM   19  C   UNL     1     -43.487  56.033 -54.728  1.00  0.00     0.097 C 
HETATM   20  C   UNL     1     -44.092  57.055 -55.704  1.00  0.00     0.053 C 
BRANCH  19  21
HETATM   21  C   UNL     1     -42.923  56.781 -53.516  1.00  0.00    -0.023 A 
HETATM   22  C   UNL     1     -41.543  57.029 -53.391  1.00  0.00     0.013 A 
HETATM   23  C   UNL     1     -41.034  57.713 -52.284  1.00  0.00     0.043 A 
HETATM   24  C   UNL     1     -41.900  58.164 -51.298  1.00  0.00     0.116 A 
HETATM   25  F   UNL     1     -41.410  58.822 -50.238  1.00  0.00    -0.206 F 
HETATM   26  C   UNL     1     -43.266  57.947 -51.398  1.00  0.00     0.043 A 
HETATM   27  C   UNL     1     -43.774  57.261 -52.503  1.00  0.00     0.013 A 
ENDBRANCH  19  21
BRANCH  19  28
HETATM   28  O   UNL     1     -44.590  55.202 -54.335  1.00  0.00    -0.384 OA
HETATM   29  H   UNL     1     -44.438  54.305 -54.703  1.00  0.00     0.211 HD
ENDBRANCH  19  28
ENDBRANCH  18  19
ENDBRANCH   1  18
TORSDOF 6
ENDMDL
MODEL 2
REMARK VINA RESULT:      -7.7      2.985      6.580
REMARK  6 active torsions:
REMARK  status: ('A' for Active; 'I' for Inactive)
REMARK    1  A    between atoms: C_2  and  C_4 
REMARK    2  A    between atoms: C_2  and  C_11 
REMARK    3  A    between atoms: C_2  and  O_3 
REMARK    4  A    between atoms: C_11  and  N_12 
REMARK       I    between atoms: N_12  and  C_13 
REMARK    5  A    between atoms: C_13  and  C_14 
REMARK    6  A    between atoms: C_15  and  C_16 
ROOT
HETATM    1  N   UNL     1     -42.385  55.158 -50.712  1.00  0.00    -0.354 N 
HETATM    2  C   UNL     1     -43.595  55.792 -50.884  1.00  0.00     0.255 C 
HETATM    3  O   UNL     1     -44.606  55.431 -50.288  1.00  0.00    -0.268 OA
HETATM    4  H   UNL     1     -41.663  55.344 -51.395  1.00  0.00     0.162 HD
ENDROOT
BRANCH   2   5
HETATM    5  C   UNL     1     -43.574  56.901 -51.822  1.00  0.00     0.080 A 
HETATM    6  C   UNL     1     -43.042  56.941 -53.150  1.00  0.00     0.107 A 
HETATM    7  N   UNL     1     -43.302  58.125 -53.735  1.00  0.00    -0.173 NA
HETATM    8  N   UNL     1     -43.939  58.834 -52.798  1.00  0.00    -0.288 N 
HETATM    9  H   UNL     1     -44.231  59.778 -53.029  1.00  0.00     0.188 HD
HETATM   10  C   UNL     1     -44.124  58.156 -51.632  1.00  0.00     0.128 A 
BRANCH   6  11
HETATM   11  C   UNL     1     -42.296  55.915 -53.872  1.00  0.00     0.034 A 
HETATM   12  C   UNL     1     -42.941  54.801 -54.416  1.00  0.00     0.129 A 
HETATM   13  F   UNL     1     -44.264  54.637 -54.268  1.00  0.00    -0.205 F 
HETATM   14  C   UNL     1     -42.228  53.816 -55.099  1.00  0.00     0.043 A 
HETATM   15  C   UNL     1     -40.847  53.930 -55.235  1.00  0.00     0.003 A 
HETATM   16  C   UNL     1     -40.183  55.026 -54.683  1.00  0.00     0.001 A 
HETATM   17  C   UNL     1     -40.903  56.013 -54.002  1.00  0.00     0.017 A 
ENDBRANCH   6  11
ENDBRANCH   2   5
BRANCH   1  18
HETATM   18  C   UNL     1     -42.217  54.015 -49.824  1.00  0.00     0.165 C 
BRANCH  18  19
HETATM   19  C   UNL     1     -40.745  53.547 -49.601  1.00  0.00     0.097 C 
HETATM   20  C   UNL     1     -39.801  54.729 -49.878  1.00  0.00     0.053 C 
BRANCH  19  21
HETATM   21  C   UNL     1     -40.333  52.368 -50.488  1.00  0.00    -0.023 A 
HETATM   22  C   UNL     1     -40.280  51.056 -49.978  1.00  0.00     0.013 A 
HETATM   23  C   UNL     1     -39.906  49.984 -50.792  1.00  0.00     0.043 A 
HETATM   24  C   UNL     1     -39.590  50.210 -52.124  1.00  0.00     0.116 A 
HETATM   25  F   UNL     1     -39.234  49.180 -52.903  1.00  0.00    -0.206 F 
HETATM   26  C   UNL     1     -39.645  51.488 -52.660  1.00  0.00     0.043 A 
HETATM   27  C   UNL     1     -40.018  52.560 -51.846  1.00  0.00     0.013 A 
ENDBRANCH  19  21
BRANCH  19  28
HETATM   28  O   UNL     1     -40.537  53.228 -48.216  1.00  0.00    -0.384 OA
HETATM   29  H   UNL     1     -39.597  52.966 -48.105  1.00  0.00     0.211 HD
ENDBRANCH  19  28
ENDBRANCH  18  19
ENDBRANCH   1  18
TORSDOF 6
ENDMDL
MODEL 3
REMARK VINA RESULT:      -7.4      2.956      4.824
REMARK  6 active torsions:
REMARK  status: ('A' for Active; 'I' for Inactive)
REMARK    1  A    between atoms: C_2  and  C_4 
REMARK    2  A    between atoms: C_2  and  C_11 
REMARK    3  A    between atoms: C_2  and  O_3 
REMARK    4  A    between atoms: C_11  and  N_12 
REMARK       I    between atoms: N_12  and  C_13 
REMARK    5  A    between atoms: C_13  and  C_14 
REMARK    6  A    between atoms: C_15  and  C_16 
ROOT
HETATM    1  N   UNL     1     -42.219  55.345 -53.124  1.00  0.00    -0.354 N 
HETATM    2  C   UNL     1     -42.422  54.452 -52.097  1.00  0.00     0.255 C 
HETATM    3  O   UNL     1     -43.438  53.766 -52.025  1.00  0.00    -0.268 OA
HETATM    4  H   UNL     1     -41.493  56.038 -53.001  1.00  0.00     0.162 HD
ENDROOT
BRANCH   2   5
HETATM    5  C   UNL     1     -41.352  54.400 -51.115  1.00  0.00     0.080 A 
HETATM    6  C   UNL     1     -40.298  53.440 -50.989  1.00  0.00     0.107 A 
HETATM    7  N   UNL     1     -39.445  53.791 -50.009  1.00  0.00    -0.173 NA
HETATM    8  N   UNL     1     -39.960  54.913 -49.497  1.00  0.00    -0.288 N 
HETATM    9  H   UNL     1     -39.468  55.357 -48.728  1.00  0.00     0.188 HD
HETATM   10  C   UNL     1     -41.102  55.321 -50.114  1.00  0.00     0.128 A 
BRANCH   6  11
HETATM   11  C   UNL     1     -40.079  52.212 -51.746  1.00  0.00     0.034 A 
HETATM   12  C   UNL     1     -40.013  50.971 -51.108  1.00  0.00     0.129 A 
HETATM   13  F   UNL     1     -40.129  50.881 -49.774  1.00  0.00    -0.205 F 
HETATM   14  C   UNL     1     -39.795  49.798 -51.829  1.00  0.00     0.043 A 
HETATM   15  C   UNL     1     -39.626  49.856 -53.211  1.00  0.00     0.003 A 
HETATM   16  C   UNL     1     -39.671  51.088 -53.863  1.00  0.00     0.001 A 
HETATM   17  C   UNL     1     -39.893  52.261 -53.135  1.00  0.00     0.017 A 
ENDBRANCH   6  11
ENDBRANCH   2   5
BRANCH   1  18
HETATM   18  C   UNL     1     -43.191  55.546 -54.192  1.00  0.00     0.165 C 
BRANCH  18  19
HETATM   19  C   UNL     1     -42.786  54.972 -55.587  1.00  0.00     0.097 C 
HETATM   20  C   UNL     1     -41.378  54.365 -55.483  1.00  0.00     0.053 C 
BRANCH  19  21
HETATM   21  C   UNL     1     -42.793  56.017 -56.707  1.00  0.00    -0.023 A 
HETATM   22  C   UNL     1     -42.412  57.350 -56.462  1.00  0.00     0.013 A 
HETATM   23  C   UNL     1     -42.419  58.298 -57.488  1.00  0.00     0.043 A 
HETATM   24  C   UNL     1     -42.795  57.921 -58.770  1.00  0.00     0.116 A 
HETATM   25  F   UNL     1     -42.798  58.832 -59.752  1.00  0.00    -0.206 F 
HETATM   26  C   UNL     1     -43.163  56.613 -59.047  1.00  0.00     0.043 A 
HETATM   27  C   UNL     1     -43.158  55.666 -58.020  1.00  0.00     0.013 A 
ENDBRANCH  19  21
BRANCH  19  28
HETATM   28  O   UNL     1     -43.639  53.868 -55.927  1.00  0.00    -0.384 OA
HETATM   29  H   UNL     1     -44.309  53.774 -55.216  1.00  0.00     0.211 HD
ENDBRANCH  19  28
ENDBRANCH  18  19
ENDBRANCH   1  18
TORSDOF 6
ENDMDL
MODEL 4
REMARK VINA RESULT:      -7.4      2.673      6.292
REMARK  6 active torsions:
REMARK  status: ('A' for Active; 'I' for Inactive)
REMARK    1  A    between atoms: C_2  and  C_4 
REMARK    2  A    between atoms: C_2  and  C_11 
REMARK    3  A    between atoms: C_2  and  O_3 
REMARK    4  A    between atoms: C_11  and  N_12 
REMARK       I    between atoms: N_12  and  C_13 
REMARK    5  A    between atoms: C_13  and  C_14 
REMARK    6  A    between atoms: C_15  and  C_16 
ROOT
HETATM    1  N   UNL     1     -43.190  55.405 -54.094  1.00  0.00    -0.354 N 
HETATM    2  C   UNL     1     -43.489  56.243 -55.143  1.00  0.00     0.255 C 
HETATM    3  O   UNL     1     -43.202  55.960 -56.303  1.00  0.00    -0.268 OA
HETATM    4  H   UNL     1     -43.233  55.793 -53.162  1.00  0.00     0.162 HD
ENDROOT
BRANCH   2   5
HETATM    5  C   UNL     1     -44.155  57.478 -54.765  1.00  0.00     0.080 A 
HETATM    6  C   UNL     1     -43.707  58.499 -53.867  1.00  0.00     0.107 A 
HETATM    7  N   UNL     1     -44.566  59.536 -53.854  1.00  0.00    -0.173 NA
HETATM    8  N   UNL     1     -45.551  59.171 -54.681  1.00  0.00    -0.288 N 
HETATM    9  H   UNL     1     -46.322  59.816 -54.819  1.00  0.00     0.188 HD
HETATM   10  C   UNL     1     -45.363  57.948 -55.248  1.00  0.00     0.128 A 
BRANCH   6  11
HETATM   11  C   UNL     1     -42.516  58.523 -53.025  1.00  0.00     0.034 A 
HETATM   12  C   UNL     1     -42.593  58.257 -51.656  1.00  0.00     0.129 A 
HETATM   13  F   UNL     1     -43.774  57.992 -51.076  1.00  0.00    -0.205 F 
HETATM   14  C   UNL     1     -41.457  58.288 -50.848  1.00  0.00     0.043 A 
HETATM   15  C   UNL     1     -40.220  58.603 -51.406  1.00  0.00     0.003 A 
HETATM   16  C   UNL     1     -40.126  58.890 -52.768  1.00  0.00     0.001 A 
HETATM   17  C   UNL     1     -41.269  58.854 -53.574  1.00  0.00     0.017 A 
ENDBRANCH   6  11
ENDBRANCH   2   5
BRANCH   1  18
HETATM   18  C   UNL     1     -42.507  54.130 -54.280  1.00  0.00     0.165 C 
BRANCH  18  19
HETATM   19  C   UNL     1     -41.014  54.094 -53.824  1.00  0.00     0.097 C 
HETATM   20  C   UNL     1     -40.138  54.665 -54.952  1.00  0.00     0.053 C 
BRANCH  19  21
HETATM   21  C   UNL     1     -40.512  52.691 -53.471  1.00  0.00    -0.023 A 
HETATM   22  C   UNL     1     -40.037  52.392 -52.179  1.00  0.00     0.013 A 
HETATM   23  C   UNL     1     -39.582  51.109 -51.862  1.00  0.00     0.043 A 
HETATM   24  C   UNL     1     -39.606  50.112 -52.827  1.00  0.00     0.116 A 
HETATM   25  F   UNL     1     -39.171  48.884 -52.519  1.00  0.00    -0.206 F 
HETATM   26  C   UNL     1     -40.080  50.372 -54.104  1.00  0.00     0.043 A 
HETATM   27  C   UNL     1     -40.534  51.654 -54.422  1.00  0.00     0.013 A 
ENDBRANCH  19  21
BRANCH  19  28
HETATM   28  O   UNL     1     -40.818  54.989 -52.719  1.00  0.00    -0.384 OA
HETATM   29  H   UNL     1     -39.855  55.154 -52.632  1.00  0.00     0.211 HD
ENDBRANCH  19  28
ENDBRANCH  18  19
ENDBRANCH   1  18
TORSDOF 6
ENDMDL
MODEL 5
REMARK VINA RESULT:      -7.3      3.181      6.584
REMARK  6 active torsions:
REMARK  status: ('A' for Active; 'I' for Inactive)
REMARK    1  A    between atoms: C_2  and  C_4 
REMARK    2  A    between atoms: C_2  and  C_11 
REMARK    3  A    between atoms: C_2  and  O_3 
REMARK    4  A    between atoms: C_11  and  N_12 
REMARK       I    between atoms: N_12  and  C_13 
REMARK    5  A    between atoms: C_13  and  C_14 
REMARK    6  A    between atoms: C_15  and  C_16 
ROOT
HETATM    1  N   UNL     1     -43.343  56.334 -51.814  1.00  0.00    -0.354 N 
HETATM    2  C   UNL     1     -44.286  57.300 -51.546  1.00  0.00     0.255 C 
HETATM    3  O   UNL     1     -45.113  57.169 -50.649  1.00  0.00    -0.268 OA
HETATM    4  H   UNL     1     -42.857  56.392 -52.698  1.00  0.00     0.162 HD
ENDROOT
BRANCH   2   5
HETATM    5  C   UNL     1     -44.223  58.467 -52.409  1.00  0.00     0.080 A 
HETATM    6  C   UNL     1     -43.119  59.346 -52.649  1.00  0.00     0.107 A 
HETATM    7  N   UNL     1     -43.427  60.257 -53.592  1.00  0.00    -0.173 NA
HETATM    8  N   UNL     1     -44.698  59.997 -53.912  1.00  0.00    -0.288 N 
HETATM    9  H   UNL     1     -45.142  60.577 -54.616  1.00  0.00     0.188 HD
HETATM   10  C   UNL     1     -45.228  58.943 -53.233  1.00  0.00     0.128 A 
BRANCH   6  11
HETATM   11  C   UNL     1     -41.803  59.361 -52.017  1.00  0.00     0.034 A 
HETATM   12  C   UNL     1     -40.663  58.950 -52.712  1.00  0.00     0.129 A 
HETATM   13  F   UNL     1     -40.755  58.508 -53.976  1.00  0.00    -0.205 F 
HETATM   14  C   UNL     1     -39.407  58.956 -52.107  1.00  0.00     0.043 A 
HETATM   15  C   UNL     1     -39.279  59.366 -50.782  1.00  0.00     0.003 A 
HETATM   16  C   UNL     1     -40.409  59.763 -50.067  1.00  0.00     0.001 A 
HETATM   17  C   UNL     1     -41.666  59.759 -50.679  1.00  0.00     0.017 A 
ENDBRANCH   6  11
ENDBRANCH   2   5
BRANCH   1  18
HETATM   18  C   UNL     1     -43.263  55.087 -51.062  1.00  0.00     0.165 C 
BRANCH  18  19
HETATM   19  C   UNL     1     -41.836  54.689 -50.571  1.00  0.00     0.097 C 
HETATM   20  C   UNL     1     -40.969  55.956 -50.482  1.00  0.00     0.053 C 
BRANCH  19  21
HETATM   21  C   UNL     1     -41.134  53.673 -51.477  1.00  0.00    -0.023 A 
HETATM   22  C   UNL     1     -41.352  53.666 -52.869  1.00  0.00     0.013 A 
HETATM   23  C   UNL     1     -40.707  52.739 -53.691  1.00  0.00     0.043 A 
HETATM   24  C   UNL     1     -39.832  51.817 -53.134  1.00  0.00     0.116 A 
HETATM   25  F   UNL     1     -39.214  50.930 -53.925  1.00  0.00    -0.206 F 
HETATM   26  C   UNL     1     -39.586  51.806 -51.769  1.00  0.00     0.043 A 
HETATM   27  C   UNL     1     -40.232  52.732 -50.946  1.00  0.00     0.013 A 
ENDBRANCH  19  21
BRANCH  19  28
HETATM   28  O   UNL     1     -41.902  54.195 -49.224  1.00  0.00    -0.384 OA
HETATM   29  H   UNL     1     -42.043  53.224 -49.265  1.00  0.00     0.211 HD
ENDBRANCH  19  28
ENDBRANCH  18  19
ENDBRANCH   1  18
TORSDOF 6
ENDMDL
MODEL 6
REMARK VINA RESULT:      -7.3      3.221      7.329
REMARK  6 active torsions:
REMARK  status: ('A' for Active; 'I' for Inactive)
REMARK    1  A    between atoms: C_2  and  C_4 
REMARK    2  A    between atoms: C_2  and  C_11 
REMARK    3  A    between atoms: C_2  and  O_3 
REMARK    4  A    between atoms: C_11  and  N_12 
REMARK       I    between atoms: N_12  and  C_13 
REMARK    5  A    between atoms: C_13  and  C_14 
REMARK    6  A    between atoms: C_15  and  C_16 
ROOT
HETATM    1  N   UNL     1     -42.281  56.276 -53.638  1.00  0.00    -0.354 N 
HETATM    2  C   UNL     1     -42.595  56.181 -54.975  1.00  0.00     0.255 C 
HETATM    3  O   UNL     1     -41.901  55.542 -55.760  1.00  0.00    -0.268 OA
HETATM    4  H   UNL     1     -42.745  56.997 -53.102  1.00  0.00     0.162 HD
ENDROOT
BRANCH   2   5
HETATM    5  C   UNL     1     -43.795  56.898 -55.370  1.00  0.00     0.080 A 
HETATM    6  C   UNL     1     -44.143  57.421 -56.657  1.00  0.00     0.107 A 
HETATM    7  N   UNL     1     -45.387  57.936 -56.643  1.00  0.00    -0.173 NA
HETATM    8  N   UNL     1     -45.802  57.789 -55.381  1.00  0.00    -0.288 N 
HETATM    9  H   UNL     1     -46.731  58.119 -55.142  1.00  0.00     0.188 HD
HETATM   10  C   UNL     1     -44.890  57.181 -54.574  1.00  0.00     0.128 A 
BRANCH   6  11
HETATM   11  C   UNL     1     -43.348  57.458 -57.879  1.00  0.00     0.034 A 
HETATM   12  C   UNL     1     -43.195  56.321 -58.677  1.00  0.00     0.129 A 
HETATM   13  F   UNL     1     -43.761  55.157 -58.325  1.00  0.00    -0.205 F 
HETATM   14  C   UNL     1     -42.427  56.354 -59.841  1.00  0.00     0.043 A 
HETATM   15  C   UNL     1     -41.788  57.533 -60.216  1.00  0.00     0.003 A 
HETATM   16  C   UNL     1     -41.915  58.673 -59.422  1.00  0.00     0.001 A 
HETATM   17  C   UNL     1     -42.688  58.636 -58.257  1.00  0.00     0.017 A 
ENDBRANCH   6  11
ENDBRANCH   2   5
BRANCH   1  18
HETATM   18  C   UNL     1     -41.104  55.637 -53.062  1.00  0.00     0.165 C 
BRANCH  18  19
HETATM   19  C   UNL     1     -41.391  54.421 -52.125  1.00  0.00     0.097 C 
HETATM   20  C   UNL     1     -40.843  54.734 -50.723  1.00  0.00     0.053 C 
BRANCH  19  21
HETATM   21  C   UNL     1     -40.773  53.108 -52.615  1.00  0.00    -0.023 A 
HETATM   22  C   UNL     1     -40.914  52.691 -53.953  1.00  0.00     0.013 A 
HETATM   23  C   UNL     1     -40.346  51.493 -54.394  1.00  0.00     0.043 A 
HETATM   24  C   UNL     1     -39.626  50.705 -53.507  1.00  0.00     0.116 A 
HETATM   25  F   UNL     1     -39.082  49.558 -53.934  1.00  0.00    -0.206 F 
HETATM   26  C   UNL     1     -39.459  51.094 -52.186  1.00  0.00     0.043 A 
HETATM   27  C   UNL     1     -40.027  52.291 -51.744  1.00  0.00     0.013 A 
ENDBRANCH  19  21
BRANCH  19  28
HETATM   28  O   UNL     1     -42.807  54.269 -51.940  1.00  0.00    -0.384 OA
HETATM   29  H   UNL     1     -43.031  53.325 -52.088  1.00  0.00     0.211 HD
ENDBRANCH  19  28
ENDBRANCH  18  19
ENDBRANCH   1  18
TORSDOF 6
ENDMDL
MODEL 7
REMARK VINA RESULT:      -7.3      3.772      7.794
REMARK  6 active torsions:
REMARK  status: ('A' for Active; 'I' for Inactive)
REMARK    1  A    between atoms: C_2  and  C_4 
REMARK    2  A    between atoms: C_2  and  C_11 
REMARK    3  A    between atoms: C_2  and  O_3 
REMARK    4  A    between atoms: C_11  and  N_12 
REMARK       I    between atoms: N_12  and  C_13 
REMARK    5  A    between atoms: C_13  and  C_14 
REMARK    6  A    between atoms: C_15  and  C_16 
ROOT
HETATM    1  N   UNL     1     -42.076  55.827 -56.358  1.00  0.00    -0.354 N 
HETATM    2  C   UNL     1     -43.021  56.827 -56.332  1.00  0.00     0.255 C 
HETATM    3  O   UNL     1     -43.963  56.809 -55.545  1.00  0.00    -0.268 OA
HETATM    4  H   UNL     1     -41.475  55.778 -57.170  1.00  0.00     0.162 HD
ENDROOT
BRANCH   2   5
HETATM    5  C   UNL     1     -42.815  57.885 -57.307  1.00  0.00     0.080 A 
HETATM    6  C   UNL     1     -43.418  58.045 -58.595  1.00  0.00     0.107 A 
HETATM    7  N   UNL     1     -43.041  59.209 -59.158  1.00  0.00    -0.173 NA
HETATM    8  N   UNL     1     -42.194  59.753 -58.279  1.00  0.00    -0.288 N 
HETATM    9  H   UNL     1     -41.779  60.650 -58.508  1.00  0.00     0.188 HD
HETATM   10  C   UNL     1     -42.015  59.003 -57.157  1.00  0.00     0.128 A 
BRANCH   6  11
HETATM   11  C   UNL     1     -44.316  57.143 -59.308  1.00  0.00     0.034 A 
HETATM   12  C   UNL     1     -43.834  55.996 -59.943  1.00  0.00     0.129 A 
HETATM   13  F   UNL     1     -42.524  55.707 -59.931  1.00  0.00    -0.205 F 
HETATM   14  C   UNL     1     -44.691  55.138 -60.632  1.00  0.00     0.043 A 
HETATM   15  C   UNL     1     -46.051  55.429 -60.704  1.00  0.00     0.003 A 
HETATM   16  C   UNL     1     -46.548  56.579 -60.091  1.00  0.00     0.001 A 
HETATM   17  C   UNL     1     -45.685  57.435 -59.398  1.00  0.00     0.017 A 
ENDBRANCH   6  11
ENDBRANCH   2   5
BRANCH   1  18
HETATM   18  C   UNL     1     -42.128  54.676 -55.465  1.00  0.00     0.165 C 
BRANCH  18  19
HETATM   19  C   UNL     1     -41.612  54.928 -54.013  1.00  0.00     0.097 C 
HETATM   20  C   UNL     1     -40.625  56.107 -54.034  1.00  0.00     0.053 C 
BRANCH  19  21
HETATM   21  C   UNL     1     -40.919  53.714 -53.387  1.00  0.00    -0.023 A 
HETATM   22  C   UNL     1     -40.474  52.640 -54.182  1.00  0.00     0.013 A 
HETATM   23  C   UNL     1     -39.840  51.536 -53.606  1.00  0.00     0.043 A 
HETATM   24  C   UNL     1     -39.636  51.499 -52.234  1.00  0.00     0.116 A 
HETATM   25  F   UNL     1     -39.026  50.440 -51.684  1.00  0.00    -0.206 F 
HETATM   26  C   UNL     1     -40.050  52.547 -51.425  1.00  0.00     0.043 A 
HETATM   27  C   UNL     1     -40.685  53.650 -52.001  1.00  0.00     0.013 A 
ENDBRANCH  19  21
BRANCH  19  28
HETATM   28  O   UNL     1     -42.695  55.370 -53.180  1.00  0.00    -0.384 OA
HETATM   29  H   UNL     1     -42.450  55.189 -52.246  1.00  0.00     0.211 HD
ENDBRANCH  19  28
ENDBRANCH  18  19
ENDBRANCH   1  18
TORSDOF 6
ENDMDL
MODEL 8
REMARK VINA RESULT:      -7.3      2.876      6.550
REMARK  6 active torsions:
REMARK  status: ('A' for Active; 'I' for Inactive)
REMARK    1  A    between atoms: C_2  and  C_4 
REMARK    2  A    between atoms: C_2  and  C_11 
REMARK    3  A    between atoms: C_2  and  O_3 
REMARK    4  A    between atoms: C_11  and  N_12 
REMARK       I    between atoms: N_12  and  C_13 
REMARK    5  A    between atoms: C_13  and  C_14 
REMARK    6  A    between atoms: C_15  and  C_16 
ROOT
HETATM    1  N   UNL     1     -42.094  56.706 -50.747  1.00  0.00    -0.354 N 
HETATM    2  C   UNL     1     -41.912  57.628 -51.752  1.00  0.00     0.255 C 
HETATM    3  O   UNL     1     -40.794  57.938 -52.153  1.00  0.00    -0.268 OA
HETATM    4  H   UNL     1     -43.003  56.673 -50.307  1.00  0.00     0.162 HD
ENDROOT
BRANCH   2   5
HETATM    5  C   UNL     1     -43.138  58.200 -52.283  1.00  0.00     0.080 A 
HETATM    6  C   UNL     1     -43.864  57.828 -53.459  1.00  0.00     0.107 A 
HETATM    7  N   UNL     1     -45.006  58.534 -53.559  1.00  0.00    -0.173 NA
HETATM    8  N   UNL     1     -44.989  59.359 -52.508  1.00  0.00    -0.288 N 
HETATM    9  H   UNL     1     -45.770  59.996 -52.389  1.00  0.00     0.188 HD
HETATM   10  C   UNL     1     -43.894  59.209 -51.715  1.00  0.00     0.128 A 
BRANCH   6  11
HETATM   11  C   UNL     1     -43.515  56.848 -54.483  1.00  0.00     0.034 A 
HETATM   12  C   UNL     1     -43.503  55.480 -54.200  1.00  0.00     0.129 A 
HETATM   13  F   UNL     1     -43.794  55.034 -52.969  1.00  0.00    -0.205 F 
HETATM   14  C   UNL     1     -43.161  54.544 -55.175  1.00  0.00     0.043 A 
HETATM   15  C   UNL     1     -42.812  54.973 -56.454  1.00  0.00     0.003 A 
HETATM   16  C   UNL     1     -42.800  56.336 -56.749  1.00  0.00     0.001 A 
HETATM   17  C   UNL     1     -43.147  57.271 -55.768  1.00  0.00     0.017 A 
ENDBRANCH   6  11
ENDBRANCH   2   5
BRANCH   1  18
HETATM   18  C   UNL     1     -40.980  56.040 -50.083  1.00  0.00     0.165 C 
BRANCH  18  19
HETATM   19  C   UNL     1     -41.188  54.522 -49.781  1.00  0.00     0.097 C 
HETATM   20  C   UNL     1     -40.439  54.167 -48.486  1.00  0.00     0.053 C 
BRANCH  19  21
HETATM   21  C   UNL     1     -40.702  53.599 -50.902  1.00  0.00    -0.023 A 
HETATM   22  C   UNL     1     -40.770  53.993 -52.252  1.00  0.00     0.013 A 
HETATM   23  C   UNL     1     -40.323  53.148 -53.270  1.00  0.00     0.043 A 
HETATM   24  C   UNL     1     -39.795  51.905 -52.949  1.00  0.00     0.116 A 
HETATM   25  F   UNL     1     -39.365  51.097 -53.928  1.00  0.00    -0.206 F 
HETATM   26  C   UNL     1     -39.701  51.492 -51.629  1.00  0.00     0.043 A 
HETATM   27  C   UNL     1     -40.150  52.337 -50.611  1.00  0.00     0.013 A 
ENDBRANCH  19  21
BRANCH  19  28
HETATM   28  O   UNL     1     -42.570  54.267 -49.487  1.00  0.00    -0.384 OA
HETATM   29  H   UNL     1     -42.941  55.069 -49.059  1.00  0.00     0.211 HD
ENDBRANCH  19  28
ENDBRANCH  18  19
ENDBRANCH   1  18
TORSDOF 6
ENDMDL
MODEL 9
REMARK VINA RESULT:      -7.2      2.878      6.331
REMARK  6 active torsions:
REMARK  status: ('A' for Active; 'I' for Inactive)
REMARK    1  A    between atoms: C_2  and  C_4 
REMARK    2  A    between atoms: C_2  and  C_11 
REMARK    3  A    between atoms: C_2  and  O_3 
REMARK    4  A    between atoms: C_11  and  N_12 
REMARK       I    between atoms: N_12  and  C_13 
REMARK    5  A    between atoms: C_13  and  C_14 
REMARK    6  A    between atoms: C_15  and  C_16 
ROOT
HETATM    1  N   UNL     1     -42.731  56.146 -53.938  1.00  0.00    -0.354 N 
HETATM    2  C   UNL     1     -43.610  57.125 -54.343  1.00  0.00     0.255 C 
HETATM    3  O   UNL     1     -44.818  57.034 -54.144  1.00  0.00    -0.268 OA
HETATM    4  H   UNL     1     -41.801  56.164 -54.335  1.00  0.00     0.162 HD
ENDROOT
BRANCH   2   5
HETATM    5  C   UNL     1     -42.994  58.252 -55.023  1.00  0.00     0.080 A 
HETATM    6  C   UNL     1     -42.134  59.262 -54.484  1.00  0.00     0.107 A 
HETATM    7  N   UNL     1     -41.691  60.081 -55.457  1.00  0.00    -0.173 NA
HETATM    8  N   UNL     1     -42.283  59.638 -56.570  1.00  0.00    -0.288 N 
HETATM    9  H   UNL     1     -42.088  60.123 -57.440  1.00  0.00     0.188 HD
HETATM   10  C   UNL     1     -43.078  58.551 -56.370  1.00  0.00     0.128 A 
BRANCH   6  11
HETATM   11  C   UNL     1     -41.730  59.482 -53.100  1.00  0.00     0.034 A 
HETATM   12  C   UNL     1     -40.536  58.955 -52.602  1.00  0.00     0.129 A 
HETATM   13  F   UNL     1     -39.738  58.212 -53.385  1.00  0.00    -0.205 F 
HETATM   14  C   UNL     1     -40.153  59.157 -51.277  1.00  0.00     0.043 A 
HETATM   15  C   UNL     1     -40.977  59.887 -50.423  1.00  0.00     0.003 A 
HETATM   16  C   UNL     1     -42.182  60.405 -50.896  1.00  0.00     0.001 A 
HETATM   17  C   UNL     1     -42.560  60.202 -52.228  1.00  0.00     0.017 A 
ENDBRANCH   6  11
ENDBRANCH   2   5
BRANCH   1  18
HETATM   18  C   UNL     1     -43.167  54.935 -53.255  1.00  0.00     0.165 C 
BRANCH  18  19
HETATM   19  C   UNL     1     -42.183  54.378 -52.178  1.00  0.00     0.097 C 
HETATM   20  C   UNL     1     -41.309  55.533 -51.660  1.00  0.00     0.053 C 
BRANCH  19  21
HETATM   21  C   UNL     1     -41.271  53.262 -52.694  1.00  0.00    -0.023 A 
HETATM   22  C   UNL     1     -41.350  52.816 -54.028  1.00  0.00     0.013 A 
HETATM   23  C   UNL     1     -40.514  51.798 -54.494  1.00  0.00     0.043 A 
HETATM   24  C   UNL     1     -39.585  51.225 -53.638  1.00  0.00     0.116 A 
HETATM   25  F   UNL     1     -38.783  50.251 -54.088  1.00  0.00    -0.206 F 
HETATM   26  C   UNL     1     -39.473  51.651 -52.322  1.00  0.00     0.043 A 
HETATM   27  C   UNL     1     -40.310  52.667 -51.856  1.00  0.00     0.013 A 
ENDBRANCH  19  21
BRANCH  19  28
HETATM   28  O   UNL     1     -42.919  53.931 -51.028  1.00  0.00    -0.384 OA
HETATM   29  H   UNL     1     -43.787  54.389 -51.029  1.00  0.00     0.211 HD
ENDBRANCH  19  28
ENDBRANCH  18  19
ENDBRANCH   1  18
TORSDOF 6
ENDMDL
MODEL 10
REMARK VINA RESULT:      -7.2      2.910      4.487
REMARK  6 active torsions:
REMARK  status: ('A' for Active; 'I' for Inactive)
REMARK    1  A    between atoms: C_2  and  C_4 
REMARK    2  A    between atoms: C_2  and  C_11 
REMARK    3  A    between atoms: C_2  and  O_3 
REMARK    4  A    between atoms: C_11  and  N_12 
REMARK       I    between atoms: N_12  and  C_13 
REMARK    5  A    between atoms: C_13  and  C_14 
REMARK    6  A    between atoms: C_15  and  C_16 
ROOT
HETATM    1  N   UNL     1     -44.709  57.809 -53.969  1.00  0.00    -0.354 N 
HETATM    2  C   UNL     1     -43.589  57.964 -54.753  1.00  0.00     0.255 C 
HETATM    3  O   UNL     1     -42.848  58.936 -54.640  1.00  0.00    -0.268 OA
HETATM    4  H   UNL     1     -45.394  57.127 -54.266  1.00  0.00     0.162 HD
ENDROOT
BRANCH   2   5
HETATM    5  C   UNL     1     -43.368  56.899 -55.716  1.00  0.00     0.080 A 
HETATM    6  C   UNL     1     -42.898  55.566 -55.485  1.00  0.00     0.107 A 
HETATM    7  N   UNL     1     -42.919  54.847 -56.623  1.00  0.00    -0.173 NA
HETATM    8  N   UNL     1     -43.346  55.703 -57.557  1.00  0.00    -0.288 N 
HETATM    9  H   UNL     1     -43.436  55.365 -58.510  1.00  0.00     0.188 HD
HETATM   10  C   UNL     1     -43.623  56.945 -57.074  1.00  0.00     0.128 A 
BRANCH   6  11
HETATM   11  C   UNL     1     -42.425  54.961 -54.245  1.00  0.00     0.034 A 
HETATM   12  C   UNL     1     -41.062  54.749 -54.017  1.00  0.00     0.129 A 
HETATM   13  F   UNL     1     -40.154  55.079 -54.948  1.00  0.00    -0.205 F 
HETATM   14  C   UNL     1     -40.610  54.162 -52.836  1.00  0.00     0.043 A 
HETATM   15  C   UNL     1     -41.527  53.766 -51.865  1.00  0.00     0.003 A 
HETATM   16  C   UNL     1     -42.892  53.953 -52.082  1.00  0.00     0.001 A 
HETATM   17  C   UNL     1     -43.340  54.545 -53.267  1.00  0.00     0.017 A 
ENDBRANCH   6  11
ENDBRANCH   2   5
BRANCH   1  18
HETATM   18  C   UNL     1     -45.101  58.785 -52.959  1.00  0.00     0.165 C 
BRANCH  18  19
HETATM   19  C   UNL     1     -44.701  58.432 -51.492  1.00  0.00     0.097 C 
HETATM   20  C   UNL     1     -45.463  59.361 -50.532  1.00  0.00     0.053 C 
BRANCH  19  21
HETATM   21  C   UNL     1     -43.200  58.561 -51.215  1.00  0.00    -0.023 A 
HETATM   22  C   UNL     1     -42.357  57.433 -51.232  1.00  0.00     0.013 A 
HETATM   23  C   UNL     1     -40.988  57.557 -50.981  1.00  0.00     0.043 A 
HETATM   24  C   UNL     1     -40.447  58.808 -50.721  1.00  0.00     0.116 A 
HETATM   25  F   UNL     1     -39.134  58.924 -50.482  1.00  0.00    -0.206 F 
HETATM   26  C   UNL     1     -41.248  59.940 -50.709  1.00  0.00     0.043 A 
HETATM   27  C   UNL     1     -42.617  59.816 -50.959  1.00  0.00     0.013 A 
ENDBRANCH  19  21
BRANCH  19  28
HETATM   28  O   UNL     1     -45.158  57.111 -51.164  1.00  0.00    -0.384 OA
HETATM   29  H   UNL     1     -46.134  57.095 -51.271  1.00  0.00     0.211 HD
ENDBRANCH  19  28
ENDBRANCH  18  19
ENDBRANCH   1  18
TORSDOF 6
ENDMDL
