MODEL 1
REMARK VINA RESULT:      -9.9      0.000      0.000
REMARK  5 active torsions:
REMARK  status: ('A' for Active; 'I' for Inactive)
REMARK    1  A    between atoms: C_7  and  C_8 
REMARK    2  A    between atoms: C_16  and  C_17 
REMARK    3  A    between atoms: C_19  and  O_20 
REMARK    4  A    between atoms: C_24  and  C_25 
REMARK       I    between atoms: C_25  and  N_26 
REMARK    5  A    between atoms: N_26  and  C_27 
ROOT
HETATM    1  C   UNL     1     -45.427  57.839 -55.465  1.00  0.00     0.070 C 
HETATM    2  C   UNL     1     -44.140  57.426 -54.793  1.00  0.00     0.037 C 
HETATM    3  N   UNL     1     -44.184  56.209 -54.106  1.00  0.00    -0.192 N 
HETATM    4  C   UNL     1     -43.062  55.564 -53.723  1.00  0.00     0.726 A 
HETATM    5  N   UNL     1     -41.877  56.238 -53.728  1.00  0.00    -0.083 N 
HETATM    6  N   UNL     1     -40.839  55.429 -53.451  1.00  0.00    -0.135 NA
HETATM    7  C   UNL     1     -41.470  54.258 -53.237  1.00  0.00     0.199 A 
HETATM    8  N   UNL     1     -42.848  54.319 -53.388  1.00  0.00    -0.041 NA
HETATM    9  C   UNL     1     -41.745  57.648 -54.094  1.00  0.00     0.202 C 
HETATM   10  C   UNL     1     -42.983  58.139 -54.839  1.00  0.00     0.062 C 
HETATM   11  H   UNL     1     -45.022  55.647 -54.240  1.00  0.00     0.184 HD
ENDROOT
BRANCH  10  12
HETATM   12  C   UNL     1     -42.818  59.278 -55.798  1.00  0.00     0.256 C 
HETATM   13  N   UNL     1     -42.076  58.986 -56.922  1.00  0.00    -0.323 N 
HETATM   14  H   UNL     1     -41.608  58.092 -56.978  1.00  0.00     0.169 HD
HETATM   15  O   UNL     1     -43.382  60.341 -55.564  1.00  0.00    -0.267 OA
BRANCH  13  16
HETATM   16  C   UNL     1     -41.891  59.806 -58.059  1.00  0.00     0.035 A 
HETATM   17  C   UNL     1     -41.262  61.053 -58.035  1.00  0.00     0.029 A 
HETATM   18  C   UNL     1     -41.144  61.810 -59.205  1.00  0.00     0.002 A 
HETATM   19  C   UNL     1     -41.659  61.332 -60.407  1.00  0.00     0.000 A 
HETATM   20  C   UNL     1     -42.287  60.091 -60.442  1.00  0.00     0.002 A 
HETATM   21  C   UNL     1     -42.397  59.329 -59.277  1.00  0.00     0.029 A 
ENDBRANCH  13  16
ENDBRANCH  10  12
BRANCH   9  22
HETATM   22  C   UNL     1     -41.430  58.457 -52.833  1.00  0.00    -0.025 A 
HETATM   23  C   UNL     1     -40.108  58.752 -52.445  1.00  0.00     0.046 A 
HETATM   24  C   UNL     1     -39.867  59.471 -51.277  1.00  0.00     0.066 A 
HETATM   25  C   UNL     1     -40.915  59.924 -50.489  1.00  0.00     0.036 A 
HETATM   26  C   UNL     1     -42.228  59.664 -50.873  1.00  0.00     0.003 A 
HETATM   27  C   UNL     1     -42.486  58.938 -52.038  1.00  0.00     0.010 A 
BRANCH  24  28
HETATM   28  O   UNL     1     -38.598  59.754 -50.867  1.00  0.00    -0.361 OA
HETATM   29  H   UNL     1     -38.071  58.938 -50.870  1.00  0.00     0.217 HD
ENDBRANCH  24  28
ENDBRANCH   9  22
BRANCH   7  30
HETATM   30  C   UNL     1     -40.772  53.014 -52.924  1.00  0.00     0.016 A 
HETATM   31  C   UNL     1     -40.521  52.062 -53.922  1.00  0.00     0.039 A 
HETATM   32  C   UNL     1     -39.875  50.868 -53.605  1.00  0.00     0.035 A 
HETATM   33 CL   UNL     1     -39.577  49.705 -54.839  1.00  0.00    -0.084 Cl
HETATM   34  C   UNL     1     -39.472  50.604 -52.298  1.00  0.00     0.024 A 
HETATM   35  C   UNL     1     -39.715  51.545 -51.297  1.00  0.00     0.003 A 
HETATM   36  C   UNL     1     -40.359  52.745 -51.610  1.00  0.00     0.015 A 
ENDBRANCH   7  30
TORSDOF 5
ENDMDL
MODEL 2
REMARK VINA RESULT:      -9.8      1.682      1.905
REMARK  5 active torsions:
REMARK  status: ('A' for Active; 'I' for Inactive)
REMARK    1  A    between atoms: C_7  and  C_8 
REMARK    2  A    between atoms: C_16  and  C_17 
REMARK    3  A    between atoms: C_19  and  O_20 
REMARK    4  A    between atoms: C_24  and  C_25 
REMARK       I    between atoms: C_25  and  N_26 
REMARK    5  A    between atoms: N_26  and  C_27 
ROOT
HETATM    1  C   UNL     1     -44.802  57.784 -57.574  1.00  0.00     0.070 C 
HETATM    2  C   UNL     1     -43.902  57.502 -56.396  1.00  0.00     0.037 C 
HETATM    3  N   UNL     1     -43.978  56.206 -55.878  1.00  0.00    -0.192 N 
HETATM    4  C   UNL     1     -43.038  55.713 -55.044  1.00  0.00     0.726 A 
HETATM    5  N   UNL     1     -42.163  56.575 -54.451  1.00  0.00    -0.083 N 
HETATM    6  N   UNL     1     -41.211  55.925 -53.759  1.00  0.00    -0.135 NA
HETATM    7  C   UNL     1     -41.590  54.644 -53.932  1.00  0.00     0.199 A 
HETATM    8  N   UNL     1     -42.725  54.488 -54.714  1.00  0.00    -0.041 NA
HETATM    9  C   UNL     1     -42.199  58.026 -54.635  1.00  0.00     0.202 C 
HETATM   10  C   UNL     1     -43.041  58.403 -55.851  1.00  0.00     0.062 C 
HETATM   11  H   UNL     1     -44.515  55.535 -56.422  1.00  0.00     0.184 HD
ENDROOT
BRANCH  10  12
HETATM   12  C   UNL     1     -42.720  59.686 -56.555  1.00  0.00     0.256 C 
HETATM   13  N   UNL     1     -41.826  59.567 -57.596  1.00  0.00    -0.323 N 
HETATM   14  H   UNL     1     -41.368  58.678 -57.747  1.00  0.00     0.169 HD
HETATM   15  O   UNL     1     -43.297  60.713 -56.215  1.00  0.00    -0.267 OA
BRANCH  13  16
HETATM   16  C   UNL     1     -41.464  60.566 -58.528  1.00  0.00     0.035 A 
HETATM   17  C   UNL     1     -40.670  61.674 -58.224  1.00  0.00     0.029 A 
HETATM   18  C   UNL     1     -40.381  62.630 -59.204  1.00  0.00     0.002 A 
HETATM   19  C   UNL     1     -40.888  62.491 -60.493  1.00  0.00     0.000 A 
HETATM   20  C   UNL     1     -41.680  61.390 -60.807  1.00  0.00     0.002 A 
HETATM   21  C   UNL     1     -41.961  60.430 -59.833  1.00  0.00     0.029 A 
ENDBRANCH  13  16
ENDBRANCH  10  12
BRANCH   9  22
HETATM   22  C   UNL     1     -42.678  58.676 -53.334  1.00  0.00    -0.025 A 
HETATM   23  C   UNL     1     -43.654  58.075 -52.514  1.00  0.00     0.046 A 
HETATM   24  C   UNL     1     -44.078  58.714 -51.351  1.00  0.00     0.066 A 
HETATM   25  C   UNL     1     -43.538  59.933 -50.970  1.00  0.00     0.036 A 
HETATM   26  C   UNL     1     -42.553  60.527 -51.756  1.00  0.00     0.003 A 
HETATM   27  C   UNL     1     -42.122  59.902 -52.929  1.00  0.00     0.010 A 
BRANCH  24  28
HETATM   28  O   UNL     1     -45.034  58.166 -50.549  1.00  0.00    -0.361 OA
HETATM   29  H   UNL     1     -44.651  57.976 -49.677  1.00  0.00     0.217 HD
ENDBRANCH  24  28
ENDBRANCH   9  22
BRANCH   7  30
HETATM   30  C   UNL     1     -40.851  53.506 -53.392  1.00  0.00     0.016 A 
HETATM   31  C   UNL     1     -40.598  52.375 -54.183  1.00  0.00     0.039 A 
HETATM   32  C   UNL     1     -39.912  51.285 -53.648  1.00  0.00     0.035 A 
HETATM   33 CL   UNL     1     -39.614  49.901 -54.626  1.00  0.00    -0.084 Cl
HETATM   34  C   UNL     1     -39.471  51.304 -52.327  1.00  0.00     0.024 A 
HETATM   35  C   UNL     1     -39.714  52.424 -51.532  1.00  0.00     0.003 A 
HETATM   36  C   UNL     1     -40.398  53.520 -52.064  1.00  0.00     0.015 A 
ENDBRANCH   7  30
TORSDOF 5
ENDMDL
MODEL 3
REMARK VINA RESULT:      -9.6      3.862      9.337
REMARK  5 active torsions:
REMARK  status: ('A' for Active; 'I' for Inactive)
REMARK    1  A    between atoms: C_7  and  C_8 
REMARK    2  A    between atoms: C_16  and  C_17 
REMARK    3  A    between atoms: C_19  and  O_20 
REMARK    4  A    between atoms: C_24  and  C_25 
REMARK       I    between atoms: C_25  and  N_26 
REMARK    5  A    between atoms: N_26  and  C_27 
ROOT
HETATM    1  C   UNL     1     -43.323  57.679 -53.735  1.00  0.00     0.070 C 
HETATM    2  C   UNL     1     -43.079  57.867 -55.213  1.00  0.00     0.037 C 
HETATM    3  N   UNL     1     -43.115  59.189 -55.665  1.00  0.00    -0.192 N 
HETATM    4  C   UNL     1     -42.623  59.547 -56.869  1.00  0.00     0.726 A 
HETATM    5  N   UNL     1     -42.362  58.577 -57.791  1.00  0.00    -0.083 N 
HETATM    6  N   UNL     1     -41.756  59.074 -58.884  1.00  0.00    -0.135 NA
HETATM    7  C   UNL     1     -41.713  60.387 -58.584  1.00  0.00     0.199 A 
HETATM    8  N   UNL     1     -42.254  60.706 -57.348  1.00  0.00    -0.041 NA
HETATM    9  C   UNL     1     -42.618  57.154 -57.570  1.00  0.00     0.202 C 
HETATM   10  C   UNL     1     -42.815  56.857 -56.085  1.00  0.00     0.062 C 
HETATM   11  H   UNL     1     -43.156  59.909 -54.946  1.00  0.00     0.184 HD
ENDROOT
BRANCH  10  12
HETATM   12  C   UNL     1     -42.478  55.483 -55.594  1.00  0.00     0.256 C 
HETATM   13  N   UNL     1     -41.285  55.388 -54.911  1.00  0.00    -0.323 N 
HETATM   14  H   UNL     1     -40.675  56.194 -54.881  1.00  0.00     0.169 HD
HETATM   15  O   UNL     1     -43.282  54.574 -55.769  1.00  0.00    -0.267 OA
BRANCH  13  16
HETATM   16  C   UNL     1     -40.792  54.266 -54.206  1.00  0.00     0.035 A 
HETATM   17  C   UNL     1     -40.302  53.109 -54.814  1.00  0.00     0.029 A 
HETATM   18  C   UNL     1     -39.856  52.034 -54.037  1.00  0.00     0.002 A 
HETATM   19  C   UNL     1     -39.905  52.103 -52.648  1.00  0.00     0.000 A 
HETATM   20  C   UNL     1     -40.391  53.252 -52.031  1.00  0.00     0.002 A 
HETATM   21  C   UNL     1     -40.827  54.330 -52.805  1.00  0.00     0.029 A 
ENDBRANCH  13  16
ENDBRANCH  10  12
BRANCH   9  22
HETATM   22  C   UNL     1     -43.800  56.724 -58.441  1.00  0.00    -0.025 A 
HETATM   23  C   UNL     1     -43.755  55.568 -59.246  1.00  0.00     0.046 A 
HETATM   24  C   UNL     1     -44.845  55.227 -60.042  1.00  0.00     0.066 A 
HETATM   25  C   UNL     1     -45.996  56.002 -60.044  1.00  0.00     0.036 A 
HETATM   26  C   UNL     1     -46.068  57.132 -59.233  1.00  0.00     0.003 A 
HETATM   27  C   UNL     1     -44.979  57.491 -58.434  1.00  0.00     0.010 A 
BRANCH  24  28
HETATM   28  O   UNL     1     -44.822  54.126 -60.845  1.00  0.00    -0.361 OA
HETATM   29  H   UNL     1     -43.914  53.977 -61.158  1.00  0.00     0.217 HD
ENDBRANCH  24  28
ENDBRANCH   9  22
BRANCH   7  30
HETATM   30  C   UNL     1     -41.106  61.391 -59.454  1.00  0.00     0.016 A 
HETATM   31  C   UNL     1     -40.211  62.340 -58.938  1.00  0.00     0.039 A 
HETATM   32  C   UNL     1     -39.657  63.308 -59.775  1.00  0.00     0.035 A 
HETATM   33 CL   UNL     1     -38.565  64.470 -59.128  1.00  0.00    -0.084 Cl
HETATM   34  C   UNL     1     -39.983  63.347 -61.128  1.00  0.00     0.024 A 
HETATM   35  C   UNL     1     -40.870  62.407 -61.653  1.00  0.00     0.003 A 
HETATM   36  C   UNL     1     -41.426  61.433 -60.820  1.00  0.00     0.015 A 
ENDBRANCH   7  30
TORSDOF 5
ENDMDL
MODEL 4
REMARK VINA RESULT:      -9.5      3.837      9.242
REMARK  5 active torsions:
REMARK  status: ('A' for Active; 'I' for Inactive)
REMARK    1  A    between atoms: C_7  and  C_8 
REMARK    2  A    between atoms: C_16  and  C_17 
REMARK    3  A    between atoms: C_19  and  O_20 
REMARK    4  A    between atoms: C_24  and  C_25 
REMARK       I    between atoms: C_25  and  N_26 
REMARK    5  A    between atoms: N_26  and  C_27 
ROOT
HETATM    1  C   UNL     1     -43.886  57.515 -53.690  1.00  0.00     0.070 C 
HETATM    2  C   UNL     1     -43.473  57.708 -55.129  1.00  0.00     0.037 C 
HETATM    3  N   UNL     1     -43.538  59.022 -55.602  1.00  0.00    -0.192 N 
HETATM    4  C   UNL     1     -42.924  59.403 -56.742  1.00  0.00     0.726 A 
HETATM    5  N   UNL     1     -42.490  58.446 -57.610  1.00  0.00    -0.083 N 
HETATM    6  N   UNL     1     -41.786  58.974 -58.628  1.00  0.00    -0.135 NA
HETATM    7  C   UNL     1     -41.864  60.289 -58.345  1.00  0.00     0.199 A 
HETATM    8  N   UNL     1     -42.574  60.580 -57.189  1.00  0.00    -0.041 NA
HETATM    9  C   UNL     1     -42.680  57.011 -57.401  1.00  0.00     0.202 C 
HETATM   10  C   UNL     1     -43.040  56.712 -55.948  1.00  0.00     0.062 C 
HETATM   11  H   UNL     1     -43.713  59.742 -54.905  1.00  0.00     0.184 HD
ENDROOT
BRANCH  10  12
HETATM   12  C   UNL     1     -42.679  55.366 -55.398  1.00  0.00     0.256 C 
HETATM   13  N   UNL     1     -41.427  55.289 -54.829  1.00  0.00    -0.323 N 
HETATM   14  H   UNL     1     -40.803  56.081 -54.914  1.00  0.00     0.169 HD
HETATM   15  O   UNL     1     -43.511  54.466 -55.432  1.00  0.00    -0.267 OA
BRANCH  13  16
HETATM   16  C   UNL     1     -40.886  54.206 -54.100  1.00  0.00     0.035 A 
HETATM   17  C   UNL     1     -40.324  53.068 -54.683  1.00  0.00     0.029 A 
HETATM   18  C   UNL     1     -39.833  52.030 -53.883  1.00  0.00     0.002 A 
HETATM   19  C   UNL     1     -39.908  52.116 -52.496  1.00  0.00     0.000 A 
HETATM   20  C   UNL     1     -40.466  53.245 -51.904  1.00  0.00     0.002 A 
HETATM   21  C   UNL     1     -40.946  54.287 -52.701  1.00  0.00     0.029 A 
ENDBRANCH  13  16
ENDBRANCH  10  12
BRANCH   9  22
HETATM   22  C   UNL     1     -43.716  56.498 -58.404  1.00  0.00    -0.025 A 
HETATM   23  C   UNL     1     -44.911  57.197 -58.666  1.00  0.00     0.046 A 
HETATM   24  C   UNL     1     -45.838  56.682 -59.570  1.00  0.00     0.066 A 
HETATM   25  C   UNL     1     -45.595  55.492 -60.239  1.00  0.00     0.036 A 
HETATM   26  C   UNL     1     -44.406  54.803 -60.012  1.00  0.00     0.003 A 
HETATM   27  C   UNL     1     -43.470  55.303 -59.103  1.00  0.00     0.010 A 
BRANCH  24  28
HETATM   28  O   UNL     1     -47.011  57.326 -59.828  1.00  0.00    -0.361 OA
HETATM   29  H   UNL     1     -47.335  57.063 -60.705  1.00  0.00     0.217 HD
ENDBRANCH  24  28
ENDBRANCH   9  22
BRANCH   7  30
HETATM   30  C   UNL     1     -41.220  61.324 -59.148  1.00  0.00     0.016 A 
HETATM   31  C   UNL     1     -41.495  61.443 -60.518  1.00  0.00     0.039 A 
HETATM   32  C   UNL     1     -40.855  62.420 -61.280  1.00  0.00     0.035 A 
HETATM   33 CL   UNL     1     -41.198  62.551 -62.961  1.00  0.00    -0.084 Cl
HETATM   34  C   UNL     1     -39.938  63.288 -60.693  1.00  0.00     0.024 A 
HETATM   35  C   UNL     1     -39.658  63.181 -59.331  1.00  0.00     0.003 A 
HETATM   36  C   UNL     1     -40.298  62.205 -58.563  1.00  0.00     0.015 A 
ENDBRANCH   7  30
TORSDOF 5
ENDMDL
MODEL 5
REMARK VINA RESULT:      -9.2      2.407      3.339
REMARK  5 active torsions:
REMARK  status: ('A' for Active; 'I' for Inactive)
REMARK    1  A    between atoms: C_7  and  C_8 
REMARK    2  A    between atoms: C_16  and  C_17 
REMARK    3  A    between atoms: C_19  and  O_20 
REMARK    4  A    between atoms: C_24  and  C_25 
REMARK       I    between atoms: C_25  and  N_26 
REMARK    5  A    between atoms: N_26  and  C_27 
ROOT
HETATM    1  C   UNL     1     -44.078  55.858 -59.634  1.00  0.00     0.070 C 
HETATM    2  C   UNL     1     -43.410  56.080 -58.299  1.00  0.00     0.037 C 
HETATM    3  N   UNL     1     -43.577  55.054 -57.365  1.00  0.00    -0.192 N 
HETATM    4  C   UNL     1     -42.806  54.958 -56.262  1.00  0.00     0.726 A 
HETATM    5  N   UNL     1     -42.057  56.032 -55.883  1.00  0.00    -0.083 N 
HETATM    6  N   UNL     1     -41.247  55.741 -54.850  1.00  0.00    -0.135 NA
HETATM    7  C   UNL     1     -41.586  54.459 -54.607  1.00  0.00     0.199 A 
HETATM    8  N   UNL     1     -42.557  53.956 -55.459  1.00  0.00    -0.041 NA
HETATM    9  C   UNL     1     -42.061  57.315 -56.587  1.00  0.00     0.202 C 
HETATM   10  C   UNL     1     -42.666  57.173 -57.981  1.00  0.00     0.062 C 
HETATM   11  H   UNL     1     -44.004  54.197 -57.710  1.00  0.00     0.184 HD
ENDROOT
BRANCH  10  12
HETATM   12  C   UNL     1     -42.223  58.138 -59.039  1.00  0.00     0.256 C 
HETATM   13  N   UNL     1     -42.340  59.467 -58.696  1.00  0.00    -0.323 N 
HETATM   14  H   UNL     1     -42.806  59.708 -57.831  1.00  0.00     0.169 HD
HETATM   15  O   UNL     1     -41.745  57.702 -60.080  1.00  0.00    -0.267 OA
BRANCH  13  16
HETATM   16  C   UNL     1     -41.859  60.581 -59.421  1.00  0.00     0.035 A 
HETATM   17  C   UNL     1     -42.134  60.819 -60.769  1.00  0.00     0.029 A 
HETATM   18  C   UNL     1     -41.595  61.937 -61.417  1.00  0.00     0.002 A 
HETATM   19  C   UNL     1     -40.770  62.819 -60.725  1.00  0.00     0.000 A 
HETATM   20  C   UNL     1     -40.490  62.592 -59.381  1.00  0.00     0.002 A 
HETATM   21  C   UNL     1     -41.036  61.483 -58.731  1.00  0.00     0.029 A 
ENDBRANCH  13  16
ENDBRANCH  10  12
BRANCH   9  22
HETATM   22  C   UNL     1     -42.772  58.353 -55.715  1.00  0.00    -0.025 A 
HETATM   23  C   UNL     1     -42.076  59.406 -55.089  1.00  0.00     0.046 A 
HETATM   24  C   UNL     1     -42.760  60.315 -54.285  1.00  0.00     0.066 A 
HETATM   25  C   UNL     1     -44.131  60.213 -54.101  1.00  0.00     0.036 A 
HETATM   26  C   UNL     1     -44.838  59.194 -54.736  1.00  0.00     0.003 A 
HETATM   27  C   UNL     1     -44.165  58.271 -55.540  1.00  0.00     0.010 A 
BRANCH  24  28
HETATM   28  O   UNL     1     -42.110  61.331 -53.651  1.00  0.00    -0.361 OA
HETATM   29  H   UNL     1     -42.484  62.180 -53.939  1.00  0.00     0.217 HD
ENDBRANCH  24  28
ENDBRANCH   9  22
BRANCH   7  30
HETATM   30  C   UNL     1     -40.957  53.644 -53.571  1.00  0.00     0.016 A 
HETATM   31  C   UNL     1     -40.898  54.092 -52.243  1.00  0.00     0.039 A 
HETATM   32  C   UNL     1     -40.273  53.315 -51.268  1.00  0.00     0.035 A 
HETATM   33 CL   UNL     1     -40.203  53.880 -49.644  1.00  0.00    -0.084 Cl
HETATM   34  C   UNL     1     -39.701  52.089 -51.598  1.00  0.00     0.024 A 
HETATM   35  C   UNL     1     -39.756  51.632 -52.914  1.00  0.00     0.003 A 
HETATM   36  C   UNL     1     -40.383  52.405 -53.895  1.00  0.00     0.015 A 
ENDBRANCH   7  30
TORSDOF 5
ENDMDL
MODEL 6
REMARK VINA RESULT:      -8.9      4.186      8.245
REMARK  5 active torsions:
REMARK  status: ('A' for Active; 'I' for Inactive)
REMARK    1  A    between atoms: C_7  and  C_8 
REMARK    2  A    between atoms: C_16  and  C_17 
REMARK    3  A    between atoms: C_19  and  O_20 
REMARK    4  A    between atoms: C_24  and  C_25 
REMARK       I    between atoms: C_25  and  N_26 
REMARK    5  A    between atoms: N_26  and  C_27 
ROOT
HETATM    1  C   UNL     1     -42.624  56.466 -56.596  1.00  0.00     0.070 C 
HETATM    2  C   UNL     1     -42.933  57.293 -55.372  1.00  0.00     0.037 C 
HETATM    3  N   UNL     1     -43.445  58.570 -55.622  1.00  0.00    -0.192 N 
HETATM    4  C   UNL     1     -44.048  59.299 -54.660  1.00  0.00     0.726 A 
HETATM    5  N   UNL     1     -43.892  58.932 -53.356  1.00  0.00    -0.083 N 
HETATM    6  N   UNL     1     -44.655  59.671 -52.532  1.00  0.00    -0.135 NA
HETATM    7  C   UNL     1     -45.233  60.522 -53.403  1.00  0.00     0.199 A 
HETATM    8  N   UNL     1     -44.863  60.319 -54.725  1.00  0.00    -0.041 NA
HETATM    9  C   UNL     1     -43.073  57.800 -52.922  1.00  0.00     0.202 C 
HETATM   10  C   UNL     1     -42.763  56.868 -54.091  1.00  0.00     0.062 C 
HETATM   11  H   UNL     1     -43.700  58.771 -56.587  1.00  0.00     0.184 HD
ENDROOT
BRANCH  10  12
HETATM   12  C   UNL     1     -42.502  55.425 -53.787  1.00  0.00     0.256 C 
HETATM   13  N   UNL     1     -41.171  55.091 -53.656  1.00  0.00    -0.323 N 
HETATM   14  H   UNL     1     -40.471  55.786 -53.878  1.00  0.00     0.169 HD
HETATM   15  O   UNL     1     -43.453  54.671 -53.618  1.00  0.00    -0.267 OA
BRANCH  13  16
HETATM   16  C   UNL     1     -40.640  53.856 -53.220  1.00  0.00     0.035 A 
HETATM   17  C   UNL     1     -40.358  53.548 -51.888  1.00  0.00     0.029 A 
HETATM   18  C   UNL     1     -39.808  52.306 -51.549  1.00  0.00     0.002 A 
HETATM   19  C   UNL     1     -39.530  51.367 -52.537  1.00  0.00     0.000 A 
HETATM   20  C   UNL     1     -39.808  51.663 -53.868  1.00  0.00     0.002 A 
HETATM   21  C   UNL     1     -40.366  52.898 -54.208  1.00  0.00     0.029 A 
ENDBRANCH  13  16
ENDBRANCH  10  12
BRANCH   9  22
HETATM   22  C   UNL     1     -41.823  58.337 -52.221  1.00  0.00    -0.025 A 
HETATM   23  C   UNL     1     -40.625  58.591 -52.918  1.00  0.00     0.046 A 
HETATM   24  C   UNL     1     -39.504  59.057 -52.236  1.00  0.00     0.066 A 
HETATM   25  C   UNL     1     -39.550  59.296 -50.870  1.00  0.00     0.036 A 
HETATM   26  C   UNL     1     -40.734  59.076 -50.171  1.00  0.00     0.003 A 
HETATM   27  C   UNL     1     -41.865  58.602 -50.840  1.00  0.00     0.010 A 
BRANCH  24  28
HETATM   28  O   UNL     1     -38.327  59.292 -52.881  1.00  0.00    -0.361 OA
HETATM   29  H   UNL     1     -38.371  60.156 -53.323  1.00  0.00     0.217 HD
ENDBRANCH  24  28
ENDBRANCH   9  22
BRANCH   7  30
HETATM   30  C   UNL     1     -46.203  61.539 -53.010  1.00  0.00     0.016 A 
HETATM   31  C   UNL     1     -46.357  61.901 -51.664  1.00  0.00     0.039 A 
HETATM   32  C   UNL     1     -47.304  62.857 -51.299  1.00  0.00     0.035 A 
HETATM   33 CL   UNL     1     -47.486  63.288 -49.642  1.00  0.00    -0.084 Cl
HETATM   34  C   UNL     1     -48.107  63.464 -52.261  1.00  0.00     0.024 A 
HETATM   35  C   UNL     1     -47.961  63.114 -53.603  1.00  0.00     0.003 A 
HETATM   36  C   UNL     1     -47.012  62.158 -53.975  1.00  0.00     0.015 A 
ENDBRANCH   7  30
TORSDOF 5
ENDMDL
MODEL 7
REMARK VINA RESULT:      -8.7      2.073      2.553
REMARK  5 active torsions:
REMARK  status: ('A' for Active; 'I' for Inactive)
REMARK    1  A    between atoms: C_7  and  C_8 
REMARK    2  A    between atoms: C_16  and  C_17 
REMARK    3  A    between atoms: C_19  and  O_20 
REMARK    4  A    between atoms: C_24  and  C_25 
REMARK       I    between atoms: C_25  and  N_26 
REMARK    5  A    between atoms: N_26  and  C_27 
ROOT
HETATM    1  C   UNL     1     -44.293  57.707 -58.021  1.00  0.00     0.070 C 
HETATM    2  C   UNL     1     -43.579  57.392 -56.730  1.00  0.00     0.037 C 
HETATM    3  N   UNL     1     -43.671  56.065 -56.300  1.00  0.00    -0.192 N 
HETATM    4  C   UNL     1     -42.852  55.562 -55.353  1.00  0.00     0.726 A 
HETATM    5  N   UNL     1     -42.128  56.421 -54.580  1.00  0.00    -0.083 N 
HETATM    6  N   UNL     1     -41.266  55.771 -53.779  1.00  0.00    -0.135 NA
HETATM    7  C   UNL     1     -41.547  54.488 -54.079  1.00  0.00     0.199 A 
HETATM    8  N   UNL     1     -42.534  54.333 -55.042  1.00  0.00    -0.041 NA
HETATM    9  C   UNL     1     -42.208  57.878 -54.690  1.00  0.00     0.202 C 
HETATM   10  C   UNL     1     -42.864  58.293 -56.004  1.00  0.00     0.062 C 
HETATM   11  H   UNL     1     -44.079  55.406 -56.959  1.00  0.00     0.184 HD
ENDROOT
BRANCH  10  12
HETATM   12  C   UNL     1     -42.500  59.629 -56.578  1.00  0.00     0.256 C 
HETATM   13  N   UNL     1     -43.410  60.633 -56.329  1.00  0.00    -0.323 N 
HETATM   14  H   UNL     1     -44.291  60.396 -55.891  1.00  0.00     0.169 HD
HETATM   15  O   UNL     1     -41.428  59.756 -57.158  1.00  0.00    -0.267 OA
BRANCH  13  16
HETATM   16  C   UNL     1     -43.258  62.011 -56.606  1.00  0.00     0.035 A 
HETATM   17  C   UNL     1     -42.821  62.523 -57.829  1.00  0.00     0.029 A 
HETATM   18  C   UNL     1     -42.675  63.903 -58.009  1.00  0.00     0.002 A 
HETATM   19  C   UNL     1     -42.955  64.781 -56.966  1.00  0.00     0.000 A 
HETATM   20  C   UNL     1     -43.392  64.282 -55.743  1.00  0.00     0.002 A 
HETATM   21  C   UNL     1     -43.548  62.905 -55.565  1.00  0.00     0.029 A 
ENDBRANCH  13  16
ENDBRANCH  10  12
BRANCH   9  22
HETATM   22  C   UNL     1     -42.920  58.427 -53.452  1.00  0.00    -0.025 A 
HETATM   23  C   UNL     1     -42.212  58.876 -52.319  1.00  0.00     0.046 A 
HETATM   24  C   UNL     1     -42.902  59.346 -51.204  1.00  0.00     0.066 A 
HETATM   25  C   UNL     1     -44.288  59.399 -51.194  1.00  0.00     0.036 A 
HETATM   26  C   UNL     1     -45.002  58.985 -52.316  1.00  0.00     0.003 A 
HETATM   27  C   UNL     1     -44.324  58.505 -53.439  1.00  0.00     0.010 A 
BRANCH  24  28
HETATM   28  O   UNL     1     -42.243  59.768 -50.088  1.00  0.00    -0.361 OA
HETATM   29  H   UNL     1     -41.591  59.096 -49.827  1.00  0.00     0.217 HD
ENDBRANCH  24  28
ENDBRANCH   9  22
BRANCH   7  30
HETATM   30  C   UNL     1     -40.847  53.352 -53.488  1.00  0.00     0.016 A 
HETATM   31  C   UNL     1     -40.498  52.240 -54.269  1.00  0.00     0.039 A 
HETATM   32  C   UNL     1     -39.850  51.150 -53.687  1.00  0.00     0.035 A 
HETATM   33 CL   UNL     1     -39.433  49.790 -54.655  1.00  0.00    -0.084 Cl
HETATM   34  C   UNL     1     -39.542  51.151 -52.329  1.00  0.00     0.024 A 
HETATM   35  C   UNL     1     -39.882  52.252 -51.543  1.00  0.00     0.003 A 
HETATM   36  C   UNL     1     -40.528  53.347 -52.121  1.00  0.00     0.015 A 
ENDBRANCH   7  30
TORSDOF 5
ENDMDL
MODEL 8
REMARK VINA RESULT:      -8.7      2.728      4.927
REMARK  5 active torsions:
REMARK  status: ('A' for Active; 'I' for Inactive)
REMARK    1  A    between atoms: C_7  and  C_8 
REMARK    2  A    between atoms: C_16  and  C_17 
REMARK    3  A    between atoms: C_19  and  O_20 
REMARK    4  A    between atoms: C_24  and  C_25 
REMARK       I    between atoms: C_25  and  N_26 
REMARK    5  A    between atoms: N_26  and  C_27 
ROOT
HETATM    1  C   UNL     1     -42.386  60.503 -53.861  1.00  0.00     0.070 C 
HETATM    2  C   UNL     1     -42.391  59.070 -54.336  1.00  0.00     0.037 C 
HETATM    3  N   UNL     1     -41.268  58.316 -53.984  1.00  0.00    -0.192 N 
HETATM    4  C   UNL     1     -41.258  56.969 -54.062  1.00  0.00     0.726 A 
HETATM    5  N   UNL     1     -42.235  56.341 -54.777  1.00  0.00    -0.083 N 
HETATM    6  N   UNL     1     -42.167  55.004 -54.653  1.00  0.00    -0.135 NA
HETATM    7  C   UNL     1     -41.079  54.869 -53.870  1.00  0.00     0.199 A 
HETATM    8  N   UNL     1     -40.492  56.071 -53.501  1.00  0.00    -0.041 NA
HETATM    9  C   UNL     1     -43.290  57.045 -55.505  1.00  0.00     0.202 C 
HETATM   10  C   UNL     1     -43.401  58.496 -55.042  1.00  0.00     0.062 C 
HETATM   11  H   UNL     1     -40.625  58.748 -53.325  1.00  0.00     0.184 HD
ENDROOT
BRANCH  10  12
HETATM   12  C   UNL     1     -44.730  59.175 -55.178  1.00  0.00     0.256 C 
HETATM   13  N   UNL     1     -44.972  59.731 -56.415  1.00  0.00    -0.323 N 
HETATM   14  H   UNL     1     -44.225  59.749 -57.096  1.00  0.00     0.169 HD
HETATM   15  O   UNL     1     -45.514  59.143 -54.237  1.00  0.00    -0.267 OA
BRANCH  13  16
HETATM   16  C   UNL     1     -46.186  60.289 -56.877  1.00  0.00     0.035 A 
HETATM   17  C   UNL     1     -46.661  61.550 -56.511  1.00  0.00     0.029 A 
HETATM   18  C   UNL     1     -47.888  62.015 -56.997  1.00  0.00     0.002 A 
HETATM   19  C   UNL     1     -48.654  61.220 -57.844  1.00  0.00     0.000 A 
HETATM   20  C   UNL     1     -48.191  59.962 -58.216  1.00  0.00     0.002 A 
HETATM   21  C   UNL     1     -46.961  59.501 -57.740  1.00  0.00     0.029 A 
ENDBRANCH  13  16
ENDBRANCH  10  12
BRANCH   9  22
HETATM   22  C   UNL     1     -43.033  56.902 -57.008  1.00  0.00    -0.025 A 
HETATM   23  C   UNL     1     -43.574  55.841 -57.761  1.00  0.00     0.046 A 
HETATM   24  C   UNL     1     -43.294  55.736 -59.121  1.00  0.00     0.066 A 
HETATM   25  C   UNL     1     -42.499  56.677 -59.760  1.00  0.00     0.036 A 
HETATM   26  C   UNL     1     -41.980  57.747 -59.035  1.00  0.00     0.003 A 
HETATM   27  C   UNL     1     -42.246  57.862 -57.669  1.00  0.00     0.010 A 
BRANCH  24  28
HETATM   28  O   UNL     1     -43.787  54.710 -59.870  1.00  0.00    -0.361 OA
HETATM   29  H   UNL     1     -44.400  55.064 -60.535  1.00  0.00     0.217 HD
ENDBRANCH  24  28
ENDBRANCH   9  22
BRANCH   7  30
HETATM   30  C   UNL     1     -40.580  53.580 -53.401  1.00  0.00     0.016 A 
HETATM   31  C   UNL     1     -40.428  52.504 -54.288  1.00  0.00     0.039 A 
HETATM   32  C   UNL     1     -39.974  51.270 -53.823  1.00  0.00     0.035 A 
HETATM   33 CL   UNL     1     -39.798  49.957 -54.922  1.00  0.00    -0.084 Cl
HETATM   34  C   UNL     1     -39.666  51.090 -52.477  1.00  0.00     0.024 A 
HETATM   35  C   UNL     1     -39.810  52.152 -51.586  1.00  0.00     0.003 A 
HETATM   36  C   UNL     1     -40.262  53.391 -52.047  1.00  0.00     0.015 A 
ENDBRANCH   7  30
TORSDOF 5
ENDMDL
MODEL 9
REMARK VINA RESULT:      -8.6      3.135      4.191
REMARK  5 active torsions:
REMARK  status: ('A' for Active; 'I' for Inactive)
REMARK    1  A    between atoms: C_7  and  C_8 
REMARK    2  A    between atoms: C_16  and  C_17 
REMARK    3  A    between atoms: C_19  and  O_20 
REMARK    4  A    between atoms: C_24  and  C_25 
REMARK       I    between atoms: C_25  and  N_26 
REMARK    5  A    between atoms: N_26  and  C_27 
ROOT
HETATM    1  C   UNL     1     -44.253  55.422 -60.075  1.00  0.00     0.070 C 
HETATM    2  C   UNL     1     -43.602  55.807 -58.769  1.00  0.00     0.037 C 
HETATM    3  N   UNL     1     -43.757  54.889 -57.727  1.00  0.00    -0.192 N 
HETATM    4  C   UNL     1     -42.994  54.934 -56.614  1.00  0.00     0.726 A 
HETATM    5  N   UNL     1     -42.271  56.060 -56.354  1.00  0.00    -0.083 N 
HETATM    6  N   UNL     1     -41.464  55.904 -55.290  1.00  0.00    -0.135 NA
HETATM    7  C   UNL     1     -41.779  54.651 -54.906  1.00  0.00     0.199 A 
HETATM    8  N   UNL     1     -42.732  54.035 -55.703  1.00  0.00    -0.041 NA
HETATM    9  C   UNL     1     -42.295  57.255 -57.198  1.00  0.00     0.202 C 
HETATM   10  C   UNL     1     -42.884  56.945 -58.572  1.00  0.00     0.062 C 
HETATM   11  H   UNL     1     -44.163  53.989 -57.976  1.00  0.00     0.184 HD
ENDROOT
BRANCH  10  12
HETATM   12  C   UNL     1     -42.451  57.793 -59.728  1.00  0.00     0.256 C 
HETATM   13  N   UNL     1     -43.205  58.930 -59.926  1.00  0.00    -0.323 N 
HETATM   14  H   UNL     1     -44.042  59.062 -59.375  1.00  0.00     0.169 HD
HETATM   15  O   UNL     1     -41.455  57.470 -60.364  1.00  0.00    -0.267 OA
BRANCH  13  16
HETATM   16  C   UNL     1     -42.937  59.984 -60.829  1.00  0.00     0.035 A 
HETATM   17  C   UNL     1     -43.795  60.374 -61.859  1.00  0.00     0.029 A 
HETATM   18  C   UNL     1     -43.439  61.415 -62.723  1.00  0.00     0.002 A 
HETATM   19  C   UNL     1     -42.219  62.068 -62.571  1.00  0.00     0.000 A 
HETATM   20  C   UNL     1     -41.356  61.688 -61.548  1.00  0.00     0.002 A 
HETATM   21  C   UNL     1     -41.716  60.657 -60.677  1.00  0.00     0.029 A 
ENDBRANCH  13  16
ENDBRANCH  10  12
BRANCH   9  22
HETATM   22  C   UNL     1     -43.035  58.369 -56.454  1.00  0.00    -0.025 A 
HETATM   23  C   UNL     1     -44.429  58.546 -56.567  1.00  0.00     0.046 A 
HETATM   24  C   UNL     1     -45.058  59.587 -55.891  1.00  0.00     0.066 A 
HETATM   25  C   UNL     1     -44.336  60.453 -55.083  1.00  0.00     0.036 A 
HETATM   26  C   UNL     1     -42.962  60.275 -54.938  1.00  0.00     0.003 A 
HETATM   27  C   UNL     1     -42.315  59.239 -55.616  1.00  0.00     0.010 A 
BRANCH  24  28
HETATM   28  O   UNL     1     -46.402  59.794 -55.998  1.00  0.00    -0.361 OA
HETATM   29  H   UNL     1     -46.870  59.161 -55.428  1.00  0.00     0.217 HD
ENDBRANCH  24  28
ENDBRANCH   9  22
BRANCH   7  30
HETATM   30  C   UNL     1     -41.143  53.972 -53.781  1.00  0.00     0.016 A 
HETATM   31  C   UNL     1     -41.074  54.582 -52.520  1.00  0.00     0.039 A 
HETATM   32  C   UNL     1     -40.443  53.933 -51.460  1.00  0.00     0.035 A 
HETATM   33 CL   UNL     1     -40.360  54.696 -49.919  1.00  0.00    -0.084 Cl
HETATM   34  C   UNL     1     -39.873  52.674 -51.637  1.00  0.00     0.024 A 
HETATM   35  C   UNL     1     -39.937  52.056 -52.886  1.00  0.00     0.003 A 
HETATM   36  C   UNL     1     -40.571  52.701 -53.951  1.00  0.00     0.015 A 
ENDBRANCH   7  30
TORSDOF 5
ENDMDL
MODEL 10
REMARK VINA RESULT:      -8.5      3.721      8.214
REMARK  5 active torsions:
REMARK  status: ('A' for Active; 'I' for Inactive)
REMARK    1  A    between atoms: C_7  and  C_8 
REMARK    2  A    between atoms: C_16  and  C_17 
REMARK    3  A    between atoms: C_19  and  O_20 
REMARK    4  A    between atoms: C_24  and  C_25 
REMARK       I    between atoms: C_25  and  N_26 
REMARK    5  A    between atoms: N_26  and  C_27 
ROOT
HETATM    1  C   UNL     1     -40.469  54.416 -55.311  1.00  0.00     0.070 C 
HETATM    2  C   UNL     1     -41.593  55.423 -55.326  1.00  0.00     0.037 C 
HETATM    3  N   UNL     1     -41.828  56.043 -56.556  1.00  0.00    -0.192 N 
HETATM    4  C   UNL     1     -42.967  56.722 -56.810  1.00  0.00     0.726 A 
HETATM    5  N   UNL     1     -43.772  57.073 -55.767  1.00  0.00    -0.083 N 
HETATM    6  N   UNL     1     -44.926  57.623 -56.188  1.00  0.00    -0.135 NA
HETATM    7  C   UNL     1     -44.744  57.621 -57.523  1.00  0.00     0.199 A 
HETATM    8  N   UNL     1     -43.534  57.079 -57.931  1.00  0.00    -0.041 NA
HETATM    9  C   UNL     1     -43.461  56.790 -54.366  1.00  0.00     0.202 C 
HETATM   10  C   UNL     1     -42.370  55.728 -54.252  1.00  0.00     0.062 C 
HETATM   11  H   UNL     1     -41.326  55.662 -57.355  1.00  0.00     0.184 HD
ENDROOT
BRANCH  10  12
HETATM   12  C   UNL     1     -42.344  54.881 -53.017  1.00  0.00     0.256 C 
HETATM   13  N   UNL     1     -41.206  55.011 -52.249  1.00  0.00    -0.323 N 
HETATM   14  H   UNL     1     -40.437  55.560 -52.608  1.00  0.00     0.169 HD
HETATM   15  O   UNL     1     -43.323  54.197 -52.742  1.00  0.00    -0.267 OA
BRANCH  13  16
HETATM   16  C   UNL     1     -40.975  54.463 -50.967  1.00  0.00     0.035 A 
HETATM   17  C   UNL     1     -40.619  53.134 -50.732  1.00  0.00     0.029 A 
HETATM   18  C   UNL     1     -40.433  52.669 -49.425  1.00  0.00     0.002 A 
HETATM   19  C   UNL     1     -40.611  53.526 -48.343  1.00  0.00     0.000 A 
HETATM   20  C   UNL     1     -40.966  54.854 -48.565  1.00  0.00     0.002 A 
HETATM   21  C   UNL     1     -41.141  55.321 -49.869  1.00  0.00     0.029 A 
ENDBRANCH  13  16
ENDBRANCH  10  12
BRANCH   9  22
HETATM   22  C   UNL     1     -43.110  58.104 -53.663  1.00  0.00    -0.025 A 
HETATM   23  C   UNL     1     -43.489  58.363 -52.331  1.00  0.00     0.046 A 
HETATM   24  C   UNL     1     -43.170  59.582 -51.739  1.00  0.00     0.066 A 
HETATM   25  C   UNL     1     -42.461  60.550 -52.436  1.00  0.00     0.036 A 
HETATM   26  C   UNL     1     -42.054  60.298 -53.744  1.00  0.00     0.003 A 
HETATM   27  C   UNL     1     -42.374  59.082 -54.355  1.00  0.00     0.010 A 
BRANCH  24  28
HETATM   28  O   UNL     1     -43.541  59.868 -50.459  1.00  0.00    -0.361 OA
HETATM   29  H   UNL     1     -42.862  60.427 -50.046  1.00  0.00     0.217 HD
ENDBRANCH  24  28
ENDBRANCH   9  22
BRANCH   7  30
HETATM   30  C   UNL     1     -45.747  58.099 -58.471  1.00  0.00     0.016 A 
HETATM   31  C   UNL     1     -46.275  57.242 -59.448  1.00  0.00     0.039 A 
HETATM   32  C   UNL     1     -47.214  57.716 -60.363  1.00  0.00     0.035 A 
HETATM   33 CL   UNL     1     -47.849  56.656 -61.561  1.00  0.00    -0.084 Cl
HETATM   34  C   UNL     1     -47.638  59.042 -60.320  1.00  0.00     0.024 A 
HETATM   35  C   UNL     1     -47.123  59.902 -59.352  1.00  0.00     0.003 A 
HETATM   36  C   UNL     1     -46.184  59.431 -58.431  1.00  0.00     0.015 A 
ENDBRANCH   7  30
TORSDOF 5
ENDMDL
