MODEL 1
REMARK VINA RESULT:      -7.8      0.000      0.000
REMARK  6 active torsions:
REMARK  status: ('A' for Active; 'I' for Inactive)
REMARK    1  A    between atoms: C_2  and  C_3 
REMARK    2  A    between atoms: C_3  and  C_4 
REMARK    3  A    between atoms: C_4  and  N_5 
REMARK       I    between atoms: N_5  and  C_6 
REMARK       I    between atoms: C_6  and  N_7 
REMARK    4  A    between atoms: N_7  and  C_8 
REMARK    5  A    between atoms: N_11  and  C_12 
REMARK    6  A    between atoms: C_15  and  O_16 
ROOT
HETATM    1  C   UNL     1     -42.753  58.380 -51.768  1.00  0.00     0.123 C 
HETATM    2  C   UNL     1     -42.035  57.137 -51.377  1.00  0.00     0.009 A 
HETATM    3  C   UNL     1     -41.966  55.997 -52.159  1.00  0.00     0.047 A 
HETATM    4  N   UNL     1     -41.106  55.113 -51.513  1.00  0.00    -0.238 N 
HETATM    5  N   UNL     1     -40.666  55.660 -50.340  1.00  0.00    -0.179 NA
HETATM    6  C   UNL     1     -41.213  56.870 -50.279  1.00  0.00     0.150 A 
HETATM    7  C   UNL     1     -42.655  55.836 -53.477  1.00  0.00     0.069 C 
HETATM    8  C   UNL     1     -43.214  57.190 -54.021  1.00  0.00    -0.040 C 
HETATM    9  C   UNL     1     -44.348  56.888 -55.021  1.00  0.00     0.015 C 
HETATM   10  C   UNL     1     -42.106  57.951 -54.776  1.00  0.00     0.015 C 
HETATM   11  C   UNL     1     -43.787  58.071 -52.873  1.00  0.00     0.039 C 
ENDROOT
BRANCH   1  12
HETATM   12  N   UNL     1     -43.394  58.959 -50.607  1.00  0.00    -0.334 N 
HETATM   13  C   UNL     1     -43.502  60.321 -50.503  1.00  0.00     0.316 C 
HETATM   14  N   UNL     1     -44.254  60.687 -49.416  1.00  0.00    -0.343 N 
HETATM   15  O   UNL     1     -42.983  61.108 -51.283  1.00  0.00    -0.247 OA
HETATM   16  H   UNL     1     -44.232  60.018 -48.661  1.00  0.00     0.164 HD
HETATM   17  H   UNL     1     -44.111  58.412 -50.155  1.00  0.00     0.165 HD
BRANCH  14  18
HETATM   18  C   UNL     1     -44.357  62.080 -49.021  1.00  0.00     0.124 C 
BRANCH  18  19
HETATM   19  C   UNL     1     -45.095  62.325 -47.704  1.00  0.00     0.019 C 
BRANCH  19  20
HETATM   20  C   UNL     1     -45.401  61.036 -46.940  1.00  0.00    -0.003 C 
HETATM   21  C   UNL     1     -44.712  61.026 -45.583  1.00  0.00     0.005 C 
ENDBRANCH  19  20
ENDBRANCH  18  19
ENDBRANCH  14  18
ENDBRANCH   1  12
BRANCH   4  22
HETATM   22  C   UNL     1     -40.609  53.826 -51.897  1.00  0.00     0.058 A 
HETATM   23  C   UNL     1     -40.567  53.504 -53.264  1.00  0.00     0.034 A 
HETATM   24  C   UNL     1     -40.161  52.234 -53.690  1.00  0.00     0.039 A 
HETATM   25  C   UNL     1     -39.787  51.262 -52.764  1.00  0.00     0.068 A 
HETATM   26  C   UNL     1     -39.779  51.588 -51.410  1.00  0.00     0.039 A 
HETATM   27  C   UNL     1     -40.181  52.864 -50.978  1.00  0.00     0.034 A 
BRANCH  25  28
HETATM   28  O   UNL     1     -39.440  50.055 -53.302  1.00  0.00    -0.356 OA
HETATM   29  C   UNL     1     -39.794  49.838 -54.663  1.00  0.00     0.210 C 
ENDBRANCH  25  28
ENDBRANCH   4  22
TORSDOF 6
ENDMDL
MODEL 2
REMARK VINA RESULT:      -7.6     16.846     19.588
REMARK  6 active torsions:
REMARK  status: ('A' for Active; 'I' for Inactive)
REMARK    1  A    between atoms: C_2  and  C_3 
REMARK    2  A    between atoms: C_3  and  C_4 
REMARK    3  A    between atoms: C_4  and  N_5 
REMARK       I    between atoms: N_5  and  C_6 
REMARK       I    between atoms: C_6  and  N_7 
REMARK    4  A    between atoms: N_7  and  C_8 
REMARK    5  A    between atoms: N_11  and  C_12 
REMARK    6  A    between atoms: C_15  and  O_16 
ROOT
HETATM    1  C   UNL     1     -33.010  39.471 -50.836  1.00  0.00     0.123 C 
HETATM    2  C   UNL     1     -33.837  40.400 -51.653  1.00  0.00     0.009 A 
HETATM    3  C   UNL     1     -33.933  40.350 -53.033  1.00  0.00     0.047 A 
HETATM    4  N   UNL     1     -34.894  41.285 -53.407  1.00  0.00    -0.238 N 
HETATM    5  N   UNL     1     -35.371  41.934 -52.303  1.00  0.00    -0.179 NA
HETATM    6  C   UNL     1     -34.747  41.386 -51.265  1.00  0.00     0.150 A 
HETATM    7  C   UNL     1     -33.170  39.396 -53.896  1.00  0.00     0.069 C 
HETATM    8  C   UNL     1     -32.482  38.264 -53.065  1.00  0.00    -0.040 C 
HETATM    9  C   UNL     1     -31.308  37.695 -53.886  1.00  0.00     0.015 C 
HETATM   10  C   UNL     1     -33.483  37.119 -52.809  1.00  0.00     0.015 C 
HETATM   11  C   UNL     1     -31.927  38.808 -51.716  1.00  0.00     0.039 C 
ENDROOT
BRANCH   1  12
HETATM   12  N   UNL     1     -32.408  40.194 -49.735  1.00  0.00    -0.334 N 
HETATM   13  C   UNL     1     -31.795  39.499 -48.725  1.00  0.00     0.316 C 
HETATM   14  N   UNL     1     -31.165  40.341 -47.844  1.00  0.00    -0.343 N 
HETATM   15  O   UNL     1     -31.819  38.280 -48.624  1.00  0.00    -0.247 OA
HETATM   16  H   UNL     1     -31.580  41.259 -47.788  1.00  0.00     0.164 HD
HETATM   17  H   UNL     1     -32.055  41.118 -49.928  1.00  0.00     0.165 HD
BRANCH  14  18
HETATM   18  C   UNL     1     -30.596  39.830 -46.610  1.00  0.00     0.124 C 
BRANCH  18  19
HETATM   19  C   UNL     1     -29.724  40.824 -45.841  1.00  0.00     0.019 C 
BRANCH  19  20
HETATM   20  C   UNL     1     -30.000  40.827 -44.337  1.00  0.00    -0.003 C 
HETATM   21  C   UNL     1     -28.980  39.980 -43.591  1.00  0.00     0.005 C 
ENDBRANCH  19  20
ENDBRANCH  18  19
ENDBRANCH  14  18
ENDBRANCH   1  12
BRANCH   4  22
HETATM   22  C   UNL     1     -35.451  41.608 -54.686  1.00  0.00     0.058 A 
HETATM   23  C   UNL     1     -36.847  41.545 -54.844  1.00  0.00     0.034 A 
HETATM   24  C   UNL     1     -37.438  41.778 -56.090  1.00  0.00     0.039 A 
HETATM   25  C   UNL     1     -36.654  42.080 -57.202  1.00  0.00     0.068 A 
HETATM   26  C   UNL     1     -35.274  42.193 -57.044  1.00  0.00     0.039 A 
HETATM   27  C   UNL     1     -34.676  41.965 -55.793  1.00  0.00     0.034 A 
BRANCH  25  28
HETATM   28  O   UNL     1     -37.346  42.257 -58.367  1.00  0.00    -0.356 OA
HETATM   29  C   UNL     1     -37.268  41.203 -59.320  1.00  0.00     0.210 C 
ENDBRANCH  25  28
ENDBRANCH   4  22
TORSDOF 6
ENDMDL
MODEL 3
REMARK VINA RESULT:      -7.5      3.959      6.773
REMARK  6 active torsions:
REMARK  status: ('A' for Active; 'I' for Inactive)
REMARK    1  A    between atoms: C_2  and  C_3 
REMARK    2  A    between atoms: C_3  and  C_4 
REMARK    3  A    between atoms: C_4  and  N_5 
REMARK       I    between atoms: N_5  and  C_6 
REMARK       I    between atoms: C_6  and  N_7 
REMARK    4  A    between atoms: N_7  and  C_8 
REMARK    5  A    between atoms: N_11  and  C_12 
REMARK    6  A    between atoms: C_15  and  O_16 
ROOT
HETATM    1  C   UNL     1     -43.096  57.489 -55.725  1.00  0.00     0.123 C 
HETATM    2  C   UNL     1     -42.625  56.101 -55.471  1.00  0.00     0.009 A 
HETATM    3  C   UNL     1     -41.737  55.749 -54.468  1.00  0.00     0.047 A 
HETATM    4  N   UNL     1     -41.650  54.360 -54.472  1.00  0.00    -0.238 N 
HETATM    5  N   UNL     1     -42.432  53.844 -55.467  1.00  0.00    -0.179 NA
HETATM    6  C   UNL     1     -43.019  54.888 -56.043  1.00  0.00     0.150 A 
HETATM    7  C   UNL     1     -41.083  56.725 -53.543  1.00  0.00     0.069 C 
HETATM    8  C   UNL     1     -41.730  58.146 -53.626  1.00  0.00    -0.040 C 
HETATM    9  C   UNL     1     -40.707  59.183 -53.122  1.00  0.00     0.015 C 
HETATM   10  C   UNL     1     -42.967  58.214 -52.707  1.00  0.00     0.015 C 
HETATM   11  C   UNL     1     -42.124  58.506 -55.088  1.00  0.00     0.039 C 
ENDROOT
BRANCH   1  12
HETATM   12  N   UNL     1     -43.215  57.711 -57.150  1.00  0.00    -0.334 N 
HETATM   13  C   UNL     1     -44.459  57.829 -57.714  1.00  0.00     0.316 C 
HETATM   14  N   UNL     1     -44.381  58.171 -59.041  1.00  0.00    -0.343 N 
HETATM   15  O   UNL     1     -45.504  57.642 -57.107  1.00  0.00    -0.247 OA
HETATM   16  H   UNL     1     -43.533  57.863 -59.492  1.00  0.00     0.164 HD
HETATM   17  H   UNL     1     -42.463  58.205 -57.604  1.00  0.00     0.165 HD
BRANCH  14  18
HETATM   18  C   UNL     1     -45.570  58.184 -59.873  1.00  0.00     0.124 C 
BRANCH  18  19
HETATM   19  C   UNL     1     -46.121  56.802 -60.233  1.00  0.00     0.019 C 
BRANCH  19  20
HETATM   20  C   UNL     1     -45.062  55.869 -60.820  1.00  0.00    -0.003 C 
HETATM   21  C   UNL     1     -44.766  54.713 -59.878  1.00  0.00     0.005 C 
ENDBRANCH  19  20
ENDBRANCH  18  19
ENDBRANCH  14  18
ENDBRANCH   1  12
BRANCH   4  22
HETATM   22  C   UNL     1     -40.949  53.454 -53.613  1.00  0.00     0.058 A 
HETATM   23  C   UNL     1     -40.232  52.395 -54.195  1.00  0.00     0.034 A 
HETATM   24  C   UNL     1     -39.591  51.440 -53.400  1.00  0.00     0.039 A 
HETATM   25  C   UNL     1     -39.649  51.520 -52.010  1.00  0.00     0.068 A 
HETATM   26  C   UNL     1     -40.316  52.594 -51.423  1.00  0.00     0.039 A 
HETATM   27  C   UNL     1     -40.957  53.559 -52.219  1.00  0.00     0.034 A 
BRANCH  25  28
HETATM   28  O   UNL     1     -39.009  50.512 -51.345  1.00  0.00    -0.356 OA
HETATM   29  C   UNL     1     -39.816  49.678 -50.522  1.00  0.00     0.210 C 
ENDBRANCH  25  28
ENDBRANCH   4  22
TORSDOF 6
ENDMDL
MODEL 4
REMARK VINA RESULT:      -7.4      3.584      6.405
REMARK  6 active torsions:
REMARK  status: ('A' for Active; 'I' for Inactive)
REMARK    1  A    between atoms: C_2  and  C_3 
REMARK    2  A    between atoms: C_3  and  C_4 
REMARK    3  A    between atoms: C_4  and  N_5 
REMARK       I    between atoms: N_5  and  C_6 
REMARK       I    between atoms: C_6  and  N_7 
REMARK    4  A    between atoms: N_7  and  C_8 
REMARK    5  A    between atoms: N_11  and  C_12 
REMARK    6  A    between atoms: C_15  and  O_16 
ROOT
HETATM    1  C   UNL     1     -42.569  58.197 -54.986  1.00  0.00     0.123 C 
HETATM    2  C   UNL     1     -42.066  56.797 -54.979  1.00  0.00     0.009 A 
HETATM    3  C   UNL     1     -41.399  56.214 -53.915  1.00  0.00     0.047 A 
HETATM    4  N   UNL     1     -41.212  54.873 -54.239  1.00  0.00    -0.238 N 
HETATM    5  N   UNL     1     -41.715  54.617 -55.484  1.00  0.00    -0.179 NA
HETATM    6  C   UNL     1     -42.234  55.766 -55.906  1.00  0.00     0.150 A 
HETATM    7  C   UNL     1     -41.039  56.930 -52.652  1.00  0.00     0.069 C 
HETATM    8  C   UNL     1     -41.753  58.315 -52.532  1.00  0.00    -0.040 C 
HETATM    9  C   UNL     1     -40.945  59.204 -51.566  1.00  0.00     0.015 C 
HETATM   10  C   UNL     1     -43.164  58.129 -51.938  1.00  0.00     0.015 C 
HETATM   11  C   UNL     1     -41.838  59.032 -53.911  1.00  0.00     0.039 C 
ENDROOT
BRANCH   1  12
HETATM   12  N   UNL     1     -42.385  58.774 -56.301  1.00  0.00    -0.334 N 
HETATM   13  C   UNL     1     -43.434  58.791 -57.184  1.00  0.00     0.316 C 
HETATM   14  N   UNL     1     -43.124  59.493 -58.321  1.00  0.00    -0.343 N 
HETATM   15  O   UNL     1     -44.506  58.238 -56.981  1.00  0.00    -0.247 OA
HETATM   16  H   UNL     1     -42.140  59.498 -58.543  1.00  0.00     0.164 HD
HETATM   17  H   UNL     1     -41.708  59.515 -56.389  1.00  0.00     0.165 HD
BRANCH  14  18
HETATM   18  C   UNL     1     -44.026  59.495 -59.459  1.00  0.00     0.124 C 
BRANCH  18  19
HETATM   19  C   UNL     1     -43.883  58.296 -60.398  1.00  0.00     0.019 C 
BRANCH  19  20
HETATM   20  C   UNL     1     -42.519  57.613 -60.294  1.00  0.00    -0.003 C 
HETATM   21  C   UNL     1     -42.656  56.193 -59.764  1.00  0.00     0.005 C 
ENDBRANCH  19  20
ENDBRANCH  18  19
ENDBRANCH  14  18
ENDBRANCH   1  12
BRANCH   4  22
HETATM   22  C   UNL     1     -40.655  53.788 -53.490  1.00  0.00     0.058 A 
HETATM   23  C   UNL     1     -40.093  52.707 -54.190  1.00  0.00     0.034 A 
HETATM   24  C   UNL     1     -39.602  51.588 -53.509  1.00  0.00     0.039 A 
HETATM   25  C   UNL     1     -39.658  51.524 -52.118  1.00  0.00     0.068 A 
HETATM   26  C   UNL     1     -40.167  52.612 -51.412  1.00  0.00     0.039 A 
HETATM   27  C   UNL     1     -40.657  53.740 -52.092  1.00  0.00     0.034 A 
BRANCH  25  28
HETATM   28  O   UNL     1     -39.174  50.368 -51.573  1.00  0.00    -0.356 OA
HETATM   29  C   UNL     1     -39.901  49.828 -50.476  1.00  0.00     0.210 C 
ENDBRANCH  25  28
ENDBRANCH   4  22
TORSDOF 6
ENDMDL
MODEL 5
REMARK VINA RESULT:      -7.0      3.306      6.073
REMARK  6 active torsions:
REMARK  status: ('A' for Active; 'I' for Inactive)
REMARK    1  A    between atoms: C_2  and  C_3 
REMARK    2  A    between atoms: C_3  and  C_4 
REMARK    3  A    between atoms: C_4  and  N_5 
REMARK       I    between atoms: N_5  and  C_6 
REMARK       I    between atoms: C_6  and  N_7 
REMARK    4  A    between atoms: N_7  and  C_8 
REMARK    5  A    between atoms: N_11  and  C_12 
REMARK    6  A    between atoms: C_15  and  O_16 
ROOT
HETATM    1  C   UNL     1     -42.131  59.129 -54.003  1.00  0.00     0.123 C 
HETATM    2  C   UNL     1     -41.723  57.733 -54.320  1.00  0.00     0.009 A 
HETATM    3  C   UNL     1     -41.269  56.822 -53.382  1.00  0.00     0.047 A 
HETATM    4  N   UNL     1     -41.117  55.605 -54.041  1.00  0.00    -0.238 N 
HETATM    5  N   UNL     1     -41.432  55.744 -55.363  1.00  0.00    -0.179 NA
HETATM    6  C   UNL     1     -41.807  57.011 -55.513  1.00  0.00     0.150 A 
HETATM    7  C   UNL     1     -41.068  57.133 -51.933  1.00  0.00     0.069 C 
HETATM    8  C   UNL     1     -41.705  58.501 -51.527  1.00  0.00    -0.040 C 
HETATM    9  C   UNL     1     -41.006  59.012 -50.252  1.00  0.00     0.015 C 
HETATM   10  C   UNL     1     -43.201  58.309 -51.204  1.00  0.00     0.015 C 
HETATM   11  C   UNL     1     -41.528  59.565 -52.650  1.00  0.00     0.039 C 
ENDROOT
BRANCH   1  12
HETATM   12  N   UNL     1     -41.707  60.014 -55.067  1.00  0.00    -0.334 N 
HETATM   13  C   UNL     1     -42.623  60.448 -55.991  1.00  0.00     0.316 C 
HETATM   14  N   UNL     1     -42.082  61.382 -56.837  1.00  0.00    -0.343 N 
HETATM   15  O   UNL     1     -43.775  60.042 -56.051  1.00  0.00    -0.247 OA
HETATM   16  H   UNL     1     -41.085  61.289 -56.964  1.00  0.00     0.164 HD
HETATM   17  H   UNL     1     -40.933  60.630 -54.874  1.00  0.00     0.165 HD
BRANCH  14  18
HETATM   18  C   UNL     1     -42.824  61.850 -57.994  1.00  0.00     0.124 C 
BRANCH  18  19
HETATM   19  C   UNL     1     -42.085  61.725 -59.328  1.00  0.00     0.019 C 
BRANCH  19  20
HETATM   20  C   UNL     1     -42.178  60.325 -59.936  1.00  0.00    -0.003 C 
HETATM   21  C   UNL     1     -41.950  60.363 -61.439  1.00  0.00     0.005 C 
ENDBRANCH  19  20
ENDBRANCH  18  19
ENDBRANCH  14  18
ENDBRANCH   1  12
BRANCH   4  22
HETATM   22  C   UNL     1     -40.752  54.307 -53.557  1.00  0.00     0.058 A 
HETATM   23  C   UNL     1     -40.764  54.080 -52.170  1.00  0.00     0.034 A 
HETATM   24  C   UNL     1     -40.347  52.855 -51.640  1.00  0.00     0.039 A 
HETATM   25  C   UNL     1     -39.911  51.831 -52.478  1.00  0.00     0.068 A 
HETATM   26  C   UNL     1     -39.943  52.029 -53.857  1.00  0.00     0.039 A 
HETATM   27  C   UNL     1     -40.366  53.256 -54.394  1.00  0.00     0.034 A 
BRANCH  25  28
HETATM   28  O   UNL     1     -39.502  50.695 -51.839  1.00  0.00    -0.356 OA
HETATM   29  C   UNL     1     -39.587  49.482 -52.578  1.00  0.00     0.210 C 
ENDBRANCH  25  28
ENDBRANCH   4  22
TORSDOF 6
ENDMDL
MODEL 6
REMARK VINA RESULT:      -6.9      3.485      9.009
REMARK  6 active torsions:
REMARK  status: ('A' for Active; 'I' for Inactive)
REMARK    1  A    between atoms: C_2  and  C_3 
REMARK    2  A    between atoms: C_3  and  C_4 
REMARK    3  A    between atoms: C_4  and  N_5 
REMARK       I    between atoms: N_5  and  C_6 
REMARK       I    between atoms: C_6  and  N_7 
REMARK    4  A    between atoms: N_7  and  C_8 
REMARK    5  A    between atoms: N_11  and  C_12 
REMARK    6  A    between atoms: C_15  and  O_16 
ROOT
HETATM    1  C   UNL     1     -43.008  55.768 -54.729  1.00  0.00     0.123 C 
HETATM    2  C   UNL     1     -43.437  57.076 -54.163  1.00  0.00     0.009 A 
HETATM    3  C   UNL     1     -43.610  57.322 -52.811  1.00  0.00     0.047 A 
HETATM    4  N   UNL     1     -43.883  58.680 -52.678  1.00  0.00    -0.238 N 
HETATM    5  N   UNL     1     -43.915  59.275 -53.908  1.00  0.00    -0.179 NA
HETATM    6  C   UNL     1     -43.631  58.314 -54.781  1.00  0.00     0.150 A 
HETATM    7  C   UNL     1     -43.451  56.290 -51.740  1.00  0.00     0.069 C 
HETATM    8  C   UNL     1     -42.777  54.983 -52.272  1.00  0.00    -0.040 C 
HETATM    9  C   UNL     1     -43.150  53.819 -51.333  1.00  0.00     0.015 C 
HETATM   10  C   UNL     1     -41.243  55.137 -52.251  1.00  0.00     0.015 C 
HETATM   11  C   UNL     1     -43.265  54.637 -53.709  1.00  0.00     0.039 C 
ENDROOT
BRANCH   1  12
HETATM   12  N   UNL     1     -43.714  55.518 -55.967  1.00  0.00    -0.334 N 
HETATM   13  C   UNL     1     -43.082  55.743 -57.163  1.00  0.00     0.316 C 
HETATM   14  N   UNL     1     -43.845  55.325 -58.224  1.00  0.00    -0.343 N 
HETATM   15  O   UNL     1     -41.978  56.261 -57.264  1.00  0.00    -0.247 OA
HETATM   16  H   UNL     1     -44.838  55.345 -58.045  1.00  0.00     0.164 HD
HETATM   17  H   UNL     1     -44.422  54.801 -55.958  1.00  0.00     0.165 HD
BRANCH  14  18
HETATM   18  C   UNL     1     -43.443  55.621 -59.587  1.00  0.00     0.124 C 
BRANCH  18  19
HETATM   19  C   UNL     1     -44.469  56.406 -60.406  1.00  0.00     0.019 C 
BRANCH  19  20
HETATM   20  C   UNL     1     -45.807  55.678 -60.548  1.00  0.00    -0.003 C 
HETATM   21  C   UNL     1     -46.953  56.531 -60.025  1.00  0.00     0.005 C 
ENDBRANCH  19  20
ENDBRANCH  18  19
ENDBRANCH  14  18
ENDBRANCH   1  12
BRANCH   4  22
HETATM   22  C   UNL     1     -44.071  59.497 -51.517  1.00  0.00     0.058 A 
HETATM   23  C   UNL     1     -45.309  59.445 -50.853  1.00  0.00     0.034 A 
HETATM   24  C   UNL     1     -45.572  60.276 -49.760  1.00  0.00     0.039 A 
HETATM   25  C   UNL     1     -44.608  61.173 -49.303  1.00  0.00     0.068 A 
HETATM   26  C   UNL     1     -43.361  61.197 -49.923  1.00  0.00     0.039 A 
HETATM   27  C   UNL     1     -43.090  60.360 -51.019  1.00  0.00     0.034 A 
BRANCH  25  28
HETATM   28  O   UNL     1     -44.995  61.949 -48.247  1.00  0.00    -0.356 OA
HETATM   29  C   UNL     1     -44.906  61.359 -46.955  1.00  0.00     0.210 C 
ENDBRANCH  25  28
ENDBRANCH   4  22
TORSDOF 6
ENDMDL
MODEL 7
REMARK VINA RESULT:      -6.8     17.297     19.962
REMARK  6 active torsions:
REMARK  status: ('A' for Active; 'I' for Inactive)
REMARK    1  A    between atoms: C_2  and  C_3 
REMARK    2  A    between atoms: C_3  and  C_4 
REMARK    3  A    between atoms: C_4  and  N_5 
REMARK       I    between atoms: N_5  and  C_6 
REMARK       I    between atoms: C_6  and  N_7 
REMARK    4  A    between atoms: N_7  and  C_8 
REMARK    5  A    between atoms: N_11  and  C_12 
REMARK    6  A    between atoms: C_15  and  O_16 
ROOT
HETATM    1  C   UNL     1     -34.481  39.929 -52.325  1.00  0.00     0.123 C 
HETATM    2  C   UNL     1     -33.360  39.933 -51.347  1.00  0.00     0.009 A 
HETATM    3  C   UNL     1     -33.494  39.617 -50.005  1.00  0.00     0.047 A 
HETATM    4  N   UNL     1     -32.213  39.607 -49.461  1.00  0.00    -0.238 N 
HETATM    5  N   UNL     1     -31.294  39.937 -50.417  1.00  0.00    -0.179 NA
HETATM    6  C   UNL     1     -31.987  40.112 -51.538  1.00  0.00     0.150 A 
HETATM    7  C   UNL     1     -34.795  39.289 -49.343  1.00  0.00     0.069 C 
HETATM    8  C   UNL     1     -35.941  39.047 -50.377  1.00  0.00    -0.040 C 
HETATM    9  C   UNL     1     -37.294  39.280 -49.676  1.00  0.00     0.015 C 
HETATM   10  C   UNL     1     -35.906  37.585 -50.867  1.00  0.00     0.015 C 
HETATM   11  C   UNL     1     -35.833  40.023 -51.585  1.00  0.00     0.039 C 
ENDROOT
BRANCH   1  12
HETATM   12  N   UNL     1     -34.322  41.029 -53.253  1.00  0.00    -0.334 N 
HETATM   13  C   UNL     1     -34.737  40.883 -54.551  1.00  0.00     0.316 C 
HETATM   14  N   UNL     1     -34.638  42.060 -55.248  1.00  0.00    -0.343 N 
HETATM   15  O   UNL     1     -35.136  39.828 -55.025  1.00  0.00    -0.247 OA
HETATM   16  H   UNL     1     -33.920  42.679 -54.903  1.00  0.00     0.164 HD
HETATM   17  H   UNL     1     -34.348  41.961 -52.871  1.00  0.00     0.165 HD
BRANCH  14  18
HETATM   18  C   UNL     1     -34.864  42.094 -56.682  1.00  0.00     0.124 C 
BRANCH  18  19
HETATM   19  C   UNL     1     -36.326  42.262 -57.100  1.00  0.00     0.019 C 
BRANCH  19  20
HETATM   20  C   UNL     1     -36.713  41.385 -58.292  1.00  0.00    -0.003 C 
HETATM   21  C   UNL     1     -37.188  42.231 -59.464  1.00  0.00     0.005 C 
ENDBRANCH  19  20
ENDBRANCH  18  19
ENDBRANCH  14  18
ENDBRANCH   1  12
BRANCH   4  22
HETATM   22  C   UNL     1     -31.746  39.273 -48.149  1.00  0.00     0.058 A 
HETATM   23  C   UNL     1     -30.932  40.198 -47.471  1.00  0.00     0.034 A 
HETATM   24  C   UNL     1     -30.389  39.892 -46.219  1.00  0.00     0.039 A 
HETATM   25  C   UNL     1     -30.646  38.662 -45.616  1.00  0.00     0.068 A 
HETATM   26  C   UNL     1     -31.491  37.759 -46.257  1.00  0.00     0.039 A 
HETATM   27  C   UNL     1     -32.043  38.064 -47.513  1.00  0.00     0.034 A 
BRANCH  25  28
HETATM   28  O   UNL     1     -30.034  38.472 -44.409  1.00  0.00    -0.356 OA
HETATM   29  C   UNL     1     -29.508  39.630 -43.771  1.00  0.00     0.210 C 
ENDBRANCH  25  28
ENDBRANCH   4  22
TORSDOF 6
ENDMDL
MODEL 8
REMARK VINA RESULT:      -6.8      4.452      9.254
REMARK  6 active torsions:
REMARK  status: ('A' for Active; 'I' for Inactive)
REMARK    1  A    between atoms: C_2  and  C_3 
REMARK    2  A    between atoms: C_3  and  C_4 
REMARK    3  A    between atoms: C_4  and  N_5 
REMARK       I    between atoms: N_5  and  C_6 
REMARK       I    between atoms: C_6  and  N_7 
REMARK    4  A    between atoms: N_7  and  C_8 
REMARK    5  A    between atoms: N_11  and  C_12 
REMARK    6  A    between atoms: C_15  and  O_16 
ROOT
HETATM    1  C   UNL     1     -43.009  56.876 -54.080  1.00  0.00     0.123 C 
HETATM    2  C   UNL     1     -43.426  56.840 -55.508  1.00  0.00     0.009 A 
HETATM    3  C   UNL     1     -44.309  57.737 -56.085  1.00  0.00     0.047 A 
HETATM    4  N   UNL     1     -44.339  57.456 -57.448  1.00  0.00    -0.238 N 
HETATM    5  N   UNL     1     -43.527  56.392 -57.726  1.00  0.00    -0.179 NA
HETATM    6  C   UNL     1     -42.978  56.046 -56.566  1.00  0.00     0.150 A 
HETATM    7  C   UNL     1     -45.010  58.827 -55.339  1.00  0.00     0.069 C 
HETATM    8  C   UNL     1     -44.421  59.039 -53.907  1.00  0.00    -0.040 C 
HETATM    9  C   UNL     1     -45.490  59.720 -53.030  1.00  0.00     0.015 C 
HETATM   10  C   UNL     1     -43.197  59.975 -53.976  1.00  0.00     0.015 C 
HETATM   11  C   UNL     1     -44.028  57.685 -53.248  1.00  0.00     0.039 C 
ENDROOT
BRANCH   1  12
HETATM   12  N   UNL     1     -42.885  55.525 -53.574  1.00  0.00    -0.334 N 
HETATM   13  C   UNL     1     -41.639  54.991 -53.370  1.00  0.00     0.316 C 
HETATM   14  N   UNL     1     -41.710  53.763 -52.762  1.00  0.00    -0.343 N 
HETATM   15  O   UNL     1     -40.598  55.543 -53.700  1.00  0.00    -0.247 OA
HETATM   16  H   UNL     1     -42.565  53.262 -52.954  1.00  0.00     0.164 HD
HETATM   17  H   UNL     1     -43.626  55.185 -52.982  1.00  0.00     0.165 HD
BRANCH  14  18
HETATM   18  C   UNL     1     -40.521  52.945 -52.605  1.00  0.00     0.124 C 
BRANCH  18  19
HETATM   19  C   UNL     1     -40.103  52.168 -53.855  1.00  0.00     0.019 C 
BRANCH  19  20
HETATM   20  C   UNL     1     -39.532  50.785 -53.538  1.00  0.00    -0.003 C 
HETATM   21  C   UNL     1     -39.848  49.794 -54.648  1.00  0.00     0.005 C 
ENDBRANCH  19  20
ENDBRANCH  18  19
ENDBRANCH  14  18
ENDBRANCH   1  12
BRANCH   4  22
HETATM   22  C   UNL     1     -45.011  58.106 -58.533  1.00  0.00     0.058 A 
HETATM   23  C   UNL     1     -46.389  57.882 -58.699  1.00  0.00     0.034 A 
HETATM   24  C   UNL     1     -47.078  58.433 -59.784  1.00  0.00     0.039 A 
HETATM   25  C   UNL     1     -46.413  59.218 -60.724  1.00  0.00     0.068 A 
HETATM   26  C   UNL     1     -45.057  59.485 -60.540  1.00  0.00     0.039 A 
HETATM   27  C   UNL     1     -44.361  58.939 -59.449  1.00  0.00     0.034 A 
BRANCH  25  28
HETATM   28  O   UNL     1     -47.189  59.673 -61.752  1.00  0.00    -0.356 OA
HETATM   29  C   UNL     1     -48.590  59.452 -61.638  1.00  0.00     0.210 C 
ENDBRANCH  25  28
ENDBRANCH   4  22
TORSDOF 6
ENDMDL
MODEL 9
REMARK VINA RESULT:      -6.6     17.298     19.930
REMARK  6 active torsions:
REMARK  status: ('A' for Active; 'I' for Inactive)
REMARK    1  A    between atoms: C_2  and  C_3 
REMARK    2  A    between atoms: C_3  and  C_4 
REMARK    3  A    between atoms: C_4  and  N_5 
REMARK       I    between atoms: N_5  and  C_6 
REMARK       I    between atoms: C_6  and  N_7 
REMARK    4  A    between atoms: N_7  and  C_8 
REMARK    5  A    between atoms: N_11  and  C_12 
REMARK    6  A    between atoms: C_15  and  O_16 
ROOT
HETATM    1  C   UNL     1     -34.228  40.263 -54.991  1.00  0.00     0.123 C 
HETATM    2  C   UNL     1     -34.344  40.339 -53.509  1.00  0.00     0.009 A 
HETATM    3  C   UNL     1     -33.678  39.502 -52.631  1.00  0.00     0.047 A 
HETATM    4  N   UNL     1     -33.940  39.970 -51.346  1.00  0.00    -0.238 N 
HETATM    5  N   UNL     1     -34.774  41.051 -51.403  1.00  0.00    -0.179 NA
HETATM    6  C   UNL     1     -34.993  41.271 -52.695  1.00  0.00     0.150 A 
HETATM    7  C   UNL     1     -32.798  38.368 -53.051  1.00  0.00     0.069 C 
HETATM    8  C   UNL     1     -32.469  38.408 -54.579  1.00  0.00    -0.040 C 
HETATM    9  C   UNL     1     -32.076  36.989 -55.036  1.00  0.00     0.015 C 
HETATM   10  C   UNL     1     -31.266  39.339 -54.833  1.00  0.00     0.015 C 
HETATM   11  C   UNL     1     -33.698  38.875 -55.413  1.00  0.00     0.039 C 
ENDROOT
BRANCH   1  12
HETATM   12  N   UNL     1     -35.516  40.530 -55.595  1.00  0.00    -0.334 N 
HETATM   13  C   UNL     1     -35.585  41.307 -56.723  1.00  0.00     0.316 C 
HETATM   14  N   UNL     1     -36.857  41.341 -57.235  1.00  0.00    -0.343 N 
HETATM   15  O   UNL     1     -34.629  41.900 -57.202  1.00  0.00    -0.247 OA
HETATM   16  H   UNL     1     -37.579  41.204 -56.543  1.00  0.00     0.164 HD
HETATM   17  H   UNL     1     -36.232  39.830 -55.484  1.00  0.00     0.165 HD
BRANCH  14  18
HETATM   18  C   UNL     1     -37.193  42.237 -58.327  1.00  0.00     0.124 C 
BRANCH  18  19
HETATM   19  C   UNL     1     -37.190  41.592 -59.714  1.00  0.00     0.019 C 
BRANCH  19  20
HETATM   20  C   UNL     1     -37.446  40.085 -59.675  1.00  0.00    -0.003 C 
HETATM   21  C   UNL     1     -37.476  39.498 -61.078  1.00  0.00     0.005 C 
ENDBRANCH  19  20
ENDBRANCH  18  19
ENDBRANCH  14  18
ENDBRANCH   1  12
BRANCH   4  22
HETATM   22  C   UNL     1     -33.457  39.544 -50.068  1.00  0.00     0.058 A 
HETATM   23  C   UNL     1     -32.214  40.029 -49.625  1.00  0.00     0.034 A 
HETATM   24  C   UNL     1     -31.661  39.588 -48.418  1.00  0.00     0.039 A 
HETATM   25  C   UNL     1     -32.334  38.659 -47.627  1.00  0.00     0.068 A 
HETATM   26  C   UNL     1     -33.589  38.210 -48.034  1.00  0.00     0.039 A 
HETATM   27  C   UNL     1     -34.150  38.654 -49.243  1.00  0.00     0.034 A 
BRANCH  25  28
HETATM   28  O   UNL     1     -31.677  38.286 -46.489  1.00  0.00    -0.356 OA
HETATM   29  C   UNL     1     -30.822  39.258 -45.899  1.00  0.00     0.210 C 
ENDBRANCH  25  28
ENDBRANCH   4  22
TORSDOF 6
ENDMDL
MODEL 10
REMARK VINA RESULT:      -6.5      3.669      8.243
REMARK  6 active torsions:
REMARK  status: ('A' for Active; 'I' for Inactive)
REMARK    1  A    between atoms: C_2  and  C_3 
REMARK    2  A    between atoms: C_3  and  C_4 
REMARK    3  A    between atoms: C_4  and  N_5 
REMARK       I    between atoms: N_5  and  C_6 
REMARK       I    between atoms: C_6  and  N_7 
REMARK    4  A    between atoms: N_7  and  C_8 
REMARK    5  A    between atoms: N_11  and  C_12 
REMARK    6  A    between atoms: C_15  and  O_16 
ROOT
HETATM    1  C   UNL     1     -41.762  54.878 -51.854  1.00  0.00     0.123 C 
HETATM    2  C   UNL     1     -41.806  54.909 -53.341  1.00  0.00     0.009 A 
HETATM    3  C   UNL     1     -42.503  55.848 -54.082  1.00  0.00     0.047 A 
HETATM    4  N   UNL     1     -42.192  55.622 -55.420  1.00  0.00    -0.238 N 
HETATM    5  N   UNL     1     -41.348  54.552 -55.531  1.00  0.00    -0.179 NA
HETATM    6  C   UNL     1     -41.114  54.148 -54.286  1.00  0.00     0.150 A 
HETATM    7  C   UNL     1     -43.358  56.922 -53.489  1.00  0.00     0.069 C 
HETATM    8  C   UNL     1     -43.147  57.064 -51.947  1.00  0.00    -0.040 C 
HETATM    9  C   UNL     1     -44.396  57.733 -51.338  1.00  0.00     0.015 C 
HETATM   10  C   UNL     1     -41.935  57.974 -51.664  1.00  0.00     0.015 C 
HETATM   11  C   UNL     1     -42.949  55.676 -51.270  1.00  0.00     0.039 C 
ENDROOT
BRANCH   1  12
HETATM   12  N   UNL     1     -41.786  53.506 -51.394  1.00  0.00    -0.334 N 
HETATM   13  C   UNL     1     -40.608  52.818 -51.258  1.00  0.00     0.316 C 
HETATM   14  N   UNL     1     -40.805  51.587 -50.684  1.00  0.00    -0.343 N 
HETATM   15  O   UNL     1     -39.521  53.251 -51.614  1.00  0.00    -0.247 OA
HETATM   16  H   UNL     1     -41.722  51.200 -50.854  1.00  0.00     0.164 HD
HETATM   17  H   UNL     1     -42.540  53.238 -50.781  1.00  0.00     0.165 HD
BRANCH  14  18
HETATM   18  C   UNL     1     -39.720  50.627 -50.601  1.00  0.00     0.124 C 
BRANCH  18  19
HETATM   19  C   UNL     1     -39.862  49.413 -51.521  1.00  0.00     0.019 C 
BRANCH  19  20
HETATM   20  C   UNL     1     -39.214  49.619 -52.891  1.00  0.00    -0.003 C 
HETATM   21  C   UNL     1     -40.223  50.139 -53.903  1.00  0.00     0.005 C 
ENDBRANCH  19  20
ENDBRANCH  18  19
ENDBRANCH  14  18
ENDBRANCH   1  12
BRANCH   4  22
HETATM   22  C   UNL     1     -42.560  56.329 -56.608  1.00  0.00     0.058 A 
HETATM   23  C   UNL     1     -42.247  57.696 -56.700  1.00  0.00     0.034 A 
HETATM   24  C   UNL     1     -42.650  58.452 -57.807  1.00  0.00     0.039 A 
HETATM   25  C   UNL     1     -43.369  57.862 -58.844  1.00  0.00     0.068 A 
HETATM   26  C   UNL     1     -43.641  56.497 -58.786  1.00  0.00     0.039 A 
HETATM   27  C   UNL     1     -43.234  55.733 -57.678  1.00  0.00     0.034 A 
BRANCH  25  28
HETATM   28  O   UNL     1     -43.729  58.710 -59.853  1.00  0.00    -0.356 OA
HETATM   29  C   UNL     1     -43.838  60.089 -59.518  1.00  0.00     0.210 C 
ENDBRANCH  25  28
ENDBRANCH   4  22
TORSDOF 6
ENDMDL
