MODEL 1
REMARK VINA RESULT:      -8.1      0.000      0.000
REMARK  5 active torsions:
REMARK  status: ('A' for Active; 'I' for Inactive)
REMARK    1  A    between atoms: C_4  and  C_5 
REMARK    2  A    between atoms: C_5  and  N_6 
REMARK    3  A    between atoms: C_9  and  N_10 
REMARK       I    between atoms: N_10  and  C_11 
REMARK       I    between atoms: C_11  and  N_12 
REMARK    4  A    between atoms: N_12  and  N_13 
REMARK       I    between atoms: N_13  and  C_14 
REMARK    5  A    between atoms: C_14  and  C_15 
ROOT
HETATM    1  N   UNL     1     -43.406  57.551 -52.473  1.00  0.00    -0.336 N 
HETATM    2  C   UNL     1     -44.183  57.849 -51.378  1.00  0.00     0.335 C 
HETATM    3  N   UNL     1     -44.406  59.197 -51.246  1.00  0.00    -0.249 N 
HETATM    4  O   UNL     1     -44.635  56.993 -50.626  1.00  0.00    -0.246 OA
HETATM    5  H   UNL     1     -43.481  58.249 -53.206  1.00  0.00     0.164 HD
HETATM    6  H   UNL     1     -43.745  59.871 -51.629  1.00  0.00     0.192 HD
ENDROOT
BRANCH   1   7
HETATM    7  C   UNL     1     -43.229  56.165 -52.893  1.00  0.00     0.112 C 
HETATM    8  C   UNL     1     -41.747  55.782 -53.148  1.00  0.00     0.260 C 
HETATM    9  N   UNL     1     -41.654  54.346 -53.631  1.00  0.00    -0.065 N 
HETATM   10  H   UNL     1     -42.100  53.770 -52.907  1.00  0.00     0.280 HD
HETATM   11  C   UNL     1     -42.421  54.132 -54.907  1.00  0.00     0.235 C 
HETATM   12  C   UNL     1     -43.885  54.470 -54.664  1.00  0.00     0.030 C 
HETATM   13  C   UNL     1     -44.063  55.897 -54.153  1.00  0.00     0.028 C 
BRANCH   9  14
HETATM   14  C   UNL     1     -40.228  53.826 -53.681  1.00  0.00     0.273 C 
BRANCH  14  15
HETATM   15  C   UNL     1     -40.046  52.367 -53.361  1.00  0.00    -0.033 A 
HETATM   16  C   UNL     1     -40.178  51.396 -54.366  1.00  0.00     0.009 A 
HETATM   17  C   UNL     1     -40.023  50.042 -54.067  1.00  0.00     0.001 A 
HETATM   18  C   UNL     1     -39.734  49.643 -52.765  1.00  0.00     0.000 A 
HETATM   19  C   UNL     1     -39.591  50.596 -51.760  1.00  0.00     0.001 A 
HETATM   20  C   UNL     1     -39.744  51.952 -52.054  1.00  0.00     0.009 A 
ENDBRANCH  14  15
ENDBRANCH   9  14
ENDBRANCH   1   7
BRANCH   3  21
HETATM   21  N   UNL     1     -45.087  59.642 -50.105  1.00  0.00    -0.261 N 
HETATM   22  C   UNL     1     -44.609  60.758 -49.438  1.00  0.00     0.277 C 
HETATM   23  O   UNL     1     -43.585  61.320 -49.831  1.00  0.00    -0.265 OA
HETATM   24  H   UNL     1     -45.923  59.141 -49.813  1.00  0.00     0.190 HD
BRANCH  22  25
HETATM   25  C   UNL     1     -45.377  61.201 -48.286  1.00  0.00     0.075 A 
HETATM   26  S   UNL     1     -45.864  62.835 -48.079  1.00  0.00    -0.077 SA
HETATM   27  C   UNL     1     -46.643  62.480 -46.618  1.00  0.00     0.052 A 
HETATM   28 BR   UNL     1     -47.538  63.771 -45.598  1.00  0.00    -0.043 Br
HETATM   29  C   UNL     1     -46.551  61.160 -46.260  1.00  0.00     0.028 A 
HETATM   30  C   UNL     1     -45.818  60.417 -47.232  1.00  0.00     0.026 A 
ENDBRANCH  22  25
ENDBRANCH   3  21
TORSDOF 5
ENDMDL
MODEL 2
REMARK VINA RESULT:      -7.8      5.318      6.761
REMARK  5 active torsions:
REMARK  status: ('A' for Active; 'I' for Inactive)
REMARK    1  A    between atoms: C_4  and  C_5 
REMARK    2  A    between atoms: C_5  and  N_6 
REMARK    3  A    between atoms: C_9  and  N_10 
REMARK       I    between atoms: N_10  and  C_11 
REMARK       I    between atoms: C_11  and  N_12 
REMARK    4  A    between atoms: N_12  and  N_13 
REMARK       I    between atoms: N_13  and  C_14 
REMARK    5  A    between atoms: C_14  and  C_15 
ROOT
HETATM    1  N   UNL     1     -43.576  55.722 -52.476  1.00  0.00    -0.336 N 
HETATM    2  C   UNL     1     -43.719  56.194 -53.760  1.00  0.00     0.335 C 
HETATM    3  N   UNL     1     -45.014  56.547 -54.046  1.00  0.00    -0.249 N 
HETATM    4  O   UNL     1     -42.782  56.300 -54.543  1.00  0.00    -0.246 OA
HETATM    5  H   UNL     1     -44.279  56.091 -51.844  1.00  0.00     0.164 HD
HETATM    6  H   UNL     1     -45.791  56.115 -53.547  1.00  0.00     0.192 HD
ENDROOT
BRANCH   1   7
HETATM    7  C   UNL     1     -42.245  55.488 -51.924  1.00  0.00     0.112 C 
HETATM    8  C   UNL     1     -42.004  54.015 -51.501  1.00  0.00     0.260 C 
HETATM    9  N   UNL     1     -40.622  53.867 -50.889  1.00  0.00    -0.065 N 
HETATM   10  H   UNL     1     -39.957  54.196 -51.599  1.00  0.00     0.280 HD
HETATM   11  C   UNL     1     -40.448  54.739 -49.676  1.00  0.00     0.235 C 
HETATM   12  C   UNL     1     -40.647  56.193 -50.082  1.00  0.00     0.030 C 
HETATM   13  C   UNL     1     -42.011  56.422 -50.728  1.00  0.00     0.028 C 
BRANCH   9  14
HETATM   14  C   UNL     1     -40.224  52.419 -50.662  1.00  0.00     0.273 C 
BRANCH  14  15
HETATM   15  C   UNL     1     -40.000  51.595 -51.902  1.00  0.00    -0.033 A 
HETATM   16  C   UNL     1     -40.092  52.182 -53.174  1.00  0.00     0.009 A 
HETATM   17  C   UNL     1     -39.899  51.415 -54.323  1.00  0.00     0.001 A 
HETATM   18  C   UNL     1     -39.609  50.058 -54.216  1.00  0.00     0.000 A 
HETATM   19  C   UNL     1     -39.504  49.465 -52.960  1.00  0.00     0.001 A 
HETATM   20  C   UNL     1     -39.697  50.228 -51.808  1.00  0.00     0.009 A 
ENDBRANCH  14  15
ENDBRANCH   9  14
ENDBRANCH   1   7
BRANCH   3  21
HETATM   21  N   UNL     1     -45.316  56.934 -55.358  1.00  0.00    -0.261 N 
HETATM   22  C   UNL     1     -45.472  58.282 -55.637  1.00  0.00     0.277 C 
HETATM   23  O   UNL     1     -45.376  59.112 -54.731  1.00  0.00    -0.265 OA
HETATM   24  H   UNL     1     -45.393  56.211 -56.071  1.00  0.00     0.190 HD
BRANCH  22  25
HETATM   25  C   UNL     1     -45.742  58.630 -57.022  1.00  0.00     0.075 A 
HETATM   26  S   UNL     1     -44.659  59.574 -57.961  1.00  0.00    -0.077 SA
HETATM   27  C   UNL     1     -45.667  59.489 -59.318  1.00  0.00     0.052 A 
HETATM   28 BR   UNL     1     -45.248  60.299 -60.954  1.00  0.00    -0.043 Br
HETATM   29  C   UNL     1     -46.814  58.771 -59.099  1.00  0.00     0.028 A 
HETATM   30  C   UNL     1     -46.855  58.268 -57.765  1.00  0.00     0.026 A 
ENDBRANCH  22  25
ENDBRANCH   3  21
TORSDOF 5
ENDMDL
MODEL 3
REMARK VINA RESULT:      -7.8      6.313      8.452
REMARK  5 active torsions:
REMARK  status: ('A' for Active; 'I' for Inactive)
REMARK    1  A    between atoms: C_4  and  C_5 
REMARK    2  A    between atoms: C_5  and  N_6 
REMARK    3  A    between atoms: C_9  and  N_10 
REMARK       I    between atoms: N_10  and  C_11 
REMARK       I    between atoms: C_11  and  N_12 
REMARK    4  A    between atoms: N_12  and  N_13 
REMARK       I    between atoms: N_13  and  C_14 
REMARK    5  A    between atoms: C_14  and  C_15 
ROOT
HETATM    1  N   UNL     1     -41.948  55.442 -55.713  1.00  0.00    -0.336 N 
HETATM    2  C   UNL     1     -42.247  56.641 -56.317  1.00  0.00     0.335 C 
HETATM    3  N   UNL     1     -42.372  56.525 -57.678  1.00  0.00    -0.249 N 
HETATM    4  O   UNL     1     -42.400  57.685 -55.692  1.00  0.00    -0.246 OA
HETATM    5  H   UNL     1     -42.279  54.644 -56.246  1.00  0.00     0.164 HD
HETATM    6  H   UNL     1     -41.890  55.781 -58.181  1.00  0.00     0.192 HD
ENDROOT
BRANCH   1   7
HETATM    7  C   UNL     1     -41.974  55.325 -54.259  1.00  0.00     0.112 C 
HETATM    8  C   UNL     1     -40.904  54.352 -53.699  1.00  0.00     0.260 C 
HETATM    9  N   UNL     1     -41.033  54.246 -52.189  1.00  0.00    -0.065 N 
HETATM   10  H   UNL     1     -40.939  55.202 -51.825  1.00  0.00     0.280 HD
HETATM   11  C   UNL     1     -42.388  53.741 -51.776  1.00  0.00     0.235 C 
HETATM   12  C   UNL     1     -43.450  54.705 -52.288  1.00  0.00     0.030 C 
HETATM   13  C   UNL     1     -43.372  54.884 -53.801  1.00  0.00     0.028 C 
BRANCH   9  14
HETATM   14  C   UNL     1     -39.879  53.497 -51.546  1.00  0.00     0.273 C 
BRANCH  14  15
HETATM   15  C   UNL     1     -39.801  52.024 -51.844  1.00  0.00    -0.033 A 
HETATM   16  C   UNL     1     -39.829  51.083 -50.802  1.00  0.00     0.009 A 
HETATM   17  C   UNL     1     -39.743  49.718 -51.078  1.00  0.00     0.001 A 
HETATM   18  C   UNL     1     -39.630  49.277 -52.393  1.00  0.00     0.000 A 
HETATM   19  C   UNL     1     -39.611  50.199 -53.438  1.00  0.00     0.001 A 
HETATM   20  C   UNL     1     -39.698  51.565 -53.167  1.00  0.00     0.009 A 
ENDBRANCH  14  15
ENDBRANCH   9  14
ENDBRANCH   1   7
BRANCH   3  21
HETATM   21  N   UNL     1     -42.560  57.696 -58.424  1.00  0.00    -0.261 N 
HETATM   22  C   UNL     1     -42.476  57.627 -59.805  1.00  0.00     0.277 C 
HETATM   23  O   UNL     1     -42.207  56.556 -60.352  1.00  0.00    -0.265 OA
HETATM   24  H   UNL     1     -42.772  58.558 -57.927  1.00  0.00     0.190 HD
BRANCH  22  25
HETATM   25  C   UNL     1     -42.721  58.862 -60.531  1.00  0.00     0.075 A 
HETATM   26  S   UNL     1     -44.298  59.507 -60.741  1.00  0.00    -0.077 SA
HETATM   27  C   UNL     1     -43.704  60.833 -61.610  1.00  0.00     0.052 A 
HETATM   28 BR   UNL     1     -44.807  62.183 -62.293  1.00  0.00    -0.043 Br
HETATM   29  C   UNL     1     -42.342  60.817 -61.762  1.00  0.00     0.028 A 
HETATM   30  C   UNL     1     -41.771  59.672 -61.131  1.00  0.00     0.026 A 
ENDBRANCH  22  25
ENDBRANCH   3  21
TORSDOF 5
ENDMDL
MODEL 4
REMARK VINA RESULT:      -7.7      1.536      2.008
REMARK  5 active torsions:
REMARK  status: ('A' for Active; 'I' for Inactive)
REMARK    1  A    between atoms: C_4  and  C_5 
REMARK    2  A    between atoms: C_5  and  N_6 
REMARK    3  A    between atoms: C_9  and  N_10 
REMARK       I    between atoms: N_10  and  C_11 
REMARK       I    between atoms: C_11  and  N_12 
REMARK    4  A    between atoms: N_12  and  N_13 
REMARK       I    between atoms: N_13  and  C_14 
REMARK    5  A    between atoms: C_14  and  C_15 
ROOT
HETATM    1  N   UNL     1     -44.327  56.438 -52.523  1.00  0.00    -0.336 N 
HETATM    2  C   UNL     1     -43.911  57.471 -51.716  1.00  0.00     0.335 C 
HETATM    3  N   UNL     1     -44.936  58.002 -50.976  1.00  0.00    -0.249 N 
HETATM    4  O   UNL     1     -42.746  57.850 -51.663  1.00  0.00    -0.246 OA
HETATM    5  H   UNL     1     -45.147  55.964 -52.157  1.00  0.00     0.164 HD
HETATM    6  H   UNL     1     -45.899  57.937 -51.302  1.00  0.00     0.192 HD
ENDROOT
BRANCH   1   7
HETATM    7  C   UNL     1     -43.349  55.618 -53.231  1.00  0.00     0.112 C 
HETATM    8  C   UNL     1     -42.204  55.100 -52.321  1.00  0.00     0.260 C 
HETATM    9  N   UNL     1     -41.204  54.305 -53.141  1.00  0.00    -0.065 N 
HETATM   10  H   UNL     1     -41.737  53.549 -53.588  1.00  0.00     0.280 HD
HETATM   11  C   UNL     1     -40.594  55.132 -54.239  1.00  0.00     0.235 C 
HETATM   12  C   UNL     1     -41.702  55.619 -55.163  1.00  0.00     0.030 C 
HETATM   13  C   UNL     1     -42.764  56.413 -54.407  1.00  0.00     0.028 C 
BRANCH   9  14
HETATM   14  C   UNL     1     -40.183  53.574 -52.287  1.00  0.00     0.273 C 
BRANCH  14  15
HETATM   15  C   UNL     1     -39.984  52.116 -52.600  1.00  0.00    -0.033 A 
HETATM   16  C   UNL     1     -39.666  51.205 -51.581  1.00  0.00     0.009 A 
HETATM   17  C   UNL     1     -39.468  49.855 -51.874  1.00  0.00     0.001 A 
HETATM   18  C   UNL     1     -39.587  49.400 -53.184  1.00  0.00     0.000 A 
HETATM   19  C   UNL     1     -39.913  50.291 -54.204  1.00  0.00     0.001 A 
HETATM   20  C   UNL     1     -40.113  51.642 -53.915  1.00  0.00     0.009 A 
ENDBRANCH  14  15
ENDBRANCH   9  14
ENDBRANCH   1   7
BRANCH   3  21
HETATM   21  N   UNL     1     -44.667  59.138 -50.200  1.00  0.00    -0.261 N 
HETATM   22  C   UNL     1     -45.550  60.204 -50.252  1.00  0.00     0.277 C 
HETATM   23  O   UNL     1     -46.532  60.155 -50.994  1.00  0.00    -0.265 OA
HETATM   24  H   UNL     1     -43.839  59.136 -49.608  1.00  0.00     0.190 HD
BRANCH  22  25
HETATM   25  C   UNL     1     -45.246  61.339 -49.396  1.00  0.00     0.075 A 
HETATM   26  S   UNL     1     -45.841  61.465 -47.790  1.00  0.00    -0.077 SA
HETATM   27  C   UNL     1     -45.062  62.950 -47.555  1.00  0.00     0.052 A 
HETATM   28 BR   UNL     1     -45.158  63.911 -45.951  1.00  0.00    -0.043 Br
HETATM   29  C   UNL     1     -44.360  63.375 -48.653  1.00  0.00     0.028 A 
HETATM   30  C   UNL     1     -44.464  62.436 -49.722  1.00  0.00     0.026 A 
ENDBRANCH  22  25
ENDBRANCH   3  21
TORSDOF 5
ENDMDL
MODEL 5
REMARK VINA RESULT:      -7.7      5.868      7.925
REMARK  5 active torsions:
REMARK  status: ('A' for Active; 'I' for Inactive)
REMARK    1  A    between atoms: C_4  and  C_5 
REMARK    2  A    between atoms: C_5  and  N_6 
REMARK    3  A    between atoms: C_9  and  N_10 
REMARK       I    between atoms: N_10  and  C_11 
REMARK       I    between atoms: C_11  and  N_12 
REMARK    4  A    between atoms: N_12  and  N_13 
REMARK       I    between atoms: N_13  and  C_14 
REMARK    5  A    between atoms: C_14  and  C_15 
ROOT
HETATM    1  N   UNL     1     -44.333  57.851 -53.844  1.00  0.00    -0.336 N 
HETATM    2  C   UNL     1     -44.694  57.512 -55.127  1.00  0.00     0.335 C 
HETATM    3  N   UNL     1     -45.879  58.089 -55.508  1.00  0.00    -0.249 N 
HETATM    4  O   UNL     1     -44.012  56.789 -55.845  1.00  0.00    -0.246 OA
HETATM    5  H   UNL     1     -44.716  58.746 -53.555  1.00  0.00     0.164 HD
HETATM    6  H   UNL     1     -46.575  58.352 -54.811  1.00  0.00     0.192 HD
ENDROOT
BRANCH   1   7
HETATM    7  C   UNL     1     -43.012  57.499 -53.335  1.00  0.00     0.112 C 
HETATM    8  C   UNL     1     -43.005  56.208 -52.475  1.00  0.00     0.260 C 
HETATM    9  N   UNL     1     -41.609  55.942 -51.941  1.00  0.00    -0.065 N 
HETATM   10  H   UNL     1     -40.994  55.883 -52.762  1.00  0.00     0.280 HD
HETATM   11  C   UNL     1     -41.109  57.076 -51.090  1.00  0.00     0.235 C 
HETATM   12  C   UNL     1     -41.074  58.345 -51.930  1.00  0.00     0.030 C 
HETATM   13  C   UNL     1     -42.442  58.671 -52.523  1.00  0.00     0.028 C 
BRANCH   9  14
HETATM   14  C   UNL     1     -41.473  54.579 -51.286  1.00  0.00     0.273 C 
BRANCH  14  15
HETATM   15  C   UNL     1     -40.795  53.517 -52.109  1.00  0.00    -0.033 A 
HETATM   16  C   UNL     1     -40.870  53.545 -53.511  1.00  0.00     0.009 A 
HETATM   17  C   UNL     1     -40.254  52.552 -54.273  1.00  0.00     0.001 A 
HETATM   18  C   UNL     1     -39.554  51.524 -53.647  1.00  0.00     0.000 A 
HETATM   19  C   UNL     1     -39.463  51.489 -52.258  1.00  0.00     0.001 A 
HETATM   20  C   UNL     1     -40.077  52.481 -51.491  1.00  0.00     0.009 A 
ENDBRANCH  14  15
ENDBRANCH   9  14
ENDBRANCH   1   7
BRANCH   3  21
HETATM   21  N   UNL     1     -46.416  57.731 -56.751  1.00  0.00    -0.261 N 
HETATM   22  C   UNL     1     -46.217  58.575 -57.831  1.00  0.00     0.277 C 
HETATM   23  O   UNL     1     -45.606  59.635 -57.680  1.00  0.00    -0.265 OA
HETATM   24  H   UNL     1     -46.921  56.850 -56.825  1.00  0.00     0.190 HD
BRANCH  22  25
HETATM   25  C   UNL     1     -46.759  58.135 -59.106  1.00  0.00     0.075 A 
HETATM   26  S   UNL     1     -47.537  59.210 -60.195  1.00  0.00    -0.077 SA
HETATM   27  C   UNL     1     -47.817  57.970 -61.313  1.00  0.00     0.052 A 
HETATM   28 BR   UNL     1     -48.683  58.247 -62.950  1.00  0.00    -0.043 Br
HETATM   29  C   UNL     1     -47.347  56.750 -60.900  1.00  0.00     0.028 A 
HETATM   30  C   UNL     1     -46.729  56.847 -59.618  1.00  0.00     0.026 A 
ENDBRANCH  22  25
ENDBRANCH   3  21
TORSDOF 5
ENDMDL
MODEL 6
REMARK VINA RESULT:      -7.6      5.884      7.784
REMARK  5 active torsions:
REMARK  status: ('A' for Active; 'I' for Inactive)
REMARK    1  A    between atoms: C_4  and  C_5 
REMARK    2  A    between atoms: C_5  and  N_6 
REMARK    3  A    between atoms: C_9  and  N_10 
REMARK       I    between atoms: N_10  and  C_11 
REMARK       I    between atoms: C_11  and  N_12 
REMARK    4  A    between atoms: N_12  and  N_13 
REMARK       I    between atoms: N_13  and  C_14 
REMARK    5  A    between atoms: C_14  and  C_15 
ROOT
HETATM    1  N   UNL     1     -43.348  55.181 -53.746  1.00  0.00    -0.336 N 
HETATM    2  C   UNL     1     -43.186  56.216 -54.638  1.00  0.00     0.335 C 
HETATM    3  N   UNL     1     -44.146  56.218 -55.618  1.00  0.00    -0.249 N 
HETATM    4  O   UNL     1     -42.289  57.046 -54.542  1.00  0.00    -0.246 OA
HETATM    5  H   UNL     1     -44.313  54.872 -53.680  1.00  0.00     0.164 HD
HETATM    6  H   UNL     1     -44.615  55.354 -55.885  1.00  0.00     0.192 HD
ENDROOT
BRANCH   1   7
HETATM    7  C   UNL     1     -42.550  55.131 -52.526  1.00  0.00     0.112 C 
HETATM    8  C   UNL     1     -41.457  54.030 -52.549  1.00  0.00     0.260 C 
HETATM    9  N   UNL     1     -40.709  54.008 -51.228  1.00  0.00    -0.065 N 
HETATM   10  H   UNL     1     -40.327  54.953 -51.098  1.00  0.00     0.280 HD
HETATM   11  C   UNL     1     -41.627  53.734 -50.069  1.00  0.00     0.235 C 
HETATM   12  C   UNL     1     -42.686  54.826 -50.009  1.00  0.00     0.030 C 
HETATM   13  C   UNL     1     -43.471  54.928 -51.314  1.00  0.00     0.028 C 
BRANCH   9  14
HETATM   14  C   UNL     1     -39.478  53.119 -51.257  1.00  0.00     0.273 C 
BRANCH  14  15
HETATM   15  C   UNL     1     -39.579  51.880 -52.104  1.00  0.00    -0.033 A 
HETATM   16  C   UNL     1     -39.698  51.979 -53.499  1.00  0.00     0.009 A 
HETATM   17  C   UNL     1     -39.806  50.830 -54.284  1.00  0.00     0.001 A 
HETATM   18  C   UNL     1     -39.793  49.573 -53.686  1.00  0.00     0.000 A 
HETATM   19  C   UNL     1     -39.664  49.459 -52.304  1.00  0.00     0.001 A 
HETATM   20  C   UNL     1     -39.556  50.606 -51.515  1.00  0.00     0.009 A 
ENDBRANCH  14  15
ENDBRANCH   9  14
ENDBRANCH   1   7
BRANCH   3  21
HETATM   21  N   UNL     1     -44.025  57.152 -56.655  1.00  0.00    -0.261 N 
HETATM   22  C   UNL     1     -43.580  56.718 -57.893  1.00  0.00     0.277 C 
HETATM   23  O   UNL     1     -43.268  55.537 -58.057  1.00  0.00    -0.265 OA
HETATM   24  H   UNL     1     -44.286  58.118 -56.471  1.00  0.00     0.190 HD
BRANCH  22  25
HETATM   25  C   UNL     1     -43.513  57.720 -58.945  1.00  0.00     0.075 A 
HETATM   26  S   UNL     1     -42.118  58.685 -59.208  1.00  0.00    -0.077 SA
HETATM   27  C   UNL     1     -42.847  59.489 -60.508  1.00  0.00     0.052 A 
HETATM   28 BR   UNL     1     -41.984  60.827 -61.494  1.00  0.00    -0.043 Br
HETATM   29  C   UNL     1     -44.125  59.063 -60.763  1.00  0.00     0.028 A 
HETATM   30  C   UNL     1     -44.510  58.032 -59.856  1.00  0.00     0.026 A 
ENDBRANCH  22  25
ENDBRANCH   3  21
TORSDOF 5
ENDMDL
MODEL 7
REMARK VINA RESULT:      -7.5      5.663      9.133
REMARK  5 active torsions:
REMARK  status: ('A' for Active; 'I' for Inactive)
REMARK    1  A    between atoms: C_4  and  C_5 
REMARK    2  A    between atoms: C_5  and  N_6 
REMARK    3  A    between atoms: C_9  and  N_10 
REMARK       I    between atoms: N_10  and  C_11 
REMARK       I    between atoms: C_11  and  N_12 
REMARK    4  A    between atoms: N_12  and  N_13 
REMARK       I    between atoms: N_13  and  C_14 
REMARK    5  A    between atoms: C_14  and  C_15 
ROOT
HETATM    1  N   UNL     1     -41.434  54.854 -55.913  1.00  0.00    -0.336 N 
HETATM    2  C   UNL     1     -42.585  55.396 -56.436  1.00  0.00     0.335 C 
HETATM    3  N   UNL     1     -42.432  55.791 -57.741  1.00  0.00    -0.249 N 
HETATM    4  O   UNL     1     -43.629  55.492 -55.800  1.00  0.00    -0.246 OA
HETATM    5  H   UNL     1     -40.838  54.446 -56.625  1.00  0.00     0.164 HD
HETATM    6  H   UNL     1     -41.512  56.044 -58.101  1.00  0.00     0.192 HD
ENDROOT
BRANCH   1   7
HETATM    7  C   UNL     1     -41.458  54.197 -54.610  1.00  0.00     0.112 C 
HETATM    8  C   UNL     1     -41.338  55.183 -53.419  1.00  0.00     0.260 C 
HETATM    9  N   UNL     1     -41.316  54.419 -52.108  1.00  0.00    -0.065 N 
HETATM   10  H   UNL     1     -42.180  53.863 -52.085  1.00  0.00     0.280 HD
HETATM   11  C   UNL     1     -40.163  53.456 -52.038  1.00  0.00     0.235 C 
HETATM   12  C   UNL     1     -40.286  52.457 -53.181  1.00  0.00     0.030 C 
HETATM   13  C   UNL     1     -40.336  53.151 -54.539  1.00  0.00     0.028 C 
BRANCH   9  14
HETATM   14  C   UNL     1     -41.434  55.321 -50.892  1.00  0.00     0.273 C 
BRANCH  14  15
HETATM   15  C   UNL     1     -42.373  56.489 -51.025  1.00  0.00    -0.033 A 
HETATM   16  C   UNL     1     -41.874  57.796 -51.133  1.00  0.00     0.009 A 
HETATM   17  C   UNL     1     -42.746  58.880 -51.243  1.00  0.00     0.001 A 
HETATM   18  C   UNL     1     -44.123  58.671 -51.249  1.00  0.00     0.000 A 
HETATM   19  C   UNL     1     -44.631  57.379 -51.153  1.00  0.00     0.001 A 
HETATM   20  C   UNL     1     -43.763  56.291 -51.044  1.00  0.00     0.009 A 
ENDBRANCH  14  15
ENDBRANCH   9  14
ENDBRANCH   1   7
BRANCH   3  21
HETATM   21  N   UNL     1     -43.496  56.466 -58.354  1.00  0.00    -0.261 N 
HETATM   22  C   UNL     1     -44.261  55.791 -59.291  1.00  0.00     0.277 C 
HETATM   23  O   UNL     1     -43.980  54.630 -59.595  1.00  0.00    -0.265 OA
HETATM   24  H   UNL     1     -43.684  57.427 -58.077  1.00  0.00     0.190 HD
BRANCH  22  25
HETATM   25  C   UNL     1     -45.378  56.525 -59.864  1.00  0.00     0.075 A 
HETATM   26  S   UNL     1     -45.481  58.237 -59.803  1.00  0.00    -0.077 SA
HETATM   27  C   UNL     1     -46.954  58.237 -60.638  1.00  0.00     0.052 A 
HETATM   28 BR   UNL     1     -47.887  59.804 -61.063  1.00  0.00    -0.043 Br
HETATM   29  C   UNL     1     -47.392  56.981 -60.968  1.00  0.00     0.028 A 
HETATM   30  C   UNL     1     -46.473  55.986 -60.520  1.00  0.00     0.026 A 
ENDBRANCH  22  25
ENDBRANCH   3  21
TORSDOF 5
ENDMDL
MODEL 8
REMARK VINA RESULT:      -7.4      4.467     10.585
REMARK  5 active torsions:
REMARK  status: ('A' for Active; 'I' for Inactive)
REMARK    1  A    between atoms: C_4  and  C_5 
REMARK    2  A    between atoms: C_5  and  N_6 
REMARK    3  A    between atoms: C_9  and  N_10 
REMARK       I    between atoms: N_10  and  C_11 
REMARK       I    between atoms: C_11  and  N_12 
REMARK    4  A    between atoms: N_12  and  N_13 
REMARK       I    between atoms: N_13  and  C_14 
REMARK    5  A    between atoms: C_14  and  C_15 
ROOT
HETATM    1  N   UNL     1     -43.588  58.827 -52.034  1.00  0.00    -0.336 N 
HETATM    2  C   UNL     1     -42.927  57.634 -51.863  1.00  0.00     0.335 C 
HETATM    3  N   UNL     1     -43.011  56.825 -52.968  1.00  0.00    -0.249 N 
HETATM    4  O   UNL     1     -42.318  57.347 -50.838  1.00  0.00    -0.246 OA
HETATM    5  H   UNL     1     -43.649  59.103 -53.009  1.00  0.00     0.164 HD
HETATM    6  H   UNL     1     -43.794  56.912 -53.615  1.00  0.00     0.192 HD
ENDROOT
BRANCH   1   7
HETATM    7  C   UNL     1     -43.443  59.895 -51.051  1.00  0.00     0.112 C 
HETATM    8  C   UNL     1     -44.737  60.168 -50.240  1.00  0.00     0.260 C 
HETATM    9  N   UNL     1     -44.519  61.325 -49.281  1.00  0.00    -0.065 N 
HETATM   10  H   UNL     1     -43.721  61.061 -48.690  1.00  0.00     0.280 HD
HETATM   11  C   UNL     1     -44.142  62.589 -50.003  1.00  0.00     0.235 C 
HETATM   12  C   UNL     1     -42.852  62.349 -50.776  1.00  0.00     0.030 C 
HETATM   13  C   UNL     1     -42.983  61.182 -51.751  1.00  0.00     0.028 C 
BRANCH   9  14
HETATM   14  C   UNL     1     -45.659  61.502 -48.294  1.00  0.00     0.273 C 
BRANCH  14  15
HETATM   15  C   UNL     1     -45.263  61.849 -46.885  1.00  0.00    -0.033 A 
HETATM   16  C   UNL     1     -44.735  60.869 -46.030  1.00  0.00     0.009 A 
HETATM   17  C   UNL     1     -44.381  61.188 -44.719  1.00  0.00     0.001 A 
HETATM   18  C   UNL     1     -44.547  62.488 -44.247  1.00  0.00     0.000 A 
HETATM   19  C   UNL     1     -45.060  63.473 -45.087  1.00  0.00     0.001 A 
HETATM   20  C   UNL     1     -45.415  63.158 -46.400  1.00  0.00     0.009 A 
ENDBRANCH  14  15
ENDBRANCH   9  14
ENDBRANCH   1   7
BRANCH   3  21
HETATM   21  N   UNL     1     -42.478  55.532 -52.880  1.00  0.00    -0.261 N 
HETATM   22  C   UNL     1     -41.233  55.286 -53.436  1.00  0.00     0.277 C 
HETATM   23  O   UNL     1     -40.632  56.187 -54.023  1.00  0.00    -0.265 OA
HETATM   24  H   UNL     1     -43.015  54.819 -52.393  1.00  0.00     0.190 HD
BRANCH  22  25
HETATM   25  C   UNL     1     -40.709  53.939 -53.279  1.00  0.00     0.075 A 
HETATM   26  S   UNL     1     -40.561  53.184 -51.745  1.00  0.00    -0.077 SA
HETATM   27  C   UNL     1     -39.934  51.770 -52.435  1.00  0.00     0.052 A 
HETATM   28 BR   UNL     1     -39.446  50.270 -51.426  1.00  0.00    -0.043 Br
HETATM   29  C   UNL     1     -39.821  51.836 -53.800  1.00  0.00     0.028 A 
HETATM   30  C   UNL     1     -40.275  53.097 -54.290  1.00  0.00     0.026 A 
ENDBRANCH  22  25
ENDBRANCH   3  21
TORSDOF 5
ENDMDL
MODEL 9
REMARK VINA RESULT:      -7.3      6.615      9.640
REMARK  5 active torsions:
REMARK  status: ('A' for Active; 'I' for Inactive)
REMARK    1  A    between atoms: C_4  and  C_5 
REMARK    2  A    between atoms: C_5  and  N_6 
REMARK    3  A    between atoms: C_9  and  N_10 
REMARK       I    between atoms: N_10  and  C_11 
REMARK       I    between atoms: C_11  and  N_12 
REMARK    4  A    between atoms: N_12  and  N_13 
REMARK       I    between atoms: N_13  and  C_14 
REMARK    5  A    between atoms: C_14  and  C_15 
ROOT
HETATM    1  N   UNL     1     -44.100  56.650 -56.732  1.00  0.00    -0.336 N 
HETATM    2  C   UNL     1     -43.254  56.317 -55.700  1.00  0.00     0.335 C 
HETATM    3  N   UNL     1     -43.862  55.526 -54.758  1.00  0.00    -0.249 N 
HETATM    4  O   UNL     1     -42.083  56.679 -55.652  1.00  0.00    -0.246 OA
HETATM    5  H   UNL     1     -44.835  55.963 -56.870  1.00  0.00     0.164 HD
HETATM    6  H   UNL     1     -44.872  55.559 -54.629  1.00  0.00     0.192 HD
ENDROOT
BRANCH   1   7
HETATM    7  C   UNL     1     -43.581  57.313 -57.923  1.00  0.00     0.112 C 
HETATM    8  C   UNL     1     -43.850  58.841 -57.945  1.00  0.00     0.260 C 
HETATM    9  N   UNL     1     -43.329  59.446 -59.236  1.00  0.00    -0.065 N 
HETATM   10  H   UNL     1     -42.329  59.212 -59.280  1.00  0.00     0.280 HD
HETATM   11  C   UNL     1     -43.983  58.837 -60.445  1.00  0.00     0.235 C 
HETATM   12  C   UNL     1     -43.698  57.341 -60.459  1.00  0.00     0.030 C 
HETATM   13  C   UNL     1     -44.175  56.660 -59.179  1.00  0.00     0.028 C 
BRANCH   9  14
HETATM   14  C   UNL     1     -43.347  60.964 -59.231  1.00  0.00     0.273 C 
BRANCH  14  15
HETATM   15  C   UNL     1     -42.055  61.640 -59.604  1.00  0.00    -0.033 A 
HETATM   16  C   UNL     1     -41.095  61.933 -58.622  1.00  0.00     0.009 A 
HETATM   17  C   UNL     1     -39.904  62.573 -58.965  1.00  0.00     0.001 A 
HETATM   18  C   UNL     1     -39.655  62.923 -60.289  1.00  0.00     0.000 A 
HETATM   19  C   UNL     1     -40.593  62.629 -61.275  1.00  0.00     0.001 A 
HETATM   20  C   UNL     1     -41.787  61.989 -60.937  1.00  0.00     0.009 A 
ENDBRANCH  14  15
ENDBRANCH   9  14
ENDBRANCH   1   7
BRANCH   3  21
HETATM   21  N   UNL     1     -43.142  55.214 -53.597  1.00  0.00    -0.261 N 
HETATM   22  C   UNL     1     -42.331  54.092 -53.598  1.00  0.00     0.277 C 
HETATM   23  O   UNL     1     -42.277  53.372 -54.597  1.00  0.00    -0.265 OA
HETATM   24  H   UNL     1     -43.225  55.834 -52.795  1.00  0.00     0.190 HD
BRANCH  22  25
HETATM   25  C   UNL     1     -41.574  53.838 -52.383  1.00  0.00     0.075 A 
HETATM   26  S   UNL     1     -42.007  54.527 -50.871  1.00  0.00    -0.077 SA
HETATM   27  C   UNL     1     -40.715  53.764 -50.087  1.00  0.00     0.052 A 
HETATM   28 BR   UNL     1     -40.376  53.953 -48.255  1.00  0.00    -0.043 Br
HETATM   29  C   UNL     1     -39.946  52.998 -50.925  1.00  0.00     0.028 A 
HETATM   30  C   UNL     1     -40.449  53.039 -52.259  1.00  0.00     0.026 A 
ENDBRANCH  22  25
ENDBRANCH   3  21
TORSDOF 5
ENDMDL
MODEL 10
REMARK VINA RESULT:      -7.1      6.282      9.862
REMARK  5 active torsions:
REMARK  status: ('A' for Active; 'I' for Inactive)
REMARK    1  A    between atoms: C_4  and  C_5 
REMARK    2  A    between atoms: C_5  and  N_6 
REMARK    3  A    between atoms: C_9  and  N_10 
REMARK       I    between atoms: N_10  and  C_11 
REMARK       I    between atoms: C_11  and  N_12 
REMARK    4  A    between atoms: N_12  and  N_13 
REMARK       I    between atoms: N_13  and  C_14 
REMARK    5  A    between atoms: C_14  and  C_15 
ROOT
HETATM    1  N   UNL     1     -42.370  56.286 -57.472  1.00  0.00    -0.336 N 
HETATM    2  C   UNL     1     -42.017  56.255 -56.143  1.00  0.00     0.335 C 
HETATM    3  N   UNL     1     -41.391  55.085 -55.796  1.00  0.00    -0.249 N 
HETATM    4  O   UNL     1     -42.229  57.185 -55.373  1.00  0.00    -0.246 OA
HETATM    5  H   UNL     1     -41.774  55.700 -58.048  1.00  0.00     0.164 HD
HETATM    6  H   UNL     1     -41.563  54.229 -56.321  1.00  0.00     0.192 HD
ENDROOT
BRANCH   1   7
HETATM    7  C   UNL     1     -42.862  57.522 -58.073  1.00  0.00     0.112 C 
HETATM    8  C   UNL     1     -44.400  57.540 -58.274  1.00  0.00     0.260 C 
HETATM    9  N   UNL     1     -44.824  58.831 -58.950  1.00  0.00    -0.065 N 
HETATM   10  H   UNL     1     -44.488  59.594 -58.350  1.00  0.00     0.280 HD
HETATM   11  C   UNL     1     -44.172  59.001 -60.295  1.00  0.00     0.235 C 
HETATM   12  C   UNL     1     -42.661  59.022 -60.111  1.00  0.00     0.030 C 
HETATM   13  C   UNL     1     -42.156  57.762 -59.415  1.00  0.00     0.028 C 
BRANCH   9  14
HETATM   14  C   UNL     1     -46.330  59.024 -58.973  1.00  0.00     0.273 C 
BRANCH  14  15
HETATM   15  C   UNL     1     -47.059  58.393 -60.128  1.00  0.00    -0.033 A 
HETATM   16  C   UNL     1     -47.032  57.002 -60.314  1.00  0.00     0.009 A 
HETATM   17  C   UNL     1     -47.695  56.419 -61.394  1.00  0.00     0.001 A 
HETATM   18  C   UNL     1     -48.394  57.215 -62.297  1.00  0.00     0.000 A 
HETATM   19  C   UNL     1     -48.439  58.595 -62.119  1.00  0.00     0.001 A 
HETATM   20  C   UNL     1     -47.777  59.184 -61.040  1.00  0.00     0.009 A 
ENDBRANCH  14  15
ENDBRANCH   9  14
ENDBRANCH   1   7
BRANCH   3  21
HETATM   21  N   UNL     1     -41.085  54.879 -54.444  1.00  0.00    -0.261 N 
HETATM   22  C   UNL     1     -41.244  53.610 -53.911  1.00  0.00     0.277 C 
HETATM   23  O   UNL     1     -41.678  52.696 -54.615  1.00  0.00    -0.265 OA
HETATM   24  H   UNL     1     -40.738  55.666 -53.900  1.00  0.00     0.190 HD
BRANCH  22  25
HETATM   25  C   UNL     1     -40.872  53.443 -52.516  1.00  0.00     0.075 A 
HETATM   26  S   UNL     1     -41.303  54.582 -51.307  1.00  0.00    -0.077 SA
HETATM   27  C   UNL     1     -40.545  53.674 -50.096  1.00  0.00     0.052 A 
HETATM   28 BR   UNL     1     -40.511  54.195 -48.297  1.00  0.00    -0.043 Br
HETATM   29  C   UNL     1     -39.961  52.525 -50.564  1.00  0.00     0.028 A 
HETATM   30  C   UNL     1     -40.155  52.390 -51.971  1.00  0.00     0.026 A 
ENDBRANCH  22  25
ENDBRANCH   3  21
TORSDOF 5
ENDMDL
