MODEL 1
REMARK VINA RESULT:      -8.9      0.000      0.000
REMARK  5 active torsions:
REMARK  status: ('A' for Active; 'I' for Inactive)
REMARK    1  A    between atoms: C_7  and  C_8 
REMARK    2  A    between atoms: C_16  and  C_17 
REMARK    3  A    between atoms: C_20  and  O_21 
REMARK    4  A    between atoms: C_24  and  C_25 
REMARK       I    between atoms: C_25  and  N_26 
REMARK    5  A    between atoms: N_26  and  C_27 
ROOT
HETATM    1  C   UNL     1     -41.025  56.318 -49.899  1.00  0.00     0.070 C 
HETATM    2  C   UNL     1     -42.049  56.748 -50.926  1.00  0.00     0.037 A 
HETATM    3  N   UNL     1     -42.381  58.100 -50.890  1.00  0.00    -0.192 N 
HETATM    4  C   UNL     1     -43.353  58.646 -51.639  1.00  0.00     0.726 A 
HETATM    5  N   UNL     1     -44.001  57.871 -52.550  1.00  0.00    -0.083 N 
HETATM    6  N   UNL     1     -45.029  58.530 -53.121  1.00  0.00    -0.135 NA
HETATM    7  C   UNL     1     -44.884  59.757 -52.583  1.00  0.00     0.199 A 
HETATM    8  N   UNL     1     -43.864  59.849 -51.652  1.00  0.00    -0.041 NA
HETATM    9  C   UNL     1     -43.701  56.456 -52.787  1.00  0.00     0.202 A 
HETATM   10  C   UNL     1     -42.654  55.911 -51.814  1.00  0.00     0.062 A 
HETATM   11  H   UNL     1     -41.927  58.678 -50.189  1.00  0.00     0.184 HD
ENDROOT
BRANCH  10  12
HETATM   12  C   UNL     1     -42.274  54.454 -51.881  1.00  0.00     0.256 C 
HETATM   13  N   UNL     1     -41.075  54.174 -52.509  1.00  0.00    -0.323 N 
HETATM   14  H   UNL     1     -40.460  54.931 -52.760  1.00  0.00     0.169 HD
HETATM   15  O   UNL     1     -42.998  53.612 -51.360  1.00  0.00    -0.267 OA
BRANCH  13  16
HETATM   16  C   UNL     1     -40.545  52.894 -52.795  1.00  0.00     0.035 A 
HETATM   17  C   UNL     1     -39.837  52.115 -51.878  1.00  0.00     0.029 A 
HETATM   18  C   UNL     1     -39.375  50.844 -52.234  1.00  0.00     0.002 A 
HETATM   19  C   UNL     1     -39.613  50.341 -53.511  1.00  0.00     0.000 A 
HETATM   20  C   UNL     1     -40.316  51.109 -54.434  1.00  0.00     0.002 A 
HETATM   21  C   UNL     1     -40.785  52.376 -54.076  1.00  0.00     0.029 A 
ENDBRANCH  13  16
ENDBRANCH  10  12
BRANCH   9  22
HETATM   22  C   UNL     1     -43.350  56.257 -54.261  1.00  0.00    -0.028 A 
HETATM   23  C   UNL     1     -43.505  55.013 -54.899  1.00  0.00     0.012 A 
HETATM   24  C   UNL     1     -43.148  54.852 -56.240  1.00  0.00     0.037 A 
HETATM   25  C   UNL     1     -42.622  55.929 -56.944  1.00  0.00     0.065 A 
HETATM   26  C   UNL     1     -42.448  57.162 -56.333  1.00  0.00     0.037 A 
HETATM   27  C   UNL     1     -42.806  57.327 -54.994  1.00  0.00     0.012 A 
BRANCH  25  28
HETATM   28  O   UNL     1     -42.250  55.810 -58.251  1.00  0.00    -0.361 OA
HETATM   29  H   UNL     1     -42.381  54.890 -58.528  1.00  0.00     0.217 HD
ENDBRANCH  25  28
ENDBRANCH   9  22
BRANCH   7  30
HETATM   30  C   UNL     1     -45.729  60.897 -52.929  1.00  0.00     0.014 A 
HETATM   31  C   UNL     1     -46.913  61.156 -52.221  1.00  0.00     0.017 A 
HETATM   32  C   UNL     1     -47.723  62.245 -52.561  1.00  0.00     0.025 A 
HETATM   33  C   UNL     1     -47.352  63.082 -53.611  1.00  0.00     0.034 A 
HETATM   34 CL   UNL     1     -48.349  64.419 -54.030  1.00  0.00    -0.084 Cl
HETATM   35  C   UNL     1     -46.180  62.840 -54.323  1.00  0.00     0.025 A 
HETATM   36  C   UNL     1     -45.371  61.751 -53.983  1.00  0.00     0.017 A 
ENDBRANCH   7  30
TORSDOF 5
ENDMDL
MODEL 2
REMARK VINA RESULT:      -8.9      4.325      9.282
REMARK  5 active torsions:
REMARK  status: ('A' for Active; 'I' for Inactive)
REMARK    1  A    between atoms: C_7  and  C_8 
REMARK    2  A    between atoms: C_16  and  C_17 
REMARK    3  A    between atoms: C_20  and  O_21 
REMARK    4  A    between atoms: C_24  and  C_25 
REMARK       I    between atoms: C_25  and  N_26 
REMARK    5  A    between atoms: N_26  and  C_27 
ROOT
HETATM    1  C   UNL     1     -45.086  59.155 -54.834  1.00  0.00     0.070 C 
HETATM    2  C   UNL     1     -44.125  58.341 -53.998  1.00  0.00     0.037 A 
HETATM    3  N   UNL     1     -43.648  57.185 -54.610  1.00  0.00    -0.192 N 
HETATM    4  C   UNL     1     -42.882  56.275 -53.987  1.00  0.00     0.726 A 
HETATM    5  N   UNL     1     -42.469  56.519 -52.715  1.00  0.00    -0.083 N 
HETATM    6  N   UNL     1     -41.825  55.457 -52.190  1.00  0.00    -0.135 NA
HETATM    7  C   UNL     1     -41.786  54.625 -53.249  1.00  0.00     0.199 A 
HETATM    8  N   UNL     1     -42.448  55.102 -54.367  1.00  0.00    -0.041 NA
HETATM    9  C   UNL     1     -42.794  57.734 -51.962  1.00  0.00     0.202 A 
HETATM   10  C   UNL     1     -43.751  58.652 -52.725  1.00  0.00     0.062 A 
HETATM   11  H   UNL     1     -43.980  56.978 -55.548  1.00  0.00     0.184 HD
ENDROOT
BRANCH  10  12
HETATM   12  C   UNL     1     -44.236  59.919 -52.067  1.00  0.00     0.256 C 
HETATM   13  N   UNL     1     -43.457  61.041 -52.277  1.00  0.00    -0.323 N 
HETATM   14  H   UNL     1     -42.706  61.003 -52.946  1.00  0.00     0.169 HD
HETATM   15  O   UNL     1     -45.286  59.911 -51.431  1.00  0.00    -0.267 OA
BRANCH  13  16
HETATM   16  C   UNL     1     -43.631  62.317 -51.692  1.00  0.00     0.035 A 
HETATM   17  C   UNL     1     -44.517  63.284 -52.169  1.00  0.00     0.029 A 
HETATM   18  C   UNL     1     -44.653  64.510 -51.509  1.00  0.00     0.002 A 
HETATM   19  C   UNL     1     -43.899  64.782 -50.369  1.00  0.00     0.000 A 
HETATM   20  C   UNL     1     -43.012  63.826 -49.886  1.00  0.00     0.002 A 
HETATM   21  C   UNL     1     -42.883  62.598 -50.540  1.00  0.00     0.029 A 
ENDBRANCH  13  16
ENDBRANCH  10  12
BRANCH   9  22
HETATM   22  C   UNL     1     -41.500  58.411 -51.516  1.00  0.00    -0.028 A 
HETATM   23  C   UNL     1     -40.404  58.561 -52.384  1.00  0.00     0.012 A 
HETATM   24  C   UNL     1     -39.220  59.157 -51.941  1.00  0.00     0.037 A 
HETATM   25  C   UNL     1     -39.123  59.593 -50.624  1.00  0.00     0.065 A 
HETATM   26  C   UNL     1     -40.187  59.444 -49.745  1.00  0.00     0.037 A 
HETATM   27  C   UNL     1     -41.370  58.851 -50.186  1.00  0.00     0.012 A 
BRANCH  25  28
HETATM   28  O   UNL     1     -37.983  60.170 -50.148  1.00  0.00    -0.361 OA
HETATM   29  H   UNL     1     -38.167  60.543 -49.271  1.00  0.00     0.217 HD
ENDBRANCH  25  28
ENDBRANCH   9  22
BRANCH   7  30
HETATM   30  C   UNL     1     -41.123  53.324 -53.233  1.00  0.00     0.014 A 
HETATM   31  C   UNL     1     -40.383  52.907 -52.114  1.00  0.00     0.017 A 
HETATM   32  C   UNL     1     -39.743  51.662 -52.107  1.00  0.00     0.025 A 
HETATM   33  C   UNL     1     -39.840  50.828 -53.218  1.00  0.00     0.034 A 
HETATM   34 CL   UNL     1     -39.051  49.300 -53.210  1.00  0.00    -0.084 Cl
HETATM   35  C   UNL     1     -40.570  51.226 -54.335  1.00  0.00     0.025 A 
HETATM   36  C   UNL     1     -41.208  52.470 -54.343  1.00  0.00     0.017 A 
ENDBRANCH   7  30
TORSDOF 5
ENDMDL
MODEL 3
REMARK VINA RESULT:      -8.8      4.129      9.301
REMARK  5 active torsions:
REMARK  status: ('A' for Active; 'I' for Inactive)
REMARK    1  A    between atoms: C_7  and  C_8 
REMARK    2  A    between atoms: C_16  and  C_17 
REMARK    3  A    between atoms: C_20  and  O_21 
REMARK    4  A    between atoms: C_24  and  C_25 
REMARK       I    between atoms: C_25  and  N_26 
REMARK    5  A    between atoms: N_26  and  C_27 
ROOT
HETATM    1  C   UNL     1     -44.547  59.074 -55.728  1.00  0.00     0.070 C 
HETATM    2  C   UNL     1     -43.727  58.281 -54.736  1.00  0.00     0.037 A 
HETATM    3  N   UNL     1     -43.192  57.095 -55.233  1.00  0.00    -0.192 N 
HETATM    4  C   UNL     1     -42.539  56.199 -54.477  1.00  0.00     0.726 A 
HETATM    5  N   UNL     1     -42.300  56.488 -53.169  1.00  0.00    -0.083 N 
HETATM    6  N   UNL     1     -41.757  55.438 -52.520  1.00  0.00    -0.135 NA
HETATM    7  C   UNL     1     -41.587  54.565 -53.532  1.00  0.00     0.199 A 
HETATM    8  N   UNL     1     -42.079  55.007 -54.749  1.00  0.00    -0.041 NA
HETATM    9  C   UNL     1     -42.703  57.736 -52.515  1.00  0.00     0.202 A 
HETATM   10  C   UNL     1     -43.527  58.637 -53.437  1.00  0.00     0.062 A 
HETATM   11  H   UNL     1     -43.396  56.856 -56.200  1.00  0.00     0.184 HD
ENDROOT
BRANCH  10  12
HETATM   12  C   UNL     1     -44.073  59.935 -52.901  1.00  0.00     0.256 C 
HETATM   13  N   UNL     1     -45.280  59.849 -52.232  1.00  0.00    -0.323 N 
HETATM   14  H   UNL     1     -45.661  58.943 -52.015  1.00  0.00     0.169 HD
HETATM   15  O   UNL     1     -43.429  60.970 -53.039  1.00  0.00    -0.267 OA
BRANCH  13  16
HETATM   16  C   UNL     1     -46.051  60.923 -51.730  1.00  0.00     0.035 A 
HETATM   17  C   UNL     1     -45.914  61.455 -50.447  1.00  0.00     0.029 A 
HETATM   18  C   UNL     1     -46.695  62.542 -50.041  1.00  0.00     0.002 A 
HETATM   19  C   UNL     1     -47.624  63.104 -50.912  1.00  0.00     0.000 A 
HETATM   20  C   UNL     1     -47.771  62.582 -52.194  1.00  0.00     0.002 A 
HETATM   21  C   UNL     1     -46.985  61.502 -52.602  1.00  0.00     0.029 A 
ENDBRANCH  13  16
ENDBRANCH  10  12
BRANCH   9  22
HETATM   22  C   UNL     1     -41.469  58.411 -51.918  1.00  0.00    -0.028 A 
HETATM   23  C   UNL     1     -40.298  58.613 -52.670  1.00  0.00     0.012 A 
HETATM   24  C   UNL     1     -39.173  59.206 -52.090  1.00  0.00     0.037 A 
HETATM   25  C   UNL     1     -39.211  59.588 -50.754  1.00  0.00     0.065 A 
HETATM   26  C   UNL     1     -40.352  59.389 -49.989  1.00  0.00     0.037 A 
HETATM   27  C   UNL     1     -41.477  58.798 -50.566  1.00  0.00     0.012 A 
BRANCH  25  28
HETATM   28  O   UNL     1     -38.132  60.160 -50.147  1.00  0.00    -0.361 OA
HETATM   29  H   UNL     1     -37.372  59.564 -50.239  1.00  0.00     0.217 HD
ENDBRANCH  25  28
ENDBRANCH   9  22
BRANCH   7  30
HETATM   30  C   UNL     1     -40.959  53.256 -53.375  1.00  0.00     0.014 A 
HETATM   31  C   UNL     1     -40.956  52.327 -54.429  1.00  0.00     0.017 A 
HETATM   32  C   UNL     1     -40.359  51.072 -54.271  1.00  0.00     0.025 A 
HETATM   33  C   UNL     1     -39.761  50.738 -53.058  1.00  0.00     0.034 A 
HETATM   34 CL   UNL     1     -39.030  49.193 -52.863  1.00  0.00    -0.084 Cl
HETATM   35  C   UNL     1     -39.754  51.647 -52.003  1.00  0.00     0.025 A 
HETATM   36  C   UNL     1     -40.351  52.902 -52.161  1.00  0.00     0.017 A 
ENDBRANCH   7  30
TORSDOF 5
ENDMDL
MODEL 4
REMARK VINA RESULT:      -8.7      4.030      6.040
REMARK  5 active torsions:
REMARK  status: ('A' for Active; 'I' for Inactive)
REMARK    1  A    between atoms: C_7  and  C_8 
REMARK    2  A    between atoms: C_16  and  C_17 
REMARK    3  A    between atoms: C_20  and  O_21 
REMARK    4  A    between atoms: C_24  and  C_25 
REMARK       I    between atoms: C_25  and  N_26 
REMARK    5  A    between atoms: N_26  and  C_27 
ROOT
HETATM    1  C   UNL     1     -43.235  54.283 -55.241  1.00  0.00     0.070 C 
HETATM    2  C   UNL     1     -42.907  55.754 -55.348  1.00  0.00     0.037 A 
HETATM    3  N   UNL     1     -42.937  56.269 -56.642  1.00  0.00    -0.192 N 
HETATM    4  C   UNL     1     -42.561  57.520 -56.954  1.00  0.00     0.726 A 
HETATM    5  N   UNL     1     -42.210  58.373 -55.954  1.00  0.00    -0.083 N 
HETATM    6  N   UNL     1     -41.735  59.537 -56.440  1.00  0.00    -0.135 NA
HETATM    7  C   UNL     1     -41.927  59.367 -57.763  1.00  0.00     0.199 A 
HETATM    8  N   UNL     1     -42.422  58.120 -58.106  1.00  0.00    -0.041 NA
HETATM    9  C   UNL     1     -42.225  58.023 -54.531  1.00  0.00     0.202 A 
HETATM   10  C   UNL     1     -42.568  56.551 -54.296  1.00  0.00     0.062 A 
HETATM   11  H   UNL     1     -43.164  55.629 -57.398  1.00  0.00     0.184 HD
ENDROOT
BRANCH  10  12
HETATM   12  C   UNL     1     -42.566  56.010 -52.890  1.00  0.00     0.256 C 
HETATM   13  N   UNL     1     -41.338  55.600 -52.405  1.00  0.00    -0.323 N 
HETATM   14  H   UNL     1     -40.506  55.800 -52.934  1.00  0.00     0.169 HD
HETATM   15  O   UNL     1     -43.609  55.994 -52.243  1.00  0.00    -0.267 OA
BRANCH  13  16
HETATM   16  C   UNL     1     -41.084  54.964 -51.167  1.00  0.00     0.035 A 
HETATM   17  C   UNL     1     -41.225  55.582 -49.924  1.00  0.00     0.029 A 
HETATM   18  C   UNL     1     -40.984  54.869 -48.745  1.00  0.00     0.002 A 
HETATM   19  C   UNL     1     -40.595  53.533 -48.798  1.00  0.00     0.000 A 
HETATM   20  C   UNL     1     -40.450  52.906 -50.032  1.00  0.00     0.002 A 
HETATM   21  C   UNL     1     -40.698  53.616 -51.209  1.00  0.00     0.029 A 
ENDBRANCH  13  16
ENDBRANCH  10  12
BRANCH   9  22
HETATM   22  C   UNL     1     -43.126  59.003 -53.782  1.00  0.00    -0.028 A 
HETATM   23  C   UNL     1     -42.626  59.850 -52.776  1.00  0.00     0.012 A 
HETATM   24  C   UNL     1     -43.479  60.716 -52.086  1.00  0.00     0.037 A 
HETATM   25  C   UNL     1     -44.835  60.729 -52.389  1.00  0.00     0.065 A 
HETATM   26  C   UNL     1     -45.354  59.894 -53.369  1.00  0.00     0.037 A 
HETATM   27  C   UNL     1     -44.504  59.030 -54.061  1.00  0.00     0.012 A 
BRANCH  25  28
HETATM   28  O   UNL     1     -45.703  61.550 -51.732  1.00  0.00    -0.361 OA
HETATM   29  H   UNL     1     -46.428  61.013 -51.375  1.00  0.00     0.217 HD
ENDBRANCH  25  28
ENDBRANCH   9  22
BRANCH   7  30
HETATM   30  C   UNL     1     -41.630  60.389 -58.762  1.00  0.00     0.014 A 
HETATM   31  C   UNL     1     -42.032  60.229 -60.098  1.00  0.00     0.017 A 
HETATM   32  C   UNL     1     -41.738  61.208 -61.053  1.00  0.00     0.025 A 
HETATM   33  C   UNL     1     -41.040  62.353 -60.678  1.00  0.00     0.034 A 
HETATM   34 CL   UNL     1     -40.676  63.555 -61.853  1.00  0.00    -0.084 Cl
HETATM   35  C   UNL     1     -40.634  62.528 -59.357  1.00  0.00     0.025 A 
HETATM   36  C   UNL     1     -40.927  61.549 -58.403  1.00  0.00     0.017 A 
ENDBRANCH   7  30
TORSDOF 5
ENDMDL
MODEL 5
REMARK VINA RESULT:      -8.7      3.951      9.348
REMARK  5 active torsions:
REMARK  status: ('A' for Active; 'I' for Inactive)
REMARK    1  A    between atoms: C_7  and  C_8 
REMARK    2  A    between atoms: C_16  and  C_17 
REMARK    3  A    between atoms: C_20  and  O_21 
REMARK    4  A    between atoms: C_24  and  C_25 
REMARK       I    between atoms: C_25  and  N_26 
REMARK    5  A    between atoms: N_26  and  C_27 
ROOT
HETATM    1  C   UNL     1     -43.139  57.766 -58.337  1.00  0.00     0.070 C 
HETATM    2  C   UNL     1     -43.093  57.162 -56.952  1.00  0.00     0.037 A 
HETATM    3  N   UNL     1     -42.068  56.243 -56.746  1.00  0.00    -0.192 N 
HETATM    4  C   UNL     1     -41.935  55.515 -55.625  1.00  0.00     0.726 A 
HETATM    5  N   UNL     1     -42.788  55.735 -54.590  1.00  0.00    -0.083 N 
HETATM    6  N   UNL     1     -42.608  54.839 -53.599  1.00  0.00    -0.135 NA
HETATM    7  C   UNL     1     -41.539  54.157 -54.055  1.00  0.00     0.199 A 
HETATM    8  N   UNL     1     -41.115  54.546 -55.314  1.00  0.00    -0.041 NA
HETATM    9  C   UNL     1     -43.857  56.738 -54.603  1.00  0.00     0.202 A 
HETATM   10  C   UNL     1     -43.985  57.436 -55.958  1.00  0.00     0.062 A 
HETATM   11  H   UNL     1     -41.447  56.048 -57.527  1.00  0.00     0.184 HD
ENDROOT
BRANCH  10  12
HETATM   12  C   UNL     1     -45.077  58.454 -56.162  1.00  0.00     0.256 C 
HETATM   13  N   UNL     1     -44.715  59.773 -55.955  1.00  0.00    -0.323 N 
HETATM   14  H   UNL     1     -43.745  60.004 -55.821  1.00  0.00     0.169 HD
HETATM   15  O   UNL     1     -46.189  58.089 -56.528  1.00  0.00    -0.267 OA
BRANCH  13  16
HETATM   16  C   UNL     1     -45.569  60.900 -55.977  1.00  0.00     0.035 A 
HETATM   17  C   UNL     1     -46.021  61.518 -57.144  1.00  0.00     0.029 A 
HETATM   18  C   UNL     1     -46.892  62.611 -57.077  1.00  0.00     0.002 A 
HETATM   19  C   UNL     1     -47.314  63.099 -55.842  1.00  0.00     0.000 A 
HETATM   20  C   UNL     1     -46.868  62.492 -54.672  1.00  0.00     0.002 A 
HETATM   21  C   UNL     1     -46.005  61.395 -54.740  1.00  0.00     0.029 A 
ENDBRANCH  13  16
ENDBRANCH  10  12
BRANCH   9  22
HETATM   22  C   UNL     1     -43.668  57.690 -53.423  1.00  0.00    -0.028 A 
HETATM   23  C   UNL     1     -42.532  58.512 -53.309  1.00  0.00     0.012 A 
HETATM   24  C   UNL     1     -42.369  59.352 -52.204  1.00  0.00     0.037 A 
HETATM   25  C   UNL     1     -43.334  59.364 -51.204  1.00  0.00     0.065 A 
HETATM   26  C   UNL     1     -44.458  58.554 -51.289  1.00  0.00     0.037 A 
HETATM   27  C   UNL     1     -44.624  57.716 -52.392  1.00  0.00     0.012 A 
BRANCH  25  28
HETATM   28  O   UNL     1     -43.209  60.161 -50.104  1.00  0.00    -0.361 OA
HETATM   29  H   UNL     1     -42.616  60.898 -50.322  1.00  0.00     0.217 HD
ENDBRANCH  25  28
ENDBRANCH   9  22
BRANCH   7  30
HETATM   30  C   UNL     1     -40.882  53.086 -53.309  1.00  0.00     0.014 A 
HETATM   31  C   UNL     1     -40.391  51.947 -53.966  1.00  0.00     0.017 A 
HETATM   32  C   UNL     1     -39.770  50.921 -53.246  1.00  0.00     0.025 A 
HETATM   33  C   UNL     1     -39.637  51.029 -51.863  1.00  0.00     0.034 A 
HETATM   34 CL   UNL     1     -38.876  49.766 -50.977  1.00  0.00    -0.084 Cl
HETATM   35  C   UNL     1     -40.118  52.153 -51.196  1.00  0.00     0.025 A 
HETATM   36  C   UNL     1     -40.739  53.178 -51.916  1.00  0.00     0.017 A 
ENDBRANCH   7  30
TORSDOF 5
ENDMDL
MODEL 6
REMARK VINA RESULT:      -8.6      2.250      3.389
REMARK  5 active torsions:
REMARK  status: ('A' for Active; 'I' for Inactive)
REMARK    1  A    between atoms: C_7  and  C_8 
REMARK    2  A    between atoms: C_16  and  C_17 
REMARK    3  A    between atoms: C_20  and  O_21 
REMARK    4  A    between atoms: C_24  and  C_25 
REMARK       I    between atoms: C_25  and  N_26 
REMARK    5  A    between atoms: N_26  and  C_27 
ROOT
HETATM    1  C   UNL     1     -44.240  54.461 -50.262  1.00  0.00     0.070 C 
HETATM    2  C   UNL     1     -43.947  55.776 -50.947  1.00  0.00     0.037 A 
HETATM    3  N   UNL     1     -44.971  56.716 -50.875  1.00  0.00    -0.192 N 
HETATM    4  C   UNL     1     -44.948  57.893 -51.520  1.00  0.00     0.726 A 
HETATM    5  N   UNL     1     -43.834  58.242 -52.218  1.00  0.00    -0.083 N 
HETATM    6  N   UNL     1     -44.019  59.383 -52.911  1.00  0.00    -0.135 NA
HETATM    7  C   UNL     1     -45.251  59.742 -52.499  1.00  0.00     0.199 A 
HETATM    8  N   UNL     1     -45.852  58.827 -51.651  1.00  0.00    -0.041 NA
HETATM    9  C   UNL     1     -42.627  57.414 -52.310  1.00  0.00     0.202 A 
HETATM   10  C   UNL     1     -42.800  56.056 -51.627  1.00  0.00     0.062 A 
HETATM   11  H   UNL     1     -45.821  56.449 -50.385  1.00  0.00     0.184 HD
ENDROOT
BRANCH  10  12
HETATM   12  C   UNL     1     -41.672  55.057 -51.681  1.00  0.00     0.256 C 
HETATM   13  N   UNL     1     -41.766  54.098 -52.672  1.00  0.00    -0.323 N 
HETATM   14  H   UNL     1     -42.479  54.185 -53.378  1.00  0.00     0.169 HD
HETATM   15  O   UNL     1     -40.733  55.157 -50.898  1.00  0.00    -0.267 OA
BRANCH  13  16
HETATM   16  C   UNL     1     -40.904  52.994 -52.871  1.00  0.00     0.035 A 
HETATM   17  C   UNL     1     -40.115  52.426 -51.869  1.00  0.00     0.029 A 
HETATM   18  C   UNL     1     -39.314  51.312 -52.143  1.00  0.00     0.002 A 
HETATM   19  C   UNL     1     -39.291  50.760 -53.422  1.00  0.00     0.000 A 
HETATM   20  C   UNL     1     -40.072  51.319 -54.428  1.00  0.00     0.002 A 
HETATM   21  C   UNL     1     -40.879  52.427 -54.153  1.00  0.00     0.029 A 
ENDBRANCH  13  16
ENDBRANCH  10  12
BRANCH   9  22
HETATM   22  C   UNL     1     -41.427  58.218 -51.811  1.00  0.00    -0.028 A 
HETATM   23  C   UNL     1     -40.298  58.442 -52.619  1.00  0.00     0.012 A 
HETATM   24  C   UNL     1     -39.202  59.156 -52.127  1.00  0.00     0.037 A 
HETATM   25  C   UNL     1     -39.225  59.636 -50.822  1.00  0.00     0.065 A 
HETATM   26  C   UNL     1     -40.323  59.416 -50.002  1.00  0.00     0.037 A 
HETATM   27  C   UNL     1     -41.419  58.706 -50.492  1.00  0.00     0.012 A 
BRANCH  25  28
HETATM   28  O   UNL     1     -38.171  60.327 -50.300  1.00  0.00    -0.361 OA
HETATM   29  H   UNL     1     -37.889  60.995 -50.945  1.00  0.00     0.217 HD
ENDBRANCH  25  28
ENDBRANCH   9  22
BRANCH   7  30
HETATM   30  C   UNL     1     -45.917  60.974 -52.914  1.00  0.00     0.014 A 
HETATM   31  C   UNL     1     -47.146  61.353 -52.350  1.00  0.00     0.017 A 
HETATM   32  C   UNL     1     -47.783  62.530 -52.756  1.00  0.00     0.025 A 
HETATM   33  C   UNL     1     -47.194  63.336 -53.728  1.00  0.00     0.034 A 
HETATM   34 CL   UNL     1     -47.979  64.782 -54.229  1.00  0.00    -0.084 Cl
HETATM   35  C   UNL     1     -45.975  62.975 -54.296  1.00  0.00     0.025 A 
HETATM   36  C   UNL     1     -45.339  61.798 -53.891  1.00  0.00     0.017 A 
ENDBRANCH   7  30
TORSDOF 5
ENDMDL
MODEL 7
REMARK VINA RESULT:      -8.4      4.652      8.591
REMARK  5 active torsions:
REMARK  status: ('A' for Active; 'I' for Inactive)
REMARK    1  A    between atoms: C_7  and  C_8 
REMARK    2  A    between atoms: C_16  and  C_17 
REMARK    3  A    between atoms: C_20  and  O_21 
REMARK    4  A    between atoms: C_24  and  C_25 
REMARK       I    between atoms: C_25  and  N_26 
REMARK    5  A    between atoms: N_26  and  C_27 
ROOT
HETATM    1  C   UNL     1     -42.854  55.635 -59.305  1.00  0.00     0.070 C 
HETATM    2  C   UNL     1     -43.006  56.084 -57.870  1.00  0.00     0.037 A 
HETATM    3  N   UNL     1     -42.160  55.448 -56.964  1.00  0.00    -0.192 N 
HETATM    4  C   UNL     1     -42.227  55.624 -55.635  1.00  0.00     0.726 A 
HETATM    5  N   UNL     1     -43.105  56.533 -55.132  1.00  0.00    -0.083 N 
HETATM    6  N   UNL     1     -43.143  56.493 -53.785  1.00  0.00    -0.135 NA
HETATM    7  C   UNL     1     -42.170  55.599 -53.522  1.00  0.00     0.199 A 
HETATM    8  N   UNL     1     -41.600  55.036 -54.651  1.00  0.00    -0.041 NA
HETATM    9  C   UNL     1     -43.994  57.361 -55.953  1.00  0.00     0.202 A 
HETATM   10  C   UNL     1     -43.910  57.008 -57.439  1.00  0.00     0.062 A 
HETATM   11  H   UNL     1     -41.526  54.742 -57.328  1.00  0.00     0.184 HD
ENDROOT
BRANCH  10  12
HETATM   12  C   UNL     1     -44.805  57.725 -58.417  1.00  0.00     0.256 C 
HETATM   13  N   UNL     1     -45.854  56.983 -58.926  1.00  0.00    -0.323 N 
HETATM   14  H   UNL     1     -46.055  56.078 -58.535  1.00  0.00     0.169 HD
HETATM   15  O   UNL     1     -44.596  58.905 -58.680  1.00  0.00    -0.267 OA
BRANCH  13  16
HETATM   16  C   UNL     1     -46.768  57.382 -59.929  1.00  0.00     0.035 A 
HETATM   17  C   UNL     1     -47.211  58.694 -60.110  1.00  0.00     0.029 A 
HETATM   18  C   UNL     1     -48.091  59.009 -61.151  1.00  0.00     0.002 A 
HETATM   19  C   UNL     1     -48.541  58.015 -62.017  1.00  0.00     0.000 A 
HETATM   20  C   UNL     1     -48.106  56.704 -61.846  1.00  0.00     0.002 A 
HETATM   21  C   UNL     1     -47.220  56.391 -60.812  1.00  0.00     0.029 A 
ENDBRANCH  13  16
ENDBRANCH  10  12
BRANCH   9  22
HETATM   22  C   UNL     1     -43.736  58.834 -55.643  1.00  0.00    -0.028 A 
HETATM   23  C   UNL     1     -44.745  59.674 -55.139  1.00  0.00     0.012 A 
HETATM   24  C   UNL     1     -44.490  61.025 -54.892  1.00  0.00     0.037 A 
HETATM   25  C   UNL     1     -43.229  61.545 -55.161  1.00  0.00     0.065 A 
HETATM   26  C   UNL     1     -42.220  60.739 -55.670  1.00  0.00     0.037 A 
HETATM   27  C   UNL     1     -42.472  59.389 -55.915  1.00  0.00     0.012 A 
BRANCH  25  28
HETATM   28  O   UNL     1     -42.942  62.861 -54.945  1.00  0.00    -0.361 OA
HETATM   29  H   UNL     1     -42.333  63.163 -55.638  1.00  0.00     0.217 HD
ENDBRANCH  25  28
ENDBRANCH   9  22
BRANCH   7  30
HETATM   30  C   UNL     1     -41.750  55.232 -52.172  1.00  0.00     0.014 A 
HETATM   31  C   UNL     1     -41.919  56.122 -51.099  1.00  0.00     0.017 A 
HETATM   32  C   UNL     1     -41.508  55.768 -49.809  1.00  0.00     0.025 A 
HETATM   33  C   UNL     1     -40.927  54.522 -49.585  1.00  0.00     0.034 A 
HETATM   34 CL   UNL     1     -40.420  54.089 -47.999  1.00  0.00    -0.084 Cl
HETATM   35  C   UNL     1     -40.753  53.628 -50.638  1.00  0.00     0.025 A 
HETATM   36  C   UNL     1     -41.163  53.982 -51.927  1.00  0.00     0.017 A 
ENDBRANCH   7  30
TORSDOF 5
ENDMDL
MODEL 8
REMARK VINA RESULT:      -8.4      4.690      8.972
REMARK  5 active torsions:
REMARK  status: ('A' for Active; 'I' for Inactive)
REMARK    1  A    between atoms: C_7  and  C_8 
REMARK    2  A    between atoms: C_16  and  C_17 
REMARK    3  A    between atoms: C_20  and  O_21 
REMARK    4  A    between atoms: C_24  and  C_25 
REMARK       I    between atoms: C_25  and  N_26 
REMARK    5  A    between atoms: N_26  and  C_27 
ROOT
HETATM    1  C   UNL     1     -44.207  60.816 -54.349  1.00  0.00     0.070 C 
HETATM    2  C   UNL     1     -43.468  59.593 -54.843  1.00  0.00     0.037 A 
HETATM    3  N   UNL     1     -43.427  58.531 -53.944  1.00  0.00    -0.192 N 
HETATM    4  C   UNL     1     -42.719  57.408 -54.151  1.00  0.00     0.726 A 
HETATM    5  N   UNL     1     -42.070  57.245 -55.335  1.00  0.00    -0.083 N 
HETATM    6  N   UNL     1     -41.304  56.136 -55.332  1.00  0.00    -0.135 NA
HETATM    7  C   UNL     1     -41.621  55.602 -54.136  1.00  0.00     0.199 A 
HETATM    8  N   UNL     1     -42.482  56.379 -53.381  1.00  0.00    -0.041 NA
HETATM    9  C   UNL     1     -42.097  58.220 -56.429  1.00  0.00     0.202 A 
HETATM   10  C   UNL     1     -42.843  59.501 -56.050  1.00  0.00     0.062 A 
HETATM   11  H   UNL     1     -43.879  58.658 -53.043  1.00  0.00     0.184 HD
ENDROOT
BRANCH  10  12
HETATM   12  C   UNL     1     -42.912  60.633 -57.042  1.00  0.00     0.256 C 
HETATM   13  N   UNL     1     -41.716  61.271 -57.310  1.00  0.00    -0.323 N 
HETATM   14  H   UNL     1     -40.857  60.882 -56.956  1.00  0.00     0.169 HD
HETATM   15  O   UNL     1     -43.980  60.905 -57.581  1.00  0.00    -0.267 OA
BRANCH  13  16
HETATM   16  C   UNL     1     -41.527  62.419 -58.114  1.00  0.00     0.035 A 
HETATM   17  C   UNL     1     -42.000  63.692 -57.789  1.00  0.00     0.029 A 
HETATM   18  C   UNL     1     -41.740  64.782 -58.626  1.00  0.00     0.002 A 
HETATM   19  C   UNL     1     -41.009  64.609 -59.799  1.00  0.00     0.000 A 
HETATM   20  C   UNL     1     -40.533  63.345 -60.134  1.00  0.00     0.002 A 
HETATM   21  C   UNL     1     -40.786  62.258 -59.294  1.00  0.00     0.029 A 
ENDBRANCH  13  16
ENDBRANCH  10  12
BRANCH   9  22
HETATM   22  C   UNL     1     -42.620  57.542 -57.694  1.00  0.00    -0.028 A 
HETATM   23  C   UNL     1     -41.895  57.557 -58.898  1.00  0.00     0.012 A 
HETATM   24  C   UNL     1     -42.410  56.954 -60.049  1.00  0.00     0.037 A 
HETATM   25  C   UNL     1     -43.659  56.345 -60.002  1.00  0.00     0.065 A 
HETATM   26  C   UNL     1     -44.400  56.327 -58.829  1.00  0.00     0.037 A 
HETATM   27  C   UNL     1     -43.886  56.927 -57.678  1.00  0.00     0.012 A 
BRANCH  25  28
HETATM   28  O   UNL     1     -44.204  55.755 -61.105  1.00  0.00    -0.361 OA
HETATM   29  H   UNL     1     -43.785  56.130 -61.896  1.00  0.00     0.217 HD
ENDBRANCH  25  28
ENDBRANCH   9  22
BRANCH   7  30
HETATM   30  C   UNL     1     -41.100  54.325 -53.656  1.00  0.00     0.014 A 
HETATM   31  C   UNL     1     -40.669  53.338 -54.557  1.00  0.00     0.017 A 
HETATM   32  C   UNL     1     -40.177  52.114 -54.092  1.00  0.00     0.025 A 
HETATM   33  C   UNL     1     -40.114  51.869 -52.722  1.00  0.00     0.034 A 
HETATM   34 CL   UNL     1     -39.513  50.363 -52.150  1.00  0.00    -0.084 Cl
HETATM   35  C   UNL     1     -40.537  52.838 -51.814  1.00  0.00     0.025 A 
HETATM   36  C   UNL     1     -41.029  54.061 -52.280  1.00  0.00     0.017 A 
ENDBRANCH   7  30
TORSDOF 5
ENDMDL
MODEL 9
REMARK VINA RESULT:      -8.1      2.776      3.381
REMARK  5 active torsions:
REMARK  status: ('A' for Active; 'I' for Inactive)
REMARK    1  A    between atoms: C_7  and  C_8 
REMARK    2  A    between atoms: C_16  and  C_17 
REMARK    3  A    between atoms: C_20  and  O_21 
REMARK    4  A    between atoms: C_24  and  C_25 
REMARK       I    between atoms: C_25  and  N_26 
REMARK    5  A    between atoms: N_26  and  C_27 
ROOT
HETATM    1  C   UNL     1     -39.309  58.632 -51.290  1.00  0.00     0.070 C 
HETATM    2  C   UNL     1     -40.806  58.824 -51.369  1.00  0.00     0.037 A 
HETATM    3  N   UNL     1     -41.287  59.957 -50.717  1.00  0.00    -0.192 N 
HETATM    4  C   UNL     1     -42.593  60.235 -50.573  1.00  0.00     0.726 A 
HETATM    5  N   UNL     1     -43.510  59.423 -51.165  1.00  0.00    -0.083 N 
HETATM    6  N   UNL     1     -44.768  59.760 -50.817  1.00  0.00    -0.135 NA
HETATM    7  C   UNL     1     -44.549  60.870 -50.086  1.00  0.00     0.199 A 
HETATM    8  N   UNL     1     -43.210  61.175 -49.908  1.00  0.00    -0.041 NA
HETATM    9  C   UNL     1     -43.169  58.249 -51.974  1.00  0.00     0.202 A 
HETATM   10  C   UNL     1     -41.666  57.966 -51.986  1.00  0.00     0.062 A 
HETATM   11  H   UNL     1     -40.611  60.550 -50.243  1.00  0.00     0.184 HD
ENDROOT
BRANCH  10  12
HETATM   12  C   UNL     1     -41.150  56.757 -52.723  1.00  0.00     0.256 C 
HETATM   13  N   UNL     1     -41.382  55.538 -52.114  1.00  0.00    -0.323 N 
HETATM   14  H   UNL     1     -41.984  55.495 -51.308  1.00  0.00     0.169 HD
HETATM   15  O   UNL     1     -40.603  56.896 -53.812  1.00  0.00    -0.267 OA
BRANCH  13  16
HETATM   16  C   UNL     1     -40.915  54.273 -52.540  1.00  0.00     0.035 A 
HETATM   17  C   UNL     1     -41.050  53.784 -53.841  1.00  0.00     0.029 A 
HETATM   18  C   UNL     1     -40.527  52.534 -54.187  1.00  0.00     0.002 A 
HETATM   19  C   UNL     1     -39.869  51.758 -53.235  1.00  0.00     0.000 A 
HETATM   20  C   UNL     1     -39.730  52.235 -51.935  1.00  0.00     0.002 A 
HETATM   21  C   UNL     1     -40.244  53.488 -51.592  1.00  0.00     0.029 A 
ENDBRANCH  13  16
ENDBRANCH  10  12
BRANCH   9  22
HETATM   22  C   UNL     1     -43.790  58.398 -53.362  1.00  0.00    -0.028 A 
HETATM   23  C   UNL     1     -44.683  57.444 -53.882  1.00  0.00     0.012 A 
HETATM   24  C   UNL     1     -45.213  57.590 -55.166  1.00  0.00     0.037 A 
HETATM   25  C   UNL     1     -44.842  58.683 -55.941  1.00  0.00     0.065 A 
HETATM   26  C   UNL     1     -43.953  59.632 -55.455  1.00  0.00     0.037 A 
HETATM   27  C   UNL     1     -43.424  59.489 -54.171  1.00  0.00     0.012 A 
BRANCH  25  28
HETATM   28  O   UNL     1     -45.327  58.857 -57.203  1.00  0.00    -0.361 OA
HETATM   29  H   UNL     1     -46.098  59.445 -57.161  1.00  0.00     0.217 HD
ENDBRANCH  25  28
ENDBRANCH   9  22
BRANCH   7  30
HETATM   30  C   UNL     1     -45.617  61.685 -49.511  1.00  0.00     0.014 A 
HETATM   31  C   UNL     1     -46.404  62.518 -50.322  1.00  0.00     0.017 A 
HETATM   32  C   UNL     1     -47.420  63.302 -49.765  1.00  0.00     0.025 A 
HETATM   33  C   UNL     1     -47.654  63.257 -48.393  1.00  0.00     0.034 A 
HETATM   34 CL   UNL     1     -48.902  64.223 -47.708  1.00  0.00    -0.084 Cl
HETATM   35  C   UNL     1     -46.883  62.435 -47.574  1.00  0.00     0.025 A 
HETATM   36  C   UNL     1     -45.868  61.653 -48.131  1.00  0.00     0.017 A 
ENDBRANCH   7  30
TORSDOF 5
ENDMDL
MODEL 10
REMARK VINA RESULT:      -8.1      3.759      8.813
REMARK  5 active torsions:
REMARK  status: ('A' for Active; 'I' for Inactive)
REMARK    1  A    between atoms: C_7  and  C_8 
REMARK    2  A    between atoms: C_16  and  C_17 
REMARK    3  A    between atoms: C_20  and  O_21 
REMARK    4  A    between atoms: C_24  and  C_25 
REMARK       I    between atoms: C_25  and  N_26 
REMARK    5  A    between atoms: N_26  and  C_27 
ROOT
HETATM    1  C   UNL     1     -45.632  58.875 -50.614  1.00  0.00     0.070 C 
HETATM    2  C   UNL     1     -44.591  58.274 -51.531  1.00  0.00     0.037 A 
HETATM    3  N   UNL     1     -44.428  56.896 -51.410  1.00  0.00    -0.192 N 
HETATM    4  C   UNL     1     -43.474  56.201 -52.051  1.00  0.00     0.726 A 
HETATM    5  N   UNL     1     -42.668  56.846 -52.936  1.00  0.00    -0.083 N 
HETATM    6  N   UNL     1     -41.686  56.043 -53.390  1.00  0.00    -0.135 NA
HETATM    7  C   UNL     1     -42.020  54.871 -52.815  1.00  0.00     0.199 A 
HETATM    8  N   UNL     1     -43.113  54.948 -51.969  1.00  0.00    -0.041 NA
HETATM    9  C   UNL     1     -42.775  58.273 -53.258  1.00  0.00     0.202 A 
HETATM   10  C   UNL     1     -43.821  58.987 -52.400  1.00  0.00     0.062 A 
HETATM   11  H   UNL     1     -45.003  56.413 -50.725  1.00  0.00     0.184 HD
ENDROOT
BRANCH  10  12
HETATM   12  C   UNL     1     -44.015  60.473 -52.561  1.00  0.00     0.256 C 
HETATM   13  N   UNL     1     -45.034  60.857 -53.413  1.00  0.00    -0.323 N 
HETATM   14  H   UNL     1     -45.671  60.162 -53.767  1.00  0.00     0.169 HD
HETATM   15  O   UNL     1     -43.313  61.251 -51.923  1.00  0.00    -0.267 OA
BRANCH  13  16
HETATM   16  C   UNL     1     -45.353  62.175 -53.815  1.00  0.00     0.035 A 
HETATM   17  C   UNL     1     -44.827  62.798 -54.948  1.00  0.00     0.029 A 
HETATM   18  C   UNL     1     -45.222  64.095 -55.293  1.00  0.00     0.002 A 
HETATM   19  C   UNL     1     -46.143  64.782 -54.506  1.00  0.00     0.000 A 
HETATM   20  C   UNL     1     -46.673  64.171 -53.373  1.00  0.00     0.002 A 
HETATM   21  C   UNL     1     -46.284  62.873 -53.033  1.00  0.00     0.029 A 
ENDBRANCH  13  16
ENDBRANCH  10  12
BRANCH   9  22
HETATM   22  C   UNL     1     -42.983  58.434 -54.763  1.00  0.00    -0.028 A 
HETATM   23  C   UNL     1     -42.100  59.187 -55.557  1.00  0.00     0.012 A 
HETATM   24  C   UNL     1     -42.330  59.343 -56.927  1.00  0.00     0.037 A 
HETATM   25  C   UNL     1     -43.451  58.758 -57.504  1.00  0.00     0.065 A 
HETATM   26  C   UNL     1     -44.343  58.020 -56.739  1.00  0.00     0.037 A 
HETATM   27  C   UNL     1     -44.114  57.861 -55.372  1.00  0.00     0.012 A 
BRANCH  25  28
HETATM   28  O   UNL     1     -43.719  58.894 -58.834  1.00  0.00    -0.361 OA
HETATM   29  H   UNL     1     -44.360  59.614 -58.949  1.00  0.00     0.217 HD
ENDBRANCH  25  28
ENDBRANCH   9  22
BRANCH   7  30
HETATM   30  C   UNL     1     -41.295  53.623 -53.039  1.00  0.00     0.014 A 
HETATM   31  C   UNL     1     -41.429  52.919 -54.247  1.00  0.00     0.017 A 
HETATM   32  C   UNL     1     -40.739  51.720 -54.454  1.00  0.00     0.025 A 
HETATM   33  C   UNL     1     -39.910  51.218 -53.453  1.00  0.00     0.034 A 
HETATM   34 CL   UNL     1     -39.064  49.742 -53.706  1.00  0.00    -0.084 Cl
HETATM   35  C   UNL     1     -39.765  51.903 -52.249  1.00  0.00     0.025 A 
HETATM   36  C   UNL     1     -40.456  53.101 -52.043  1.00  0.00     0.017 A 
ENDBRANCH   7  30
TORSDOF 5
ENDMDL
