MODEL 1
REMARK VINA RESULT:      -8.5      0.000      0.000
REMARK  9 active torsions:
REMARK  status: ('A' for Active; 'I' for Inactive)
REMARK    1  A    between atoms: C_2  and  O_3 
REMARK    2  A    between atoms: O_3  and  C_4 
REMARK    3  A    between atoms: C_5  and  O_6 
REMARK    4  A    between atoms: C_9  and  C_10 
REMARK    5  A    between atoms: C_10  and  N_11 
REMARK    6  A    between atoms: C_13  and  C_14 
REMARK       I    between atoms: C_14  and  N_15 
REMARK    7  A    between atoms: N_15  and  C_16 
REMARK    8  A    between atoms: C_28  and  S_29 
REMARK    9  A    between atoms: S_29  and  C_30 
ROOT
HETATM    1  N   UNL     1     -42.868  58.962 -54.635  1.00  0.00    -0.053 N 
HETATM    2  H   UNL     1     -41.943  58.888 -55.080  1.00  0.00     0.281 HD
HETATM    3  C   UNL     1     -42.658  58.518 -53.179  1.00  0.00     0.281 C 
HETATM    4  C   UNL     1     -43.776  59.215 -52.429  1.00  0.00     0.060 C 
HETATM    5  C   UNL     1     -43.979  60.548 -53.165  1.00  0.00     0.082 C 
HETATM    6  C   UNL     1     -43.245  60.420 -54.513  1.00  0.00     0.252 C 
ENDROOT
BRANCH   3   7
HETATM    7  C   UNL     1     -42.456  57.007 -52.989  1.00  0.00     0.253 C 
HETATM    8  N   UNL     1     -41.182  56.533 -53.235  1.00  0.00    -0.325 N 
HETATM    9  H   UNL     1     -40.431  57.193 -53.404  1.00  0.00     0.169 HD
HETATM   10  O   UNL     1     -43.435  56.320 -52.704  1.00  0.00    -0.271 OA
BRANCH   8  11
HETATM   11  C   UNL     1     -40.794  55.171 -53.313  1.00  0.00     0.037 A 
HETATM   12  C   UNL     1     -40.562  54.361 -52.195  1.00  0.00     0.062 A 
HETATM   13  C   UNL     1     -40.230  52.996 -52.350  1.00  0.00     0.077 A 
HETATM   14  C   UNL     1     -40.120  52.471 -53.636  1.00  0.00     0.035 A 
HETATM   15  N   UNL     1     -40.009  52.098 -51.321  1.00  0.00    -0.245 NA
HETATM   16  S   UNL     1     -39.711  50.803 -53.524  1.00  0.00    -0.073 SA
HETATM   17  C   UNL     1     -40.332  53.263 -54.774  1.00  0.00     0.023 A 
HETATM   18  C   UNL     1     -39.743  50.908 -51.811  1.00  0.00     0.072 A 
HETATM   19  C   UNL     1     -39.468  49.706 -50.976  1.00  0.00     0.079 C 
HETATM   20  C   UNL     1     -40.677  54.611 -54.589  1.00  0.00     0.031 A 
ENDBRANCH   8  11
ENDBRANCH   3   7
BRANCH   1  21
HETATM   21  C   UNL     1     -43.766  58.147 -55.553  1.00  0.00     0.274 C 
BRANCH  21  22
HETATM   22  C   UNL     1     -43.231  57.807 -56.919  1.00  0.00    -0.030 A 
HETATM   23  C   UNL     1     -42.409  58.724 -57.600  1.00  0.00     0.012 A 
HETATM   24  C   UNL     1     -41.917  58.431 -58.870  1.00  0.00     0.040 A 
HETATM   25  C   UNL     1     -42.245  57.222 -59.461  1.00  0.00     0.099 A 
HETATM   26  C   UNL     1     -43.055  56.287 -58.813  1.00  0.00     0.102 A 
HETATM   27  C   UNL     1     -43.525  56.571 -57.529  1.00  0.00     0.048 A 
BRANCH  25  28
HETATM   28  O   UNL     1     -41.750  56.967 -60.710  1.00  0.00    -0.358 OA
HETATM   29  H   UNL     1     -40.791  57.151 -60.660  1.00  0.00     0.218 HD
ENDBRANCH  25  28
BRANCH  26  30
HETATM   30  O   UNL     1     -43.302  55.146 -59.527  1.00  0.00    -0.349 OA
BRANCH  30  31
HETATM   31  C   UNL     1     -44.668  54.776 -59.708  1.00  0.00     0.171 C 
HETATM   32  C   UNL     1     -45.057  55.132 -61.130  1.00  0.00     0.034 C 
ENDBRANCH  30  31
ENDBRANCH  26  30
ENDBRANCH  21  22
ENDBRANCH   1  21
BRANCH   5  33
HETATM   33  S   UNL     1     -43.296  61.921 -52.162  1.00  0.00    -0.104 SA
BRANCH  33  34
HETATM   34  C   UNL     1     -44.375  61.847 -50.739  1.00  0.00     0.093 A 
HETATM   35  N   UNL     1     -45.650  62.276 -50.899  1.00  0.00    -0.254 NA
HETATM   36  C   UNL     1     -46.455  62.213 -49.812  1.00  0.00     0.118 A 
HETATM   37  C   UNL     1     -46.043  61.765 -48.569  1.00  0.00     0.019 A 
HETATM   38  C   UNL     1     -44.725  61.351 -48.428  1.00  0.00     0.004 A 
HETATM   39  C   UNL     1     -43.874  61.387 -49.529  1.00  0.00     0.039 A 
ENDBRANCH  33  34
ENDBRANCH   5  33
TORSDOF 9
ENDMDL
MODEL 2
REMARK VINA RESULT:      -8.3      1.634      2.202
REMARK  9 active torsions:
REMARK  status: ('A' for Active; 'I' for Inactive)
REMARK    1  A    between atoms: C_2  and  O_3 
REMARK    2  A    between atoms: O_3  and  C_4 
REMARK    3  A    between atoms: C_5  and  O_6 
REMARK    4  A    between atoms: C_9  and  C_10 
REMARK    5  A    between atoms: C_10  and  N_11 
REMARK    6  A    between atoms: C_13  and  C_14 
REMARK       I    between atoms: C_14  and  N_15 
REMARK    7  A    between atoms: N_15  and  C_16 
REMARK    8  A    between atoms: C_28  and  S_29 
REMARK    9  A    between atoms: S_29  and  C_30 
ROOT
HETATM    1  N   UNL     1     -43.672  58.864 -53.208  1.00  0.00    -0.053 N 
HETATM    2  H   UNL     1     -42.785  58.816 -53.727  1.00  0.00     0.281 HD
HETATM    3  C   UNL     1     -43.304  58.590 -51.741  1.00  0.00     0.281 C 
HETATM    4  C   UNL     1     -44.412  59.272 -50.963  1.00  0.00     0.060 C 
HETATM    5  C   UNL     1     -44.789  60.502 -51.800  1.00  0.00     0.082 C 
HETATM    6  C   UNL     1     -44.162  60.293 -53.191  1.00  0.00     0.252 C 
ENDROOT
BRANCH   3   7
HETATM    7  C   UNL     1     -42.958  57.126 -51.427  1.00  0.00     0.253 C 
HETATM    8  N   UNL     1     -41.683  56.721 -51.770  1.00  0.00    -0.325 N 
HETATM    9  H   UNL     1     -41.012  57.411 -52.089  1.00  0.00     0.169 HD
HETATM   10  O   UNL     1     -43.840  56.405 -50.965  1.00  0.00    -0.271 OA
BRANCH   8  11
HETATM   11  C   UNL     1     -41.193  55.389 -51.758  1.00  0.00     0.037 A 
HETATM   12  C   UNL     1     -41.140  54.569 -52.891  1.00  0.00     0.062 A 
HETATM   13  C   UNL     1     -40.588  53.270 -52.814  1.00  0.00     0.077 A 
HETATM   14  C   UNL     1     -40.112  52.811 -51.588  1.00  0.00     0.035 A 
HETATM   15  N   UNL     1     -40.457  52.386 -53.870  1.00  0.00    -0.245 NA
HETATM   16  S   UNL     1     -39.501  51.215 -51.788  1.00  0.00    -0.073 SA
HETATM   17  C   UNL     1     -40.166  53.607 -50.434  1.00  0.00     0.023 A 
HETATM   18  C   UNL     1     -39.885  51.275 -53.461  1.00  0.00     0.072 A 
HETATM   19  C   UNL     1     -39.583  50.118 -54.347  1.00  0.00     0.079 C 
HETATM   20  C   UNL     1     -40.704  54.898 -50.544  1.00  0.00     0.031 A 
ENDBRANCH   8  11
ENDBRANCH   3   7
BRANCH   1  21
HETATM   21  C   UNL     1     -44.571  57.892 -53.957  1.00  0.00     0.274 C 
BRANCH  21  22
HETATM   22  C   UNL     1     -44.070  57.364 -55.276  1.00  0.00    -0.030 A 
HETATM   23  C   UNL     1     -43.090  56.354 -55.302  1.00  0.00     0.012 A 
HETATM   24  C   UNL     1     -42.606  55.864 -56.512  1.00  0.00     0.040 A 
HETATM   25  C   UNL     1     -43.100  56.382 -57.699  1.00  0.00     0.099 A 
HETATM   26  C   UNL     1     -44.076  57.381 -57.711  1.00  0.00     0.102 A 
HETATM   27  C   UNL     1     -44.579  57.852 -56.496  1.00  0.00     0.048 A 
BRANCH  25  28
HETATM   28  O   UNL     1     -42.602  55.882 -58.871  1.00  0.00    -0.358 OA
HETATM   29  H   UNL     1     -42.117  56.621 -59.290  1.00  0.00     0.218 HD
ENDBRANCH  25  28
BRANCH  26  30
HETATM   30  O   UNL     1     -44.456  57.801 -58.956  1.00  0.00    -0.349 OA
BRANCH  30  31
HETATM   31  C   UNL     1     -45.833  57.652 -59.300  1.00  0.00     0.171 C 
HETATM   32  C   UNL     1     -45.999  56.294 -59.957  1.00  0.00     0.034 C 
ENDBRANCH  30  31
ENDBRANCH  26  30
ENDBRANCH  21  22
ENDBRANCH   1  21
BRANCH   5  33
HETATM   33  S   UNL     1     -44.145  62.019 -51.000  1.00  0.00    -0.104 SA
BRANCH  33  34
HETATM   34  C   UNL     1     -45.114  62.027 -49.498  1.00  0.00     0.093 A 
HETATM   35  N   UNL     1     -46.333  62.616 -49.544  1.00  0.00    -0.254 NA
HETATM   36  C   UNL     1     -47.056  62.612 -48.399  1.00  0.00     0.118 A 
HETATM   37  C   UNL     1     -46.610  62.071 -47.205  1.00  0.00     0.019 A 
HETATM   38  C   UNL     1     -45.349  61.491 -47.181  1.00  0.00     0.004 A 
HETATM   39  C   UNL     1     -44.586  61.463 -48.345  1.00  0.00     0.039 A 
ENDBRANCH  33  34
ENDBRANCH   5  33
TORSDOF 9
ENDMDL
MODEL 3
REMARK VINA RESULT:      -8.3      3.063      9.145
REMARK  9 active torsions:
REMARK  status: ('A' for Active; 'I' for Inactive)
REMARK    1  A    between atoms: C_2  and  O_3 
REMARK    2  A    between atoms: O_3  and  C_4 
REMARK    3  A    between atoms: C_5  and  O_6 
REMARK    4  A    between atoms: C_9  and  C_10 
REMARK    5  A    between atoms: C_10  and  N_11 
REMARK    6  A    between atoms: C_13  and  C_14 
REMARK       I    between atoms: C_14  and  N_15 
REMARK    7  A    between atoms: N_15  and  C_16 
REMARK    8  A    between atoms: C_28  and  S_29 
REMARK    9  A    between atoms: S_29  and  C_30 
ROOT
HETATM    1  N   UNL     1     -42.056  56.255 -54.819  1.00  0.00    -0.053 N 
HETATM    2  H   UNL     1     -41.050  56.289 -54.608  1.00  0.00     0.281 HD
HETATM    3  C   UNL     1     -42.521  57.719 -54.835  1.00  0.00     0.281 C 
HETATM    4  C   UNL     1     -43.742  57.695 -55.733  1.00  0.00     0.060 C 
HETATM    5  C   UNL     1     -43.446  56.614 -56.782  1.00  0.00     0.082 C 
HETATM    6  C   UNL     1     -42.250  55.803 -56.248  1.00  0.00     0.252 C 
ENDROOT
BRANCH   3   7
HETATM    7  C   UNL     1     -42.620  58.379 -53.451  1.00  0.00     0.253 C 
HETATM    8  N   UNL     1     -43.774  59.098 -53.207  1.00  0.00    -0.325 N 
HETATM    9  H   UNL     1     -44.533  59.061 -53.878  1.00  0.00     0.169 HD
HETATM   10  O   UNL     1     -41.659  58.284 -52.691  1.00  0.00    -0.271 OA
BRANCH   8  11
HETATM   11  C   UNL     1     -44.016  59.945 -52.094  1.00  0.00     0.037 A 
HETATM   12  C   UNL     1     -44.881  59.620 -51.043  1.00  0.00     0.062 A 
HETATM   13  C   UNL     1     -45.032  60.490 -49.939  1.00  0.00     0.077 A 
HETATM   14  C   UNL     1     -44.318  61.686 -49.921  1.00  0.00     0.035 A 
HETATM   15  N   UNL     1     -45.833  60.260 -48.835  1.00  0.00    -0.245 NA
HETATM   16  S   UNL     1     -44.691  62.537 -48.472  1.00  0.00    -0.073 SA
HETATM   17  C   UNL     1     -43.455  62.043 -50.968  1.00  0.00     0.023 A 
HETATM   18  C   UNL     1     -45.727  61.257 -47.985  1.00  0.00     0.072 A 
HETATM   19  C   UNL     1     -46.446  61.323 -46.684  1.00  0.00     0.079 C 
HETATM   20  C   UNL     1     -43.313  61.152 -52.043  1.00  0.00     0.031 A 
ENDBRANCH   8  11
ENDBRANCH   3   7
BRANCH   1  21
HETATM   21  C   UNL     1     -42.603  55.299 -53.770  1.00  0.00     0.274 C 
BRANCH  21  22
HETATM   22  C   UNL     1     -41.676  54.225 -53.264  1.00  0.00    -0.030 A 
HETATM   23  C   UNL     1     -41.242  53.205 -54.131  1.00  0.00     0.012 A 
HETATM   24  C   UNL     1     -40.395  52.197 -53.676  1.00  0.00     0.040 A 
HETATM   25  C   UNL     1     -39.981  52.206 -52.354  1.00  0.00     0.099 A 
HETATM   26  C   UNL     1     -40.388  53.204 -51.467  1.00  0.00     0.102 A 
HETATM   27  C   UNL     1     -41.216  54.229 -51.932  1.00  0.00     0.048 A 
BRANCH  25  28
HETATM   28  O   UNL     1     -39.153  51.200 -51.937  1.00  0.00    -0.358 OA
HETATM   29  H   UNL     1     -38.447  51.139 -52.611  1.00  0.00     0.218 HD
ENDBRANCH  25  28
BRANCH  26  30
HETATM   30  O   UNL     1     -39.908  53.073 -50.192  1.00  0.00    -0.349 OA
BRANCH  30  31
HETATM   31  C   UNL     1     -39.662  54.275 -49.464  1.00  0.00     0.171 C 
HETATM   32  C   UNL     1     -40.499  54.227 -48.199  1.00  0.00     0.034 C 
ENDBRANCH  30  31
ENDBRANCH  26  30
ENDBRANCH  21  22
ENDBRANCH   1  21
BRANCH   5  33
HETATM   33  S   UNL     1     -43.053  57.400 -58.389  1.00  0.00    -0.104 SA
BRANCH  33  34
HETATM   34  C   UNL     1     -44.395  56.775 -59.390  1.00  0.00     0.093 A 
HETATM   35  N   UNL     1     -44.083  55.908 -60.382  1.00  0.00    -0.254 NA
HETATM   36  C   UNL     1     -45.112  55.441 -61.130  1.00  0.00     0.118 A 
HETATM   37  C   UNL     1     -46.431  55.818 -60.951  1.00  0.00     0.019 A 
HETATM   38  C   UNL     1     -46.721  56.724 -59.939  1.00  0.00     0.004 A 
HETATM   39  C   UNL     1     -45.689  57.211 -59.141  1.00  0.00     0.039 A 
ENDBRANCH  33  34
ENDBRANCH   5  33
TORSDOF 9
ENDMDL
MODEL 4
REMARK VINA RESULT:      -8.2      3.020      9.197
REMARK  9 active torsions:
REMARK  status: ('A' for Active; 'I' for Inactive)
REMARK    1  A    between atoms: C_2  and  O_3 
REMARK    2  A    between atoms: O_3  and  C_4 
REMARK    3  A    between atoms: C_5  and  O_6 
REMARK    4  A    between atoms: C_9  and  C_10 
REMARK    5  A    between atoms: C_10  and  N_11 
REMARK    6  A    between atoms: C_13  and  C_14 
REMARK       I    between atoms: C_14  and  N_15 
REMARK    7  A    between atoms: N_15  and  C_16 
REMARK    8  A    between atoms: C_28  and  S_29 
REMARK    9  A    between atoms: S_29  and  C_30 
ROOT
HETATM    1  N   UNL     1     -42.349  55.848 -54.580  1.00  0.00    -0.053 N 
HETATM    2  H   UNL     1     -41.370  55.719 -54.289  1.00  0.00     0.281 HD
HETATM    3  C   UNL     1     -42.543  57.367 -54.703  1.00  0.00     0.281 C 
HETATM    4  C   UNL     1     -43.681  57.502 -55.695  1.00  0.00     0.060 C 
HETATM    5  C   UNL     1     -43.505  56.324 -56.665  1.00  0.00     0.082 C 
HETATM    6  C   UNL     1     -42.515  55.352 -55.997  1.00  0.00     0.252 C 
ENDROOT
BRANCH   3   7
HETATM    7  C   UNL     1     -42.624  58.116 -53.363  1.00  0.00     0.253 C 
HETATM    8  N   UNL     1     -43.779  58.842 -53.147  1.00  0.00    -0.325 N 
HETATM    9  H   UNL     1     -44.550  58.756 -53.801  1.00  0.00     0.169 HD
HETATM   10  O   UNL     1     -41.650  58.079 -52.616  1.00  0.00    -0.271 OA
BRANCH   8  11
HETATM   11  C   UNL     1     -44.010  59.759 -52.089  1.00  0.00     0.037 A 
HETATM   12  C   UNL     1     -44.896  59.521 -51.032  1.00  0.00     0.062 A 
HETATM   13  C   UNL     1     -45.033  60.458 -49.983  1.00  0.00     0.077 A 
HETATM   14  C   UNL     1     -44.285  61.632 -50.025  1.00  0.00     0.035 A 
HETATM   15  N   UNL     1     -45.853  60.316 -48.878  1.00  0.00    -0.245 NA
HETATM   16  S   UNL     1     -44.649  62.577 -48.633  1.00  0.00    -0.073 SA
HETATM   17  C   UNL     1     -43.401  61.903 -51.079  1.00  0.00     0.023 A 
HETATM   18  C   UNL     1     -45.728  61.358 -48.086  1.00  0.00     0.072 A 
HETATM   19  C   UNL     1     -46.460  61.520 -46.800  1.00  0.00     0.079 C 
HETATM   20  C   UNL     1     -43.272  60.947 -52.099  1.00  0.00     0.031 A 
ENDBRANCH   8  11
ENDBRANCH   3   7
BRANCH   1  21
HETATM   21  C   UNL     1     -43.131  55.066 -53.536  1.00  0.00     0.274 C 
BRANCH  21  22
HETATM   22  C   UNL     1     -42.376  54.580 -52.327  1.00  0.00    -0.030 A 
HETATM   23  C   UNL     1     -42.778  54.981 -51.039  1.00  0.00     0.012 A 
HETATM   24  C   UNL     1     -42.083  54.551 -49.912  1.00  0.00     0.040 A 
HETATM   25  C   UNL     1     -40.986  53.719 -50.068  1.00  0.00     0.099 A 
HETATM   26  C   UNL     1     -40.562  53.298 -51.330  1.00  0.00     0.102 A 
HETATM   27  C   UNL     1     -41.277  53.708 -52.458  1.00  0.00     0.048 A 
BRANCH  25  28
HETATM   28  O   UNL     1     -40.322  53.318 -48.941  1.00  0.00    -0.358 OA
HETATM   29  H   UNL     1     -40.583  53.948 -48.240  1.00  0.00     0.218 HD
ENDBRANCH  25  28
BRANCH  26  30
HETATM   30  O   UNL     1     -39.458  52.490 -51.327  1.00  0.00    -0.349 OA
BRANCH  30  31
HETATM   31  C   UNL     1     -39.569  51.235 -51.998  1.00  0.00     0.171 C 
HETATM   32  C   UNL     1     -39.617  50.150 -50.939  1.00  0.00     0.034 C 
ENDBRANCH  30  31
ENDBRANCH  26  30
ENDBRANCH  21  22
ENDBRANCH   1  21
BRANCH   5  33
HETATM   33  S   UNL     1     -42.863  56.931 -58.270  1.00  0.00    -0.104 SA
BRANCH  33  34
HETATM   34  C   UNL     1     -44.227  56.506 -59.344  1.00  0.00     0.093 A 
HETATM   35  N   UNL     1     -43.993  55.601 -60.323  1.00  0.00    -0.254 NA
HETATM   36  C   UNL     1     -45.037  55.288 -61.127  1.00  0.00     0.118 A 
HETATM   37  C   UNL     1     -46.295  55.854 -61.016  1.00  0.00     0.019 A 
HETATM   38  C   UNL     1     -46.502  56.795 -60.017  1.00  0.00     0.004 A 
HETATM   39  C   UNL     1     -45.455  57.128 -59.162  1.00  0.00     0.039 A 
ENDBRANCH  33  34
ENDBRANCH   5  33
TORSDOF 9
ENDMDL
MODEL 5
REMARK VINA RESULT:      -8.1      1.439      1.802
REMARK  9 active torsions:
REMARK  status: ('A' for Active; 'I' for Inactive)
REMARK    1  A    between atoms: C_2  and  O_3 
REMARK    2  A    between atoms: O_3  and  C_4 
REMARK    3  A    between atoms: C_5  and  O_6 
REMARK    4  A    between atoms: C_9  and  C_10 
REMARK    5  A    between atoms: C_10  and  N_11 
REMARK    6  A    between atoms: C_13  and  C_14 
REMARK       I    between atoms: C_14  and  N_15 
REMARK    7  A    between atoms: N_15  and  C_16 
REMARK    8  A    between atoms: C_28  and  S_29 
REMARK    9  A    between atoms: S_29  and  C_30 
ROOT
HETATM    1  N   UNL     1     -42.611  59.709 -53.768  1.00  0.00    -0.053 N 
HETATM    2  H   UNL     1     -41.856  60.014 -54.397  1.00  0.00     0.281 HD
HETATM    3  C   UNL     1     -41.905  59.080 -52.557  1.00  0.00     0.281 C 
HETATM    4  C   UNL     1     -42.913  59.235 -51.436  1.00  0.00     0.060 C 
HETATM    5  C   UNL     1     -43.641  60.555 -51.734  1.00  0.00     0.082 C 
HETATM    6  C   UNL     1     -43.297  60.924 -53.189  1.00  0.00     0.252 C 
ENDROOT
BRANCH   3   7
HETATM    7  C   UNL     1     -41.282  57.700 -52.819  1.00  0.00     0.253 C 
HETATM    8  N   UNL     1     -41.814  56.651 -52.096  1.00  0.00    -0.325 N 
HETATM    9  H   UNL     1     -42.644  56.805 -51.535  1.00  0.00     0.169 HD
HETATM   10  O   UNL     1     -40.325  57.630 -53.588  1.00  0.00    -0.271 OA
BRANCH   8  11
HETATM   11  C   UNL     1     -41.293  55.334 -52.020  1.00  0.00     0.037 A 
HETATM   12  C   UNL     1     -41.215  54.462 -53.113  1.00  0.00     0.062 A 
HETATM   13  C   UNL     1     -40.633  53.182 -52.973  1.00  0.00     0.077 A 
HETATM   14  C   UNL     1     -40.151  52.793 -51.725  1.00  0.00     0.035 A 
HETATM   15  N   UNL     1     -40.477  52.253 -53.985  1.00  0.00    -0.245 NA
HETATM   16  S   UNL     1     -39.502  51.204 -51.848  1.00  0.00    -0.073 SA
HETATM   17  C   UNL     1     -40.229  53.640 -50.610  1.00  0.00     0.023 A 
HETATM   18  C   UNL     1     -39.880  51.176 -53.522  1.00  0.00     0.072 A 
HETATM   19  C   UNL     1     -39.547  49.986 -54.352  1.00  0.00     0.079 C 
HETATM   20  C   UNL     1     -40.797  54.912 -50.782  1.00  0.00     0.031 A 
ENDBRANCH   8  11
ENDBRANCH   3   7
BRANCH   1  21
HETATM   21  C   UNL     1     -43.489  58.849 -54.663  1.00  0.00     0.274 C 
BRANCH  21  22
HETATM   22  C   UNL     1     -42.999  58.584 -56.063  1.00  0.00    -0.030 A 
HETATM   23  C   UNL     1     -42.265  59.570 -56.749  1.00  0.00     0.012 A 
HETATM   24  C   UNL     1     -41.816  59.346 -58.048  1.00  0.00     0.040 A 
HETATM   25  C   UNL     1     -42.100  58.138 -58.664  1.00  0.00     0.099 A 
HETATM   26  C   UNL     1     -42.822  57.136 -58.013  1.00  0.00     0.102 A 
HETATM   27  C   UNL     1     -43.248  57.352 -56.700  1.00  0.00     0.048 A 
BRANCH  25  28
HETATM   28  O   UNL     1     -41.649  57.952 -59.942  1.00  0.00    -0.358 OA
HETATM   29  H   UNL     1     -41.036  58.692 -60.120  1.00  0.00     0.218 HD
ENDBRANCH  25  28
BRANCH  26  30
HETATM   30  O   UNL     1     -43.035  56.005 -58.752  1.00  0.00    -0.349 OA
BRANCH  30  31
HETATM   31  C   UNL     1     -44.308  55.871 -59.383  1.00  0.00     0.171 C 
HETATM   32  C   UNL     1     -44.504  54.403 -59.714  1.00  0.00     0.034 C 
ENDBRANCH  30  31
ENDBRANCH  26  30
ENDBRANCH  21  22
ENDBRANCH   1  21
BRANCH   5  33
HETATM   33  S   UNL     1     -43.081  61.850 -50.566  1.00  0.00    -0.104 SA
BRANCH  33  34
HETATM   34  C   UNL     1     -44.531  62.001 -49.533  1.00  0.00     0.093 A 
HETATM   35  N   UNL     1     -45.590  62.678 -50.037  1.00  0.00    -0.254 NA
HETATM   36  C   UNL     1     -46.682  62.783 -49.243  1.00  0.00     0.118 A 
HETATM   37  C   UNL     1     -46.758  62.265 -47.961  1.00  0.00     0.019 A 
HETATM   38  C   UNL     1     -45.650  61.593 -47.461  1.00  0.00     0.004 A 
HETATM   39  C   UNL     1     -44.517  61.454 -48.257  1.00  0.00     0.039 A 
ENDBRANCH  33  34
ENDBRANCH   5  33
TORSDOF 9
ENDMDL
MODEL 6
REMARK VINA RESULT:      -8.1      2.711      7.308
REMARK  9 active torsions:
REMARK  status: ('A' for Active; 'I' for Inactive)
REMARK    1  A    between atoms: C_2  and  O_3 
REMARK    2  A    between atoms: O_3  and  C_4 
REMARK    3  A    between atoms: C_5  and  O_6 
REMARK    4  A    between atoms: C_9  and  C_10 
REMARK    5  A    between atoms: C_10  and  N_11 
REMARK    6  A    between atoms: C_13  and  C_14 
REMARK       I    between atoms: C_14  and  N_15 
REMARK    7  A    between atoms: N_15  and  C_16 
REMARK    8  A    between atoms: C_28  and  S_29 
REMARK    9  A    between atoms: S_29  and  C_30 
ROOT
HETATM    1  N   UNL     1     -43.394  59.505 -55.123  1.00  0.00    -0.053 N 
HETATM    2  H   UNL     1     -43.958  59.804 -54.316  1.00  0.00     0.281 HD
HETATM    3  C   UNL     1     -43.852  58.071 -55.432  1.00  0.00     0.281 C 
HETATM    4  C   UNL     1     -43.530  57.903 -56.904  1.00  0.00     0.060 C 
HETATM    5  C   UNL     1     -43.745  59.293 -57.520  1.00  0.00     0.082 C 
HETATM    6  C   UNL     1     -43.820  60.286 -56.345  1.00  0.00     0.252 C 
ENDROOT
BRANCH   3   7
HETATM    7  C   UNL     1     -43.366  57.010 -54.433  1.00  0.00     0.253 C 
HETATM    8  N   UNL     1     -42.173  56.387 -54.747  1.00  0.00    -0.325 N 
HETATM    9  H   UNL     1     -41.626  56.729 -55.529  1.00  0.00     0.169 HD
HETATM   10  O   UNL     1     -44.086  56.739 -53.474  1.00  0.00    -0.271 OA
BRANCH   8  11
HETATM   11  C   UNL     1     -41.618  55.257 -54.093  1.00  0.00     0.037 A 
HETATM   12  C   UNL     1     -41.349  54.042 -54.734  1.00  0.00     0.062 A 
HETATM   13  C   UNL     1     -40.745  52.975 -54.030  1.00  0.00     0.077 A 
HETATM   14  C   UNL     1     -40.436  53.146 -52.683  1.00  0.00     0.035 A 
HETATM   15  N   UNL     1     -40.407  51.745 -54.566  1.00  0.00    -0.245 NA
HETATM   16  S   UNL     1     -39.715  51.701 -52.088  1.00  0.00    -0.073 SA
HETATM   17  C   UNL     1     -40.708  54.347 -52.012  1.00  0.00     0.023 A 
HETATM   18  C   UNL     1     -39.844  50.992 -53.647  1.00  0.00     0.072 A 
HETATM   19  C   UNL     1     -39.348  49.610 -53.891  1.00  0.00     0.079 C 
HETATM   20  C   UNL     1     -41.293  55.395 -52.740  1.00  0.00     0.031 A 
ENDBRANCH   8  11
ENDBRANCH   3   7
BRANCH   1  21
HETATM   21  C   UNL     1     -41.966  59.762 -54.669  1.00  0.00     0.274 C 
BRANCH  21  22
HETATM   22  C   UNL     1     -41.681  59.664 -53.193  1.00  0.00    -0.030 A 
HETATM   23  C   UNL     1     -40.573  58.925 -52.739  1.00  0.00     0.012 A 
HETATM   24  C   UNL     1     -40.303  58.813 -51.378  1.00  0.00     0.040 A 
HETATM   25  C   UNL     1     -41.139  59.440 -50.467  1.00  0.00     0.099 A 
HETATM   26  C   UNL     1     -42.245  60.185 -50.883  1.00  0.00     0.102 A 
HETATM   27  C   UNL     1     -42.498  60.318 -52.250  1.00  0.00     0.048 A 
BRANCH  25  28
HETATM   28  O   UNL     1     -40.849  59.307 -49.137  1.00  0.00    -0.358 OA
HETATM   29  H   UNL     1     -41.564  58.755 -48.762  1.00  0.00     0.218 HD
ENDBRANCH  25  28
BRANCH  26  30
HETATM   30  O   UNL     1     -42.983  60.734 -49.870  1.00  0.00    -0.349 OA
BRANCH  30  31
HETATM   31  C   UNL     1     -44.079  61.568 -50.243  1.00  0.00     0.171 C 
HETATM   32  C   UNL     1     -43.724  62.993 -49.862  1.00  0.00     0.034 C 
ENDBRANCH  30  31
ENDBRANCH  26  30
ENDBRANCH  21  22
ENDBRANCH   1  21
BRANCH   5  33
HETATM   33  S   UNL     1     -45.292  59.305 -58.502  1.00  0.00    -0.104 SA
BRANCH  33  34
HETATM   34  C   UNL     1     -45.121  57.763 -59.390  1.00  0.00     0.093 A 
HETATM   35  N   UNL     1     -43.905  57.474 -59.910  1.00  0.00    -0.254 NA
HETATM   36  C   UNL     1     -43.791  56.301 -60.579  1.00  0.00     0.118 A 
HETATM   37  C   UNL     1     -44.839  55.418 -60.773  1.00  0.00     0.019 A 
HETATM   38  C   UNL     1     -46.080  55.749 -60.246  1.00  0.00     0.004 A 
HETATM   39  C   UNL     1     -46.228  56.939 -59.539  1.00  0.00     0.039 A 
ENDBRANCH  33  34
ENDBRANCH   5  33
TORSDOF 9
ENDMDL
MODEL 7
REMARK VINA RESULT:      -8.1      3.070      7.127
REMARK  9 active torsions:
REMARK  status: ('A' for Active; 'I' for Inactive)
REMARK    1  A    between atoms: C_2  and  O_3 
REMARK    2  A    between atoms: O_3  and  C_4 
REMARK    3  A    between atoms: C_5  and  O_6 
REMARK    4  A    between atoms: C_9  and  C_10 
REMARK    5  A    between atoms: C_10  and  N_11 
REMARK    6  A    between atoms: C_13  and  C_14 
REMARK       I    between atoms: C_14  and  N_15 
REMARK    7  A    between atoms: N_15  and  C_16 
REMARK    8  A    between atoms: C_28  and  S_29 
REMARK    9  A    between atoms: S_29  and  C_30 
ROOT
HETATM    1  N   UNL     1     -43.466  59.347 -56.840  1.00  0.00    -0.053 N 
HETATM    2  H   UNL     1     -44.448  59.315 -56.534  1.00  0.00     0.281 HD
HETATM    3  C   UNL     1     -43.114  57.906 -57.239  1.00  0.00     0.281 C 
HETATM    4  C   UNL     1     -41.984  58.078 -58.235  1.00  0.00     0.060 C 
HETATM    5  C   UNL     1     -42.299  59.388 -58.973  1.00  0.00     0.082 C 
HETATM    6  C   UNL     1     -43.376  60.109 -58.141  1.00  0.00     0.252 C 
ENDROOT
BRANCH   3   7
HETATM    7  C   UNL     1     -42.933  56.938 -56.059  1.00  0.00     0.253 C 
HETATM    8  N   UNL     1     -41.628  56.623 -55.732  1.00  0.00    -0.325 N 
HETATM    9  H   UNL     1     -40.869  57.120 -56.185  1.00  0.00     0.169 HD
HETATM   10  O   UNL     1     -43.938  56.461 -55.538  1.00  0.00    -0.271 OA
BRANCH   8  11
HETATM   11  C   UNL     1     -41.209  55.619 -54.821  1.00  0.00     0.037 A 
HETATM   12  C   UNL     1     -41.256  55.764 -53.429  1.00  0.00     0.062 A 
HETATM   13  C   UNL     1     -40.872  54.699 -52.582  1.00  0.00     0.077 A 
HETATM   14  C   UNL     1     -40.431  53.508 -53.153  1.00  0.00     0.035 A 
HETATM   15  N   UNL     1     -40.904  54.718 -51.199  1.00  0.00    -0.245 NA
HETATM   16  S   UNL     1     -40.036  52.399 -51.897  1.00  0.00    -0.073 SA
HETATM   17  C   UNL     1     -40.361  53.341 -54.544  1.00  0.00     0.023 A 
HETATM   18  C   UNL     1     -40.503  53.561 -50.722  1.00  0.00     0.072 A 
HETATM   19  C   UNL     1     -40.429  53.238 -49.271  1.00  0.00     0.079 C 
HETATM   20  C   UNL     1     -40.763  54.409 -55.361  1.00  0.00     0.031 A 
ENDBRANCH   8  11
ENDBRANCH   3   7
BRANCH   1  21
HETATM   21  C   UNL     1     -42.755  60.004 -55.667  1.00  0.00     0.274 C 
BRANCH  21  22
HETATM   22  C   UNL     1     -43.234  59.654 -54.283  1.00  0.00    -0.030 A 
HETATM   23  C   UNL     1     -44.614  59.580 -54.015  1.00  0.00     0.012 A 
HETATM   24  C   UNL     1     -45.075  59.270 -52.739  1.00  0.00     0.040 A 
HETATM   25  C   UNL     1     -44.159  59.033 -51.726  1.00  0.00     0.099 A 
HETATM   26  C   UNL     1     -42.783  59.094 -51.957  1.00  0.00     0.102 A 
HETATM   27  C   UNL     1     -42.323  59.378 -53.245  1.00  0.00     0.048 A 
BRANCH  25  28
HETATM   28  O   UNL     1     -44.643  58.736 -50.482  1.00  0.00    -0.358 OA
HETATM   29  H   UNL     1     -45.130  59.531 -50.189  1.00  0.00     0.218 HD
ENDBRANCH  25  28
BRANCH  26  30
HETATM   30  O   UNL     1     -42.003  58.849 -50.860  1.00  0.00    -0.349 OA
BRANCH  30  31
HETATM   31  C   UNL     1     -40.624  58.565 -51.092  1.00  0.00     0.171 C 
HETATM   32  C   UNL     1     -39.809  59.629 -50.382  1.00  0.00     0.034 C 
ENDBRANCH  30  31
ENDBRANCH  26  30
ENDBRANCH  21  22
ENDBRANCH   1  21
BRANCH   5  33
HETATM   33  S   UNL     1     -42.898  59.019 -60.664  1.00  0.00    -0.104 SA
BRANCH  33  34
HETATM   34  C   UNL     1     -43.880  57.560 -60.346  1.00  0.00     0.093 A 
HETATM   35  N   UNL     1     -43.260  56.359 -60.428  1.00  0.00    -0.254 NA
HETATM   36  C   UNL     1     -44.018  55.263 -60.183  1.00  0.00     0.118 A 
HETATM   37  C   UNL     1     -45.369  55.309 -59.885  1.00  0.00     0.019 A 
HETATM   38  C   UNL     1     -45.985  56.552 -59.828  1.00  0.00     0.004 A 
HETATM   39  C   UNL     1     -45.232  57.700 -60.058  1.00  0.00     0.039 A 
ENDBRANCH  33  34
ENDBRANCH   5  33
TORSDOF 9
ENDMDL
MODEL 8
REMARK VINA RESULT:      -8.1      2.971      6.887
REMARK  9 active torsions:
REMARK  status: ('A' for Active; 'I' for Inactive)
REMARK    1  A    between atoms: C_2  and  O_3 
REMARK    2  A    between atoms: O_3  and  C_4 
REMARK    3  A    between atoms: C_5  and  O_6 
REMARK    4  A    between atoms: C_9  and  C_10 
REMARK    5  A    between atoms: C_10  and  N_11 
REMARK    6  A    between atoms: C_13  and  C_14 
REMARK       I    between atoms: C_14  and  N_15 
REMARK    7  A    between atoms: N_15  and  C_16 
REMARK    8  A    between atoms: C_28  and  S_29 
REMARK    9  A    between atoms: S_29  and  C_30 
ROOT
HETATM    1  N   UNL     1     -43.373  59.219 -55.563  1.00  0.00    -0.053 N 
HETATM    2  H   UNL     1     -44.364  59.060 -55.338  1.00  0.00     0.281 HD
HETATM    3  C   UNL     1     -42.935  57.991 -56.376  1.00  0.00     0.281 C 
HETATM    4  C   UNL     1     -41.774  58.506 -57.202  1.00  0.00     0.060 C 
HETATM    5  C   UNL     1     -42.119  59.971 -57.506  1.00  0.00     0.082 C 
HETATM    6  C   UNL     1     -43.264  60.357 -56.550  1.00  0.00     0.252 C 
ENDROOT
BRANCH   3   7
HETATM    7  C   UNL     1     -42.758  56.704 -55.554  1.00  0.00     0.253 C 
HETATM    8  N   UNL     1     -41.480  56.452 -55.095  1.00  0.00    -0.325 N 
HETATM    9  H   UNL     1     -40.764  57.161 -55.209  1.00  0.00     0.169 HD
HETATM   10  O   UNL     1     -43.729  55.962 -55.418  1.00  0.00    -0.271 OA
BRANCH   8  11
HETATM   11  C   UNL     1     -41.027  55.254 -54.487  1.00  0.00     0.037 A 
HETATM   12  C   UNL     1     -41.162  54.975 -53.121  1.00  0.00     0.062 A 
HETATM   13  C   UNL     1     -40.735  53.735 -52.595  1.00  0.00     0.077 A 
HETATM   14  C   UNL     1     -40.162  52.799 -53.453  1.00  0.00     0.035 A 
HETATM   15  N   UNL     1     -40.844  53.340 -51.273  1.00  0.00    -0.245 NA
HETATM   16  S   UNL     1     -39.742  51.396 -52.548  1.00  0.00    -0.073 SA
HETATM   17  C   UNL     1     -40.002  53.058 -54.822  1.00  0.00     0.023 A 
HETATM   18  C   UNL     1     -40.370  52.122 -51.125  1.00  0.00     0.072 A 
HETATM   19  C   UNL     1     -40.348  51.389 -49.830  1.00  0.00     0.079 C 
HETATM   20  C   UNL     1     -40.450  54.291 -55.320  1.00  0.00     0.031 A 
ENDBRANCH   8  11
ENDBRANCH   3   7
BRANCH   1  21
HETATM   21  C   UNL     1     -42.744  59.492 -54.205  1.00  0.00     0.274 C 
BRANCH  21  22
HETATM   22  C   UNL     1     -43.609  59.286 -52.989  1.00  0.00    -0.030 A 
HETATM   23  C   UNL     1     -44.291  60.377 -52.419  1.00  0.00     0.012 A 
HETATM   24  C   UNL     1     -45.084  60.207 -51.288  1.00  0.00     0.040 A 
HETATM   25  C   UNL     1     -45.197  58.947 -50.722  1.00  0.00     0.099 A 
HETATM   26  C   UNL     1     -44.538  57.841 -51.263  1.00  0.00     0.102 A 
HETATM   27  C   UNL     1     -43.765  58.009 -52.415  1.00  0.00     0.048 A 
BRANCH  25  28
HETATM   28  O   UNL     1     -45.980  58.815 -49.609  1.00  0.00    -0.358 OA
HETATM   29  H   UNL     1     -46.681  59.490 -49.693  1.00  0.00     0.218 HD
ENDBRANCH  25  28
BRANCH  26  30
HETATM   30  O   UNL     1     -44.735  56.667 -50.590  1.00  0.00    -0.349 OA
BRANCH  30  31
HETATM   31  C   UNL     1     -43.645  55.747 -50.556  1.00  0.00     0.171 C 
HETATM   32  C   UNL     1     -44.226  54.345 -50.524  1.00  0.00     0.034 C 
ENDBRANCH  30  31
ENDBRANCH  26  30
ENDBRANCH  21  22
ENDBRANCH   1  21
BRANCH   5  33
HETATM   33  S   UNL     1     -42.627  60.140 -59.257  1.00  0.00    -0.104 SA
BRANCH  33  34
HETATM   34  C   UNL     1     -41.464  61.378 -59.812  1.00  0.00     0.093 A 
HETATM   35  N   UNL     1     -41.423  61.646 -61.139  1.00  0.00    -0.254 NA
HETATM   36  C   UNL     1     -40.538  62.588 -61.544  1.00  0.00     0.118 A 
HETATM   37  C   UNL     1     -39.676  63.256 -60.691  1.00  0.00     0.019 A 
HETATM   38  C   UNL     1     -39.725  62.948 -59.338  1.00  0.00     0.004 A 
HETATM   39  C   UNL     1     -40.635  61.995 -58.886  1.00  0.00     0.039 A 
ENDBRANCH  33  34
ENDBRANCH   5  33
TORSDOF 9
ENDMDL
MODEL 9
REMARK VINA RESULT:      -7.9      3.018      9.134
REMARK  9 active torsions:
REMARK  status: ('A' for Active; 'I' for Inactive)
REMARK    1  A    between atoms: C_2  and  O_3 
REMARK    2  A    between atoms: O_3  and  C_4 
REMARK    3  A    between atoms: C_5  and  O_6 
REMARK    4  A    between atoms: C_9  and  C_10 
REMARK    5  A    between atoms: C_10  and  N_11 
REMARK    6  A    between atoms: C_13  and  C_14 
REMARK       I    between atoms: C_14  and  N_15 
REMARK    7  A    between atoms: N_15  and  C_16 
REMARK    8  A    between atoms: C_28  and  S_29 
REMARK    9  A    between atoms: S_29  and  C_30 
ROOT
HETATM    1  N   UNL     1     -42.523  55.996 -51.890  1.00  0.00    -0.053 N 
HETATM    2  H   UNL     1     -42.208  56.931 -52.182  1.00  0.00     0.281 HD
HETATM    3  C   UNL     1     -42.103  55.050 -53.026  1.00  0.00     0.281 C 
HETATM    4  C   UNL     1     -41.978  53.704 -52.341  1.00  0.00     0.060 C 
HETATM    5  C   UNL     1     -41.482  54.023 -50.922  1.00  0.00     0.082 C 
HETATM    6  C   UNL     1     -41.691  55.535 -50.717  1.00  0.00     0.252 C 
ENDROOT
BRANCH   3   7
HETATM    7  C   UNL     1     -42.948  55.165 -54.305  1.00  0.00     0.253 C 
HETATM    8  N   UNL     1     -42.455  56.010 -55.279  1.00  0.00    -0.325 N 
HETATM    9  H   UNL     1     -41.530  56.410 -55.168  1.00  0.00     0.169 HD
HETATM   10  O   UNL     1     -44.020  54.564 -54.350  1.00  0.00    -0.271 OA
BRANCH   8  11
HETATM   11  C   UNL     1     -43.136  56.427 -56.452  1.00  0.00     0.037 A 
HETATM   12  C   UNL     1     -43.886  57.606 -56.540  1.00  0.00     0.062 A 
HETATM   13  C   UNL     1     -44.493  57.984 -57.759  1.00  0.00     0.077 A 
HETATM   14  C   UNL     1     -44.347  57.157 -58.870  1.00  0.00     0.035 A 
HETATM   15  N   UNL     1     -45.230  59.136 -57.969  1.00  0.00    -0.245 NA
HETATM   16  S   UNL     1     -45.181  57.859 -60.202  1.00  0.00    -0.073 SA
HETATM   17  C   UNL     1     -43.614  55.964 -58.807  1.00  0.00     0.023 A 
HETATM   18  C   UNL     1     -45.633  59.193 -59.219  1.00  0.00     0.072 A 
HETATM   19  C   UNL     1     -46.438  60.309 -59.785  1.00  0.00     0.079 C 
HETATM   20  C   UNL     1     -43.008  55.621 -57.588  1.00  0.00     0.031 A 
ENDBRANCH   8  11
ENDBRANCH   3   7
BRANCH   1  21
HETATM   21  C   UNL     1     -43.998  56.202 -51.582  1.00  0.00     0.274 C 
BRANCH  21  22
HETATM   22  C   UNL     1     -44.575  57.568 -51.844  1.00  0.00    -0.030 A 
HETATM   23  C   UNL     1     -44.578  58.092 -53.150  1.00  0.00     0.012 A 
HETATM   24  C   UNL     1     -45.096  59.358 -53.407  1.00  0.00     0.040 A 
HETATM   25  C   UNL     1     -45.610  60.106 -52.359  1.00  0.00     0.099 A 
HETATM   26  C   UNL     1     -45.627  59.617 -51.051  1.00  0.00     0.102 A 
HETATM   27  C   UNL     1     -45.132  58.334 -50.801  1.00  0.00     0.048 A 
BRANCH  25  28
HETATM   28  O   UNL     1     -46.107  61.348 -52.644  1.00  0.00    -0.358 OA
HETATM   29  H   UNL     1     -47.015  61.203 -52.974  1.00  0.00     0.218 HD
ENDBRANCH  25  28
BRANCH  26  30
HETATM   30  O   UNL     1     -46.154  60.472 -50.123  1.00  0.00    -0.349 OA
BRANCH  30  31
HETATM   31  C   UNL     1     -45.376  60.720 -48.952  1.00  0.00     0.171 C 
HETATM   32  C   UNL     1     -44.250  61.661 -49.339  1.00  0.00     0.034 C 
ENDBRANCH  30  31
ENDBRANCH  26  30
ENDBRANCH  21  22
ENDBRANCH   1  21
BRANCH   5  33
HETATM   33  S   UNL     1     -39.715  53.566 -50.765  1.00  0.00    -0.104 SA
BRANCH  33  34
HETATM   34  C   UNL     1     -39.717  51.983 -51.594  1.00  0.00     0.093 A 
HETATM   35  N   UNL     1     -39.821  50.875 -50.823  1.00  0.00    -0.254 NA
HETATM   36  C   UNL     1     -39.823  49.682 -51.466  1.00  0.00     0.118 A 
HETATM   37  C   UNL     1     -39.700  49.544 -52.838  1.00  0.00     0.019 A 
HETATM   38  C   UNL     1     -39.574  50.695 -53.603  1.00  0.00     0.004 A 
HETATM   39  C   UNL     1     -39.585  51.938 -52.975  1.00  0.00     0.039 A 
ENDBRANCH  33  34
ENDBRANCH   5  33
TORSDOF 9
ENDMDL
MODEL 10
REMARK VINA RESULT:      -7.8      2.524      8.612
REMARK  9 active torsions:
REMARK  status: ('A' for Active; 'I' for Inactive)
REMARK    1  A    between atoms: C_2  and  O_3 
REMARK    2  A    between atoms: O_3  and  C_4 
REMARK    3  A    between atoms: C_5  and  O_6 
REMARK    4  A    between atoms: C_9  and  C_10 
REMARK    5  A    between atoms: C_10  and  N_11 
REMARK    6  A    between atoms: C_13  and  C_14 
REMARK       I    between atoms: C_14  and  N_15 
REMARK    7  A    between atoms: N_15  and  C_16 
REMARK    8  A    between atoms: C_28  and  S_29 
REMARK    9  A    between atoms: S_29  and  C_30 
ROOT
HETATM    1  N   UNL     1     -44.718  57.115 -52.661  1.00  0.00    -0.053 N 
HETATM    2  H   UNL     1     -45.542  56.519 -52.509  1.00  0.00     0.281 HD
HETATM    3  C   UNL     1     -44.352  57.670 -51.276  1.00  0.00     0.281 C 
HETATM    4  C   UNL     1     -42.871  57.972 -51.392  1.00  0.00     0.060 C 
HETATM    5  C   UNL     1     -42.318  56.896 -52.336  1.00  0.00     0.082 C 
HETATM    6  C   UNL     1     -43.535  56.245 -53.019  1.00  0.00     0.252 C 
ENDROOT
BRANCH   3   7
HETATM    7  C   UNL     1     -45.300  58.759 -50.748  1.00  0.00     0.253 C 
HETATM    8  N   UNL     1     -44.714  59.970 -50.436  1.00  0.00    -0.325 N 
HETATM    9  H   UNL     1     -43.742  60.127 -50.676  1.00  0.00     0.169 HD
HETATM   10  O   UNL     1     -46.482  58.467 -50.574  1.00  0.00    -0.271 OA
BRANCH   8  11
HETATM   11  C   UNL     1     -45.334  61.054 -49.763  1.00  0.00     0.037 A 
HETATM   12  C   UNL     1     -45.491  61.120 -48.373  1.00  0.00     0.062 A 
HETATM   13  C   UNL     1     -46.070  62.258 -47.767  1.00  0.00     0.077 A 
HETATM   14  C   UNL     1     -46.498  63.308 -48.576  1.00  0.00     0.035 A 
HETATM   15  N   UNL     1     -46.248  62.444 -46.408  1.00  0.00    -0.245 NA
HETATM   16  S   UNL     1     -47.154  64.548 -47.579  1.00  0.00    -0.073 SA
HETATM   17  C   UNL     1     -46.366  63.262 -49.971  1.00  0.00     0.023 A 
HETATM   18  C   UNL     1     -46.794  63.618 -46.181  1.00  0.00     0.072 A 
HETATM   19  C   UNL     1     -47.111  64.142 -44.824  1.00  0.00     0.079 C 
HETATM   20  C   UNL     1     -45.773  62.127 -50.544  1.00  0.00     0.031 A 
ENDBRANCH   8  11
ENDBRANCH   3   7
BRANCH   1  21
HETATM   21  C   UNL     1     -45.167  58.063 -53.762  1.00  0.00     0.274 C 
BRANCH  21  22
HETATM   22  C   UNL     1     -44.118  58.543 -54.731  1.00  0.00    -0.030 A 
HETATM   23  C   UNL     1     -43.478  59.778 -54.519  1.00  0.00     0.012 A 
HETATM   24  C   UNL     1     -42.516  60.243 -55.412  1.00  0.00     0.040 A 
HETATM   25  C   UNL     1     -42.191  59.475 -56.518  1.00  0.00     0.099 A 
HETATM   26  C   UNL     1     -42.803  58.243 -56.758  1.00  0.00     0.102 A 
HETATM   27  C   UNL     1     -43.748  57.766 -55.847  1.00  0.00     0.048 A 
BRANCH  25  28
HETATM   28  O   UNL     1     -41.245  59.961 -57.379  1.00  0.00    -0.358 OA
HETATM   29  H   UNL     1     -40.508  60.272 -56.817  1.00  0.00     0.218 HD
ENDBRANCH  25  28
BRANCH  26  30
HETATM   30  O   UNL     1     -42.389  57.605 -57.896  1.00  0.00    -0.349 OA
BRANCH  30  31
HETATM   31  C   UNL     1     -42.946  56.318 -58.159  1.00  0.00     0.171 C 
HETATM   32  C   UNL     1     -43.160  56.206 -59.657  1.00  0.00     0.034 C 
ENDBRANCH  30  31
ENDBRANCH  26  30
ENDBRANCH  21  22
ENDBRANCH   1  21
BRANCH   5  33
HETATM   33  S   UNL     1     -41.354  55.666 -51.380  1.00  0.00    -0.104 SA
BRANCH  33  34
HETATM   34  C   UNL     1     -40.888  54.537 -52.684  1.00  0.00     0.093 A 
HETATM   35  N   UNL     1     -40.814  53.221 -52.374  1.00  0.00    -0.254 NA
HETATM   36  C   UNL     1     -40.461  52.378 -53.373  1.00  0.00     0.118 A 
HETATM   37  C   UNL     1     -40.154  52.789 -54.659  1.00  0.00     0.019 A 
HETATM   38  C   UNL     1     -40.218  54.146 -54.945  1.00  0.00     0.004 A 
HETATM   39  C   UNL     1     -40.593  55.039 -53.944  1.00  0.00     0.039 A 
ENDBRANCH  33  34
ENDBRANCH   5  33
TORSDOF 9
ENDMDL
