MODEL 1
REMARK VINA RESULT:      -8.9      0.000      0.000
REMARK  4 active torsions:
REMARK  status: ('A' for Active; 'I' for Inactive)
REMARK    1  A    between atoms: O_2  and  C_3 
REMARK    2  A    between atoms: C_8  and  C_9 
REMARK    3  A    between atoms: N_11  and  C_12 
REMARK    4  A    between atoms: C_12  and  C_13 
ROOT
HETATM    1  C   UNL     1     -43.184  59.158 -60.276  1.00  0.00     0.069 A 
HETATM    2  C   UNL     1     -43.725  57.873 -60.235  1.00  0.00     0.056 A 
HETATM    3  C   UNL     1     -43.445  57.036 -59.152  1.00  0.00     0.063 A 
HETATM    4  C   UNL     1     -42.624  57.451 -58.102  1.00  0.00     0.074 A 
HETATM    5  N   UNL     1     -42.337  56.635 -56.994  1.00  0.00    -0.234 NA
HETATM    6  C   UNL     1     -42.866  55.456 -56.953  1.00  0.00     0.113 A 
HETATM    7  N   UNL     1     -43.688  54.973 -57.941  1.00  0.00    -0.310 N 
HETATM    8  C   UNL     1     -44.015  55.684 -59.069  1.00  0.00     0.259 A 
HETATM    9  O   UNL     1     -44.734  55.216 -59.942  1.00  0.00    -0.267 OA
HETATM   10  C   UNL     1     -42.077  58.734 -58.158  1.00  0.00     0.035 A 
HETATM   11  C   UNL     1     -42.354  59.585 -59.237  1.00  0.00     0.039 A 
HETATM   12  H   UNL     1     -44.082  54.044 -57.891  1.00  0.00     0.170 HD
ENDROOT
BRANCH   6  13
HETATM   13  C   UNL     1     -42.653  54.518 -55.789  1.00  0.00     0.082 C 
HETATM   14  C   UNL     1     -41.275  54.605 -55.147  1.00  0.00     0.139 C 
HETATM   15  N   UNL     1     -41.525  54.271 -53.768  1.00  0.00    -0.347 N 
HETATM   16  C   UNL     1     -42.849  54.421 -53.413  1.00  0.00     0.220 C 
HETATM   17  O   UNL     1     -43.337  54.265 -52.306  1.00  0.00    -0.273 OA
HETATM   18  C   UNL     1     -43.614  54.841 -54.641  1.00  0.00     0.117 C 
BRANCH  15  19
HETATM   19  C   UNL     1     -40.471  53.890 -52.848  1.00  0.00     0.164 C 
BRANCH  19  20
HETATM   20  C   UNL     1     -40.185  52.409 -52.915  1.00  0.00    -0.040 A 
HETATM   21  C   UNL     1     -39.765  51.704 -51.779  1.00  0.00     0.009 A 
HETATM   22  C   UNL     1     -39.498  50.336 -51.856  1.00  0.00     0.001 A 
HETATM   23  C   UNL     1     -39.645  49.660 -53.066  1.00  0.00     0.000 A 
HETATM   24  C   UNL     1     -40.062  50.351 -54.203  1.00  0.00     0.001 A 
HETATM   25  C   UNL     1     -40.332  51.718 -54.128  1.00  0.00     0.009 A 
ENDBRANCH  19  20
ENDBRANCH  15  19
ENDBRANCH   6  13
BRANCH   1  26
HETATM   26  O   UNL     1     -43.534  59.890 -61.376  1.00  0.00    -0.356 OA
HETATM   27  C   UNL     1     -42.549  60.766 -61.909  1.00  0.00     0.210 C 
ENDBRANCH   1  26
TORSDOF 4
ENDMDL
MODEL 2
REMARK VINA RESULT:      -8.6      2.513      8.621
REMARK  4 active torsions:
REMARK  status: ('A' for Active; 'I' for Inactive)
REMARK    1  A    between atoms: O_2  and  C_3 
REMARK    2  A    between atoms: C_8  and  C_9 
REMARK    3  A    between atoms: N_11  and  C_12 
REMARK    4  A    between atoms: C_12  and  C_13 
ROOT
HETATM    1  C   UNL     1     -39.570  51.296 -52.244  1.00  0.00     0.069 A 
HETATM    2  C   UNL     1     -39.987  52.441 -51.564  1.00  0.00     0.056 A 
HETATM    3  C   UNL     1     -40.533  53.512 -52.276  1.00  0.00     0.063 A 
HETATM    4  C   UNL     1     -40.668  53.471 -53.665  1.00  0.00     0.074 A 
HETATM    5  N   UNL     1     -41.226  54.527 -54.405  1.00  0.00    -0.234 NA
HETATM    6  C   UNL     1     -41.635  55.572 -53.762  1.00  0.00     0.113 A 
HETATM    7  N   UNL     1     -41.543  55.690 -52.397  1.00  0.00    -0.310 N 
HETATM    8  C   UNL     1     -40.999  54.724 -51.588  1.00  0.00     0.259 A 
HETATM    9  O   UNL     1     -40.911  54.869 -50.375  1.00  0.00    -0.267 OA
HETATM   10  C   UNL     1     -40.238  52.326 -54.337  1.00  0.00     0.035 A 
HETATM   11  C   UNL     1     -39.692  51.243 -53.634  1.00  0.00     0.039 A 
HETATM   12  H   UNL     1     -41.859  56.522 -51.918  1.00  0.00     0.170 HD
ENDROOT
BRANCH   6  13
HETATM   13  C   UNL     1     -42.285  56.744 -54.458  1.00  0.00     0.082 C 
HETATM   14  C   UNL     1     -42.155  56.733 -55.975  1.00  0.00     0.139 C 
HETATM   15  N   UNL     1     -43.355  57.394 -56.420  1.00  0.00    -0.347 N 
HETATM   16  C   UNL     1     -44.347  57.405 -55.461  1.00  0.00     0.220 C 
HETATM   17  O   UNL     1     -45.479  57.844 -55.578  1.00  0.00    -0.273 OA
HETATM   18  C   UNL     1     -43.798  56.753 -54.220  1.00  0.00     0.117 C 
BRANCH  15  19
HETATM   19  C   UNL     1     -43.511  57.921 -57.762  1.00  0.00     0.164 C 
BRANCH  19  20
HETATM   20  C   UNL     1     -44.205  56.934 -58.668  1.00  0.00    -0.040 A 
HETATM   21  C   UNL     1     -45.495  57.186 -59.155  1.00  0.00     0.009 A 
HETATM   22  C   UNL     1     -46.129  56.261 -59.987  1.00  0.00     0.001 A 
HETATM   23  C   UNL     1     -45.484  55.077 -60.339  1.00  0.00     0.000 A 
HETATM   24  C   UNL     1     -44.201  54.815 -59.860  1.00  0.00     0.001 A 
HETATM   25  C   UNL     1     -43.564  55.739 -59.030  1.00  0.00     0.009 A 
ENDBRANCH  19  20
ENDBRANCH  15  19
ENDBRANCH   6  13
BRANCH   1  26
HETATM   26  O   UNL     1     -39.062  50.310 -51.444  1.00  0.00    -0.356 OA
HETATM   27  C   UNL     1     -39.925  49.783 -50.444  1.00  0.00     0.210 C 
ENDBRANCH   1  26
TORSDOF 4
ENDMDL
MODEL 3
REMARK VINA RESULT:      -8.2      4.216      5.362
REMARK  4 active torsions:
REMARK  status: ('A' for Active; 'I' for Inactive)
REMARK    1  A    between atoms: O_2  and  C_3 
REMARK    2  A    between atoms: C_8  and  C_9 
REMARK    3  A    between atoms: N_11  and  C_12 
REMARK    4  A    between atoms: C_12  and  C_13 
ROOT
HETATM    1  C   UNL     1     -45.176  60.144 -54.168  1.00  0.00     0.069 A 
HETATM    2  C   UNL     1     -45.406  59.608 -52.900  1.00  0.00     0.056 A 
HETATM    3  C   UNL     1     -44.789  58.411 -52.530  1.00  0.00     0.063 A 
HETATM    4  C   UNL     1     -43.945  57.723 -53.406  1.00  0.00     0.074 A 
HETATM    5  N   UNL     1     -43.301  56.525 -53.055  1.00  0.00    -0.234 NA
HETATM    6  C   UNL     1     -43.499  56.052 -51.868  1.00  0.00     0.113 A 
HETATM    7  N   UNL     1     -44.309  56.667 -50.946  1.00  0.00    -0.310 N 
HETATM    8  C   UNL     1     -44.995  57.829 -51.196  1.00  0.00     0.259 A 
HETATM    9  O   UNL     1     -45.727  58.341 -50.359  1.00  0.00    -0.267 OA
HETATM   10  C   UNL     1     -43.731  58.262 -54.675  1.00  0.00     0.035 A 
HETATM   11  C   UNL     1     -44.341  59.465 -55.057  1.00  0.00     0.039 A 
HETATM   12  H   UNL     1     -44.457  56.272 -50.028  1.00  0.00     0.170 HD
ENDROOT
BRANCH   6  13
HETATM   13  C   UNL     1     -42.824  54.792 -51.380  1.00  0.00     0.082 C 
HETATM   14  C   UNL     1     -41.419  54.574 -51.924  1.00  0.00     0.139 C 
HETATM   15  N   UNL     1     -40.754  53.861 -50.863  1.00  0.00    -0.347 N 
HETATM   16  C   UNL     1     -41.388  54.001 -49.646  1.00  0.00     0.220 C 
HETATM   17  O   UNL     1     -41.022  53.557 -48.570  1.00  0.00    -0.273 OA
HETATM   18  C   UNL     1     -42.627  54.829 -49.861  1.00  0.00     0.117 C 
BRANCH  15  19
HETATM   19  C   UNL     1     -39.512  53.138 -51.059  1.00  0.00     0.164 C 
BRANCH  19  20
HETATM   20  C   UNL     1     -39.679  52.005 -52.041  1.00  0.00    -0.040 A 
HETATM   21  C   UNL     1     -39.975  52.257 -53.388  1.00  0.00     0.009 A 
HETATM   22  C   UNL     1     -40.134  51.199 -54.286  1.00  0.00     0.001 A 
HETATM   23  C   UNL     1     -40.001  49.882 -53.848  1.00  0.00     0.000 A 
HETATM   24  C   UNL     1     -39.708  49.620 -52.511  1.00  0.00     0.001 A 
HETATM   25  C   UNL     1     -39.547  50.675 -51.612  1.00  0.00     0.009 A 
ENDBRANCH  19  20
ENDBRANCH  15  19
ENDBRANCH   6  13
BRANCH   1  26
HETATM   26  O   UNL     1     -45.823  61.323 -54.415  1.00  0.00    -0.356 OA
HETATM   27  C   UNL     1     -46.130  62.138 -53.291  1.00  0.00     0.210 C 
ENDBRANCH   1  26
TORSDOF 4
ENDMDL
MODEL 4
REMARK VINA RESULT:      -8.2      2.112      2.923
REMARK  4 active torsions:
REMARK  status: ('A' for Active; 'I' for Inactive)
REMARK    1  A    between atoms: O_2  and  C_3 
REMARK    2  A    between atoms: C_8  and  C_9 
REMARK    3  A    between atoms: N_11  and  C_12 
REMARK    4  A    between atoms: C_12  and  C_13 
ROOT
HETATM    1  C   UNL     1     -42.217  60.632 -58.453  1.00  0.00     0.069 A 
HETATM    2  C   UNL     1     -42.109  60.528 -57.066  1.00  0.00     0.056 A 
HETATM    3  C   UNL     1     -42.115  59.269 -56.461  1.00  0.00     0.063 A 
HETATM    4  C   UNL     1     -42.235  58.099 -57.213  1.00  0.00     0.074 A 
HETATM    5  N   UNL     1     -42.230  56.819 -56.632  1.00  0.00    -0.234 NA
HETATM    6  C   UNL     1     -42.102  56.734 -55.348  1.00  0.00     0.113 A 
HETATM    7  N   UNL     1     -41.973  57.834 -54.537  1.00  0.00    -0.310 N 
HETATM    8  C   UNL     1     -41.984  59.125 -55.004  1.00  0.00     0.259 A 
HETATM    9  O   UNL     1     -41.889  60.086 -54.252  1.00  0.00    -0.267 OA
HETATM   10  C   UNL     1     -42.355  58.213 -58.598  1.00  0.00     0.035 A 
HETATM   11  C   UNL     1     -42.346  59.470 -59.218  1.00  0.00     0.039 A 
HETATM   12  H   UNL     1     -41.885  57.743 -53.534  1.00  0.00     0.170 HD
ENDROOT
BRANCH   6  13
HETATM   13  C   UNL     1     -42.045  55.406 -54.630  1.00  0.00     0.082 C 
HETATM   14  C   UNL     1     -40.791  55.190 -53.794  1.00  0.00     0.139 C 
HETATM   15  N   UNL     1     -41.246  54.348 -52.717  1.00  0.00    -0.347 N 
HETATM   16  C   UNL     1     -42.614  54.388 -52.549  1.00  0.00     0.220 C 
HETATM   17  O   UNL     1     -43.266  53.823 -51.686  1.00  0.00    -0.273 OA
HETATM   18  C   UNL     1     -43.187  55.281 -53.617  1.00  0.00     0.117 C 
BRANCH  15  19
HETATM   19  C   UNL     1     -40.339  53.602 -51.866  1.00  0.00     0.164 C 
BRANCH  19  20
HETATM   20  C   UNL     1     -40.091  52.213 -52.404  1.00  0.00    -0.040 A 
HETATM   21  C   UNL     1     -40.239  51.932 -53.769  1.00  0.00     0.009 A 
HETATM   22  C   UNL     1     -40.013  50.642 -54.253  1.00  0.00     0.001 A 
HETATM   23  C   UNL     1     -39.639  49.622 -53.380  1.00  0.00     0.000 A 
HETATM   24  C   UNL     1     -39.490  49.889 -52.020  1.00  0.00     0.001 A 
HETATM   25  C   UNL     1     -39.713  51.178 -51.534  1.00  0.00     0.009 A 
ENDBRANCH  19  20
ENDBRANCH  15  19
ENDBRANCH   6  13
BRANCH   1  26
HETATM   26  O   UNL     1     -42.189  61.911 -58.934  1.00  0.00    -0.356 OA
HETATM   27  C   UNL     1     -40.989  62.337 -59.567  1.00  0.00     0.210 C 
ENDBRANCH   1  26
TORSDOF 4
ENDMDL
MODEL 5
REMARK VINA RESULT:      -8.1      5.713      7.370
REMARK  4 active torsions:
REMARK  status: ('A' for Active; 'I' for Inactive)
REMARK    1  A    between atoms: O_2  and  C_3 
REMARK    2  A    between atoms: C_8  and  C_9 
REMARK    3  A    between atoms: N_11  and  C_12 
REMARK    4  A    between atoms: C_12  and  C_13 
ROOT
HETATM    1  C   UNL     1     -45.005  62.772 -49.714  1.00  0.00     0.069 A 
HETATM    2  C   UNL     1     -45.558  61.508 -49.924  1.00  0.00     0.056 A 
HETATM    3  C   UNL     1     -44.752  60.464 -50.384  1.00  0.00     0.063 A 
HETATM    4  C   UNL     1     -43.394  60.654 -50.650  1.00  0.00     0.074 A 
HETATM    5  N   UNL     1     -42.557  59.619 -51.100  1.00  0.00    -0.234 NA
HETATM    6  C   UNL     1     -43.074  58.445 -51.264  1.00  0.00     0.113 A 
HETATM    7  N   UNL     1     -44.398  58.173 -51.021  1.00  0.00    -0.310 N 
HETATM    8  C   UNL     1     -45.299  59.117 -50.596  1.00  0.00     0.259 A 
HETATM    9  O   UNL     1     -46.479  58.847 -50.408  1.00  0.00    -0.267 OA
HETATM   10  C   UNL     1     -42.853  61.924 -50.449  1.00  0.00     0.035 A 
HETATM   11  C   UNL     1     -43.650  62.979 -49.984  1.00  0.00     0.039 A 
HETATM   12  H   UNL     1     -44.782  57.250 -51.167  1.00  0.00     0.170 HD
ENDROOT
BRANCH   6  13
HETATM   13  C   UNL     1     -42.253  57.257 -51.706  1.00  0.00     0.082 C 
HETATM   14  C   UNL     1     -43.069  56.068 -52.193  1.00  0.00     0.139 C 
HETATM   15  N   UNL     1     -42.214  55.454 -53.177  1.00  0.00    -0.347 N 
HETATM   16  C   UNL     1     -41.241  56.311 -53.649  1.00  0.00     0.220 C 
HETATM   17  O   UNL     1     -40.419  56.082 -54.520  1.00  0.00    -0.273 OA
HETATM   18  C   UNL     1     -41.373  57.615 -52.908  1.00  0.00     0.117 C 
BRANCH  15  19
HETATM   19  C   UNL     1     -42.417  54.102 -53.662  1.00  0.00     0.164 C 
BRANCH  19  20
HETATM   20  C   UNL     1     -41.314  53.179 -53.206  1.00  0.00    -0.040 A 
HETATM   21  C   UNL     1     -40.676  52.317 -54.109  1.00  0.00     0.009 A 
HETATM   22  C   UNL     1     -39.662  51.462 -53.673  1.00  0.00     0.001 A 
HETATM   23  C   UNL     1     -39.276  51.459 -52.333  1.00  0.00     0.000 A 
HETATM   24  C   UNL     1     -39.903  52.312 -51.426  1.00  0.00     0.001 A 
HETATM   25  C   UNL     1     -40.916  53.168 -51.859  1.00  0.00     0.009 A 
ENDBRANCH  19  20
ENDBRANCH  15  19
ENDBRANCH   6  13
BRANCH   1  26
HETATM   26  O   UNL     1     -45.885  63.711 -49.254  1.00  0.00    -0.356 OA
HETATM   27  C   UNL     1     -46.734  63.328 -48.179  1.00  0.00     0.210 C 
ENDBRANCH   1  26
TORSDOF 4
ENDMDL
MODEL 6
REMARK VINA RESULT:      -7.9     15.033     18.268
REMARK  4 active torsions:
REMARK  status: ('A' for Active; 'I' for Inactive)
REMARK    1  A    between atoms: O_2  and  C_3 
REMARK    2  A    between atoms: C_8  and  C_9 
REMARK    3  A    between atoms: N_11  and  C_12 
REMARK    4  A    between atoms: C_12  and  C_13 
ROOT
HETATM    1  C   UNL     1     -32.242  40.005 -50.256  1.00  0.00     0.069 A 
HETATM    2  C   UNL     1     -31.974  40.111 -51.621  1.00  0.00     0.056 A 
HETATM    3  C   UNL     1     -32.979  40.532 -52.496  1.00  0.00     0.063 A 
HETATM    4  C   UNL     1     -34.260  40.847 -52.038  1.00  0.00     0.074 A 
HETATM    5  N   UNL     1     -35.285  41.287 -52.893  1.00  0.00    -0.234 NA
HETATM    6  C   UNL     1     -35.017  41.408 -54.152  1.00  0.00     0.113 A 
HETATM    7  N   UNL     1     -33.783  41.124 -54.683  1.00  0.00    -0.310 N 
HETATM    8  C   UNL     1     -32.724  40.673 -53.936  1.00  0.00     0.259 A 
HETATM    9  O   UNL     1     -31.641  40.407 -54.444  1.00  0.00    -0.267 OA
HETATM   10  C   UNL     1     -34.522  40.727 -50.673  1.00  0.00     0.035 A 
HETATM   11  C   UNL     1     -33.521  40.309 -49.784  1.00  0.00     0.039 A 
HETATM   12  H   UNL     1     -33.602  41.216 -55.673  1.00  0.00     0.170 HD
ENDROOT
BRANCH   6  13
HETATM   13  C   UNL     1     -36.036  41.911 -55.148  1.00  0.00     0.082 C 
HETATM   14  C   UNL     1     -35.577  41.873 -56.599  1.00  0.00     0.139 C 
HETATM   15  N   UNL     1     -36.799  41.657 -57.332  1.00  0.00    -0.347 N 
HETATM   16  C   UNL     1     -37.810  41.143 -56.547  1.00  0.00     0.220 C 
HETATM   17  O   UNL     1     -38.927  40.812 -56.908  1.00  0.00    -0.273 OA
HETATM   18  C   UNL     1     -37.292  41.035 -55.137  1.00  0.00     0.117 C 
BRANCH  15  19
HETATM   19  C   UNL     1     -36.912  41.892 -58.759  1.00  0.00     0.164 C 
BRANCH  19  20
HETATM   20  C   UNL     1     -36.872  40.600 -59.538  1.00  0.00    -0.040 A 
HETATM   21  C   UNL     1     -36.099  39.517 -59.097  1.00  0.00     0.009 A 
HETATM   22  C   UNL     1     -36.065  38.329 -59.831  1.00  0.00     0.001 A 
HETATM   23  C   UNL     1     -36.800  38.212 -61.009  1.00  0.00     0.000 A 
HETATM   24  C   UNL     1     -37.572  39.282 -61.457  1.00  0.00     0.001 A 
HETATM   25  C   UNL     1     -37.610  40.470 -60.725  1.00  0.00     0.009 A 
ENDBRANCH  19  20
ENDBRANCH  15  19
ENDBRANCH   6  13
BRANCH   1  26
HETATM   26  O   UNL     1     -31.183  39.593 -49.497  1.00  0.00    -0.356 OA
HETATM   27  C   UNL     1     -31.338  39.657 -48.084  1.00  0.00     0.210 C 
ENDBRANCH   1  26
TORSDOF 4
ENDMDL
MODEL 7
REMARK VINA RESULT:      -7.9      2.114      8.965
REMARK  4 active torsions:
REMARK  status: ('A' for Active; 'I' for Inactive)
REMARK    1  A    between atoms: O_2  and  C_3 
REMARK    2  A    between atoms: C_8  and  C_9 
REMARK    3  A    between atoms: N_11  and  C_12 
REMARK    4  A    between atoms: C_12  and  C_13 
ROOT
HETATM    1  C   UNL     1     -39.663  51.332 -52.240  1.00  0.00     0.069 A 
HETATM    2  C   UNL     1     -40.108  52.567 -51.765  1.00  0.00     0.056 A 
HETATM    3  C   UNL     1     -40.546  53.540 -52.666  1.00  0.00     0.063 A 
HETATM    4  C   UNL     1     -40.543  53.314 -54.044  1.00  0.00     0.074 A 
HETATM    5  N   UNL     1     -40.991  54.269 -54.971  1.00  0.00    -0.234 NA
HETATM    6  C   UNL     1     -41.428  55.399 -54.519  1.00  0.00     0.113 A 
HETATM    7  N   UNL     1     -41.469  55.700 -53.180  1.00  0.00    -0.310 N 
HETATM    8  C   UNL     1     -41.040  54.843 -52.198  1.00  0.00     0.259 A 
HETATM    9  O   UNL     1     -41.069  55.150 -51.013  1.00  0.00    -0.267 OA
HETATM   10  C   UNL     1     -40.085  52.081 -54.510  1.00  0.00     0.035 A 
HETATM   11  C   UNL     1     -39.647  51.094 -53.616  1.00  0.00     0.039 A 
HETATM   12  H   UNL     1     -41.805  56.595 -52.851  1.00  0.00     0.170 HD
ENDROOT
BRANCH   6  13
HETATM   13  C   UNL     1     -41.968  56.477 -55.428  1.00  0.00     0.082 C 
HETATM   14  C   UNL     1     -42.630  55.963 -56.699  1.00  0.00     0.139 C 
HETATM   15  N   UNL     1     -43.639  56.954 -56.977  1.00  0.00    -0.347 N 
HETATM   16  C   UNL     1     -43.958  57.716 -55.873  1.00  0.00     0.220 C 
HETATM   17  O   UNL     1     -44.810  58.586 -55.800  1.00  0.00    -0.273 OA
HETATM   18  C   UNL     1     -43.075  57.276 -54.735  1.00  0.00     0.117 C 
BRANCH  15  19
HETATM   19  C   UNL     1     -44.289  57.072 -58.268  1.00  0.00     0.164 C 
BRANCH  19  20
HETATM   20  C   UNL     1     -43.585  58.071 -59.153  1.00  0.00    -0.040 A 
HETATM   21  C   UNL     1     -42.465  57.699 -59.910  1.00  0.00     0.009 A 
HETATM   22  C   UNL     1     -41.818  58.634 -60.720  1.00  0.00     0.001 A 
HETATM   23  C   UNL     1     -42.280  59.947 -60.782  1.00  0.00     0.000 A 
HETATM   24  C   UNL     1     -43.392  60.329 -60.033  1.00  0.00     0.001 A 
HETATM   25  C   UNL     1     -44.042  59.396 -59.224  1.00  0.00     0.009 A 
ENDBRANCH  19  20
ENDBRANCH  15  19
ENDBRANCH   6  13
BRANCH   1  26
HETATM   26  O   UNL     1     -39.269  50.455 -51.268  1.00  0.00    -0.356 OA
HETATM   27  C   UNL     1     -40.167  50.246 -50.185  1.00  0.00     0.210 C 
ENDBRANCH   1  26
TORSDOF 4
ENDMDL
MODEL 8
REMARK VINA RESULT:      -7.8      5.071      9.064
REMARK  4 active torsions:
REMARK  status: ('A' for Active; 'I' for Inactive)
REMARK    1  A    between atoms: O_2  and  C_3 
REMARK    2  A    between atoms: C_8  and  C_9 
REMARK    3  A    between atoms: N_11  and  C_12 
REMARK    4  A    between atoms: C_12  and  C_13 
ROOT
HETATM    1  C   UNL     1     -39.836  51.907 -53.151  1.00  0.00     0.069 A 
HETATM    2  C   UNL     1     -40.669  52.718 -53.922  1.00  0.00     0.056 A 
HETATM    3  C   UNL     1     -41.279  53.835 -53.346  1.00  0.00     0.063 A 
HETATM    4  C   UNL     1     -41.081  54.162 -52.002  1.00  0.00     0.074 A 
HETATM    5  N   UNL     1     -41.670  55.287 -51.401  1.00  0.00    -0.234 NA
HETATM    6  C   UNL     1     -42.419  56.047 -52.132  1.00  0.00     0.113 A 
HETATM    7  N   UNL     1     -42.660  55.799 -53.460  1.00  0.00    -0.310 N 
HETATM    8  C   UNL     1     -42.147  54.720 -54.135  1.00  0.00     0.259 A 
HETATM    9  O   UNL     1     -42.400  54.515 -55.316  1.00  0.00    -0.267 OA
HETATM   10  C   UNL     1     -40.255  53.338 -51.237  1.00  0.00     0.035 A 
HETATM   11  C   UNL     1     -39.634  52.217 -51.805  1.00  0.00     0.039 A 
HETATM   12  H   UNL     1     -43.258  56.402 -54.008  1.00  0.00     0.170 HD
ENDROOT
BRANCH   6  13
HETATM   13  C   UNL     1     -43.066  57.300 -51.592  1.00  0.00     0.082 C 
HETATM   14  C   UNL     1     -43.425  58.335 -52.649  1.00  0.00     0.139 C 
HETATM   15  N   UNL     1     -44.587  58.987 -52.100  1.00  0.00    -0.347 N 
HETATM   16  C   UNL     1     -45.210  58.237 -51.124  1.00  0.00     0.220 C 
HETATM   17  O   UNL     1     -46.239  58.512 -50.529  1.00  0.00    -0.273 OA
HETATM   18  C   UNL     1     -44.405  56.981 -50.921  1.00  0.00     0.117 C 
BRANCH  15  19
HETATM   19  C   UNL     1     -45.075  60.264 -52.585  1.00  0.00     0.164 C 
BRANCH  19  20
HETATM   20  C   UNL     1     -44.655  61.397 -51.682  1.00  0.00    -0.040 A 
HETATM   21  C   UNL     1     -45.560  62.405 -51.323  1.00  0.00     0.009 A 
HETATM   22  C   UNL     1     -45.157  63.453 -50.491  1.00  0.00     0.001 A 
HETATM   23  C   UNL     1     -43.848  63.505 -50.014  1.00  0.00     0.000 A 
HETATM   24  C   UNL     1     -42.940  62.508 -50.366  1.00  0.00     0.001 A 
HETATM   25  C   UNL     1     -43.340  61.459 -51.194  1.00  0.00     0.009 A 
ENDBRANCH  19  20
ENDBRANCH  15  19
ENDBRANCH   6  13
BRANCH   1  26
HETATM   26  O   UNL     1     -39.287  50.850 -53.823  1.00  0.00    -0.356 OA
HETATM   27  C   UNL     1     -40.188  49.952 -54.459  1.00  0.00     0.210 C 
ENDBRANCH   1  26
TORSDOF 4
ENDMDL
MODEL 9
REMARK VINA RESULT:      -7.7      5.440      9.950
REMARK  4 active torsions:
REMARK  status: ('A' for Active; 'I' for Inactive)
REMARK    1  A    between atoms: O_2  and  C_3 
REMARK    2  A    between atoms: C_8  and  C_9 
REMARK    3  A    between atoms: N_11  and  C_12 
REMARK    4  A    between atoms: C_12  and  C_13 
ROOT
HETATM    1  C   UNL     1     -39.845  52.046 -51.763  1.00  0.00     0.069 A 
HETATM    2  C   UNL     1     -40.230  52.755 -50.625  1.00  0.00     0.056 A 
HETATM    3  C   UNL     1     -40.930  53.956 -50.758  1.00  0.00     0.063 A 
HETATM    4  C   UNL     1     -41.254  54.476 -52.013  1.00  0.00     0.074 A 
HETATM    5  N   UNL     1     -41.971  55.674 -52.177  1.00  0.00    -0.234 NA
HETATM    6  C   UNL     1     -42.346  56.309 -51.115  1.00  0.00     0.113 A 
HETATM    7  N   UNL     1     -42.072  55.865 -49.845  1.00  0.00    -0.310 N 
HETATM    8  C   UNL     1     -41.366  54.718 -49.579  1.00  0.00     0.259 A 
HETATM    9  O   UNL     1     -41.120  54.360 -48.435  1.00  0.00    -0.267 OA
HETATM   10  C   UNL     1     -40.856  53.765 -53.146  1.00  0.00     0.035 A 
HETATM   11  C   UNL     1     -40.156  52.557 -53.025  1.00  0.00     0.039 A 
HETATM   12  H   UNL     1     -42.367  56.385 -49.030  1.00  0.00     0.170 HD
ENDROOT
BRANCH   6  13
HETATM   13  C   UNL     1     -43.153  57.584 -51.181  1.00  0.00     0.082 C 
HETATM   14  C   UNL     1     -42.326  58.852 -51.340  1.00  0.00     0.139 C 
HETATM   15  N   UNL     1     -43.193  59.727 -52.087  1.00  0.00    -0.347 N 
HETATM   16  C   UNL     1     -44.196  59.050 -52.749  1.00  0.00     0.220 C 
HETATM   17  O   UNL     1     -45.036  59.523 -53.496  1.00  0.00    -0.273 OA
HETATM   18  C   UNL     1     -44.071  57.588 -52.407  1.00  0.00     0.117 C 
BRANCH  15  19
HETATM   19  C   UNL     1     -42.975  61.158 -52.180  1.00  0.00     0.164 C 
BRANCH  19  20
HETATM   20  C   UNL     1     -43.451  61.873 -50.939  1.00  0.00    -0.040 A 
HETATM   21  C   UNL     1     -43.064  63.194 -50.676  1.00  0.00     0.009 A 
HETATM   22  C   UNL     1     -43.507  63.843 -49.521  1.00  0.00     0.001 A 
HETATM   23  C   UNL     1     -44.337  63.179 -48.619  1.00  0.00     0.000 A 
HETATM   24  C   UNL     1     -44.727  61.865 -48.871  1.00  0.00     0.001 A 
HETATM   25  C   UNL     1     -44.289  61.215 -50.025  1.00  0.00     0.009 A 
ENDBRANCH  19  20
ENDBRANCH  15  19
ENDBRANCH   6  13
BRANCH   1  26
HETATM   26  O   UNL     1     -39.175  50.881 -51.511  1.00  0.00    -0.356 OA
HETATM   27  C   UNL     1     -39.836  49.920 -50.697  1.00  0.00     0.210 C 
ENDBRANCH   1  26
TORSDOF 4
ENDMDL
MODEL 10
REMARK VINA RESULT:      -7.5      2.190      8.926
REMARK  4 active torsions:
REMARK  status: ('A' for Active; 'I' for Inactive)
REMARK    1  A    between atoms: O_2  and  C_3 
REMARK    2  A    between atoms: C_8  and  C_9 
REMARK    3  A    between atoms: N_11  and  C_12 
REMARK    4  A    between atoms: C_12  and  C_13 
ROOT
HETATM    1  C   UNL     1     -40.946  53.227 -51.042  1.00  0.00     0.069 A 
HETATM    2  C   UNL     1     -40.551  53.154 -52.378  1.00  0.00     0.056 A 
HETATM    3  C   UNL     1     -41.074  54.055 -53.308  1.00  0.00     0.063 A 
HETATM    4  C   UNL     1     -41.998  55.034 -52.935  1.00  0.00     0.074 A 
HETATM    5  N   UNL     1     -42.530  55.962 -53.846  1.00  0.00    -0.234 NA
HETATM    6  C   UNL     1     -42.136  55.903 -55.076  1.00  0.00     0.113 A 
HETATM    7  N   UNL     1     -41.228  54.975 -55.524  1.00  0.00    -0.310 N 
HETATM    8  C   UNL     1     -40.664  54.017 -54.718  1.00  0.00     0.259 A 
HETATM    9  O   UNL     1     -39.874  53.189 -55.154  1.00  0.00    -0.267 OA
HETATM   10  C   UNL     1     -42.396  55.092 -51.599  1.00  0.00     0.035 A 
HETATM   11  C   UNL     1     -41.875  54.196 -50.655  1.00  0.00     0.039 A 
HETATM   12  H   UNL     1     -40.943  54.941 -56.493  1.00  0.00     0.170 HD
ENDROOT
BRANCH   6  13
HETATM   13  C   UNL     1     -42.616  56.878 -56.124  1.00  0.00     0.082 C 
HETATM   14  C   UNL     1     -42.928  56.253 -57.477  1.00  0.00     0.139 C 
HETATM   15  N   UNL     1     -43.981  57.087 -57.998  1.00  0.00    -0.347 N 
HETATM   16  C   UNL     1     -44.620  57.817 -57.017  1.00  0.00     0.220 C 
HETATM   17  O   UNL     1     -45.578  58.559 -57.157  1.00  0.00    -0.273 OA
HETATM   18  C   UNL     1     -43.939  57.526 -55.705  1.00  0.00     0.117 C 
BRANCH  15  19
HETATM   19  C   UNL     1     -44.362  57.091 -59.397  1.00  0.00     0.164 C 
BRANCH  19  20
HETATM   20  C   UNL     1     -43.781  58.278 -60.126  1.00  0.00    -0.040 A 
HETATM   21  C   UNL     1     -44.607  59.301 -60.611  1.00  0.00     0.009 A 
HETATM   22  C   UNL     1     -44.058  60.391 -61.290  1.00  0.00     0.001 A 
HETATM   23  C   UNL     1     -42.681  60.468 -61.493  1.00  0.00     0.000 A 
HETATM   24  C   UNL     1     -41.850  59.456 -61.016  1.00  0.00     0.001 A 
HETATM   25  C   UNL     1     -42.395  58.367 -60.335  1.00  0.00     0.009 A 
ENDBRANCH  19  20
ENDBRANCH  15  19
ENDBRANCH   6  13
BRANCH   1  26
HETATM   26  O   UNL     1     -40.362  52.302 -50.222  1.00  0.00    -0.356 OA
HETATM   27  C   UNL     1     -39.907  51.098 -50.828  1.00  0.00     0.210 C 
ENDBRANCH   1  26
TORSDOF 4
ENDMDL
