MODEL 1
REMARK VINA RESULT:      -8.9      0.000      0.000
REMARK  4 active torsions:
REMARK  status: ('A' for Active; 'I' for Inactive)
REMARK    1  A    between atoms: C_10  and  C_11 
REMARK       I    between atoms: C_11  and  N_12 
REMARK    2  A    between atoms: N_12  and  C_13 
REMARK    3  A    between atoms: C_13  and  C_14 
REMARK    4  A    between atoms: C_16  and  C_17 
ROOT
HETATM    1  C   UNL     1     -41.346  56.101 -54.091  1.00  0.00     0.268 C 
HETATM    2  N   UNL     1     -42.556  56.274 -54.715  1.00  0.00    -0.351 N 
HETATM    3  O   UNL     1     -40.650  57.040 -53.715  1.00  0.00    -0.266 OA
HETATM    4  H   UNL     1     -43.108  55.470 -54.967  1.00  0.00     0.163 HD
ENDROOT
BRANCH   2   5
HETATM    5  C   UNL     1     -43.124  57.579 -54.956  1.00  0.00     0.161 C 
BRANCH   5   6
HETATM    6  C   UNL     1     -43.015  57.953 -56.412  1.00  0.00    -0.040 A 
HETATM    7  C   UNL     1     -43.832  57.339 -57.374  1.00  0.00     0.024 A 
HETATM    8  C   UNL     1     -43.726  57.671 -58.734  1.00  0.00     0.014 A 
HETATM    9  C   UNL     1     -42.789  58.638 -59.123  1.00  0.00     0.015 A 
HETATM   10  C   UNL     1     -41.972  59.256 -58.175  1.00  0.00     0.002 A 
HETATM   11  C   UNL     1     -42.082  58.914 -56.828  1.00  0.00     0.009 A 
BRANCH   8  12
HETATM   12  C   UNL     1     -44.576  57.009 -59.721  1.00  0.00     0.181 A 
HETATM   13  N   UNL     1     -44.156  56.039 -60.551  1.00  0.00    -0.152 NA
HETATM   14  N   UNL     1     -45.271  55.752 -61.236  1.00  0.00    -0.263 N 
HETATM   15  H   UNL     1     -45.243  55.031 -61.949  1.00  0.00     0.190 HD
HETATM   16  C   UNL     1     -46.320  56.522 -60.832  1.00  0.00     0.118 A 
HETATM   17  C   UNL     1     -47.674  56.423 -61.414  1.00  0.00     0.093 C 
HETATM   18  N   UNL     1     -45.910  57.328 -59.879  1.00  0.00    -0.212 NA
ENDBRANCH   8  12
ENDBRANCH   5   6
ENDBRANCH   2   5
BRANCH   1  19
HETATM   19  C   UNL     1     -40.939  54.727 -53.894  1.00  0.00     0.102 A 
HETATM   20  N   UNL     1     -40.682  54.241 -52.629  1.00  0.00    -0.351 N 
HETATM   21  C   UNL     1     -40.318  52.918 -52.669  1.00  0.00     0.043 A 
HETATM   22  H   UNL     1     -40.760  54.802 -51.791  1.00  0.00     0.166 HD
HETATM   23  C   UNL     1     -39.982  52.041 -51.631  1.00  0.00     0.037 A 
HETATM   24  C   UNL     1     -40.333  52.533 -54.007  1.00  0.00    -0.007 A 
HETATM   25  C   UNL     1     -39.639  50.722 -51.969  1.00  0.00    -0.060 A 
HETATM   26  C   UNL     1     -39.289  49.732 -50.895  1.00  0.00     0.048 C 
HETATM   27  C   UNL     1     -39.653  50.316 -53.308  1.00  0.00     0.007 A 
HETATM   28  C   UNL     1     -39.994  51.207 -54.333  1.00  0.00     0.014 A 
HETATM   29  C   UNL     1     -40.723  53.674 -54.766  1.00  0.00     0.049 A 
ENDBRANCH   1  19
TORSDOF 4
ENDMDL
MODEL 2
REMARK VINA RESULT:      -8.9      2.355      3.399
REMARK  4 active torsions:
REMARK  status: ('A' for Active; 'I' for Inactive)
REMARK    1  A    between atoms: C_10  and  C_11 
REMARK       I    between atoms: C_11  and  N_12 
REMARK    2  A    between atoms: N_12  and  C_13 
REMARK    3  A    between atoms: C_13  and  C_14 
REMARK    4  A    between atoms: C_16  and  C_17 
ROOT
HETATM    1  C   UNL     1     -41.100  55.855 -54.460  1.00  0.00     0.268 C 
HETATM    2  N   UNL     1     -41.814  56.043 -55.616  1.00  0.00    -0.351 N 
HETATM    3  O   UNL     1     -40.778  56.779 -53.719  1.00  0.00    -0.266 OA
HETATM    4  H   UNL     1     -42.090  55.246 -56.169  1.00  0.00     0.163 HD
ENDROOT
BRANCH   2   5
HETATM    5  C   UNL     1     -42.270  57.345 -56.043  1.00  0.00     0.161 C 
BRANCH   5   6
HETATM    6  C   UNL     1     -42.432  57.394 -57.540  1.00  0.00    -0.040 A 
HETATM    7  C   UNL     1     -42.084  58.547 -58.262  1.00  0.00     0.024 A 
HETATM    8  C   UNL     1     -42.246  58.607 -59.656  1.00  0.00     0.014 A 
HETATM    9  C   UNL     1     -42.760  57.487 -60.325  1.00  0.00     0.015 A 
HETATM   10  C   UNL     1     -43.109  56.335 -59.618  1.00  0.00     0.002 A 
HETATM   11  C   UNL     1     -42.949  56.290 -58.234  1.00  0.00     0.009 A 
BRANCH   8  12
HETATM   12  C   UNL     1     -41.892  59.821 -60.386  1.00  0.00     0.181 A 
HETATM   13  N   UNL     1     -41.882  59.922 -61.726  1.00  0.00    -0.152 NA
HETATM   14  N   UNL     1     -41.515  61.197 -61.910  1.00  0.00    -0.263 N 
HETATM   15  H   UNL     1     -41.427  61.556 -62.854  1.00  0.00     0.190 HD
HETATM   16  C   UNL     1     -41.310  61.836 -60.724  1.00  0.00     0.118 A 
HETATM   17  C   UNL     1     -40.896  63.251 -60.623  1.00  0.00     0.093 C 
HETATM   18  N   UNL     1     -41.538  60.991 -59.745  1.00  0.00    -0.212 NA
ENDBRANCH   8  12
ENDBRANCH   5   6
ENDBRANCH   2   5
BRANCH   1  19
HETATM   19  C   UNL     1     -40.753  54.484 -54.160  1.00  0.00     0.102 A 
HETATM   20  N   UNL     1     -40.523  54.081 -52.861  1.00  0.00    -0.351 N 
HETATM   21  C   UNL     1     -40.215  52.744 -52.801  1.00  0.00     0.043 A 
HETATM   22  H   UNL     1     -40.581  54.705 -52.066  1.00  0.00     0.166 HD
HETATM   23  C   UNL     1     -39.921  51.933 -51.698  1.00  0.00     0.037 A 
HETATM   24  C   UNL     1     -40.240  52.264 -54.107  1.00  0.00    -0.007 A 
HETATM   25  C   UNL     1     -39.633  50.580 -51.936  1.00  0.00    -0.060 A 
HETATM   26  C   UNL     1     -39.331  49.657 -50.790  1.00  0.00     0.048 C 
HETATM   27  C   UNL     1     -39.658  50.077 -53.242  1.00  0.00     0.007 A 
HETATM   28  C   UNL     1     -39.955  50.904 -54.332  1.00  0.00     0.014 A 
HETATM   29  C   UNL     1     -40.577  53.361 -54.950  1.00  0.00     0.049 A 
ENDBRANCH   1  19
TORSDOF 4
ENDMDL
MODEL 3
REMARK VINA RESULT:      -8.8      1.487      2.144
REMARK  4 active torsions:
REMARK  status: ('A' for Active; 'I' for Inactive)
REMARK    1  A    between atoms: C_10  and  C_11 
REMARK       I    between atoms: C_11  and  N_12 
REMARK    2  A    between atoms: N_12  and  C_13 
REMARK    3  A    between atoms: C_13  and  C_14 
REMARK    4  A    between atoms: C_16  and  C_17 
ROOT
HETATM    1  C   UNL     1     -41.929  56.674 -52.874  1.00  0.00     0.268 C 
HETATM    2  N   UNL     1     -41.297  57.488 -53.779  1.00  0.00    -0.351 N 
HETATM    3  O   UNL     1     -42.906  57.033 -52.224  1.00  0.00    -0.266 OA
HETATM    4  H   UNL     1     -40.523  57.132 -54.318  1.00  0.00     0.163 HD
ENDROOT
BRANCH   2   5
HETATM    5  C   UNL     1     -41.749  58.830 -54.063  1.00  0.00     0.161 C 
BRANCH   5   6
HETATM    6  C   UNL     1     -42.148  58.970 -55.509  1.00  0.00    -0.040 A 
HETATM    7  C   UNL     1     -42.638  57.869 -56.228  1.00  0.00     0.024 A 
HETATM    8  C   UNL     1     -42.998  57.988 -57.581  1.00  0.00     0.014 A 
HETATM    9  C   UNL     1     -42.865  59.234 -58.208  1.00  0.00     0.015 A 
HETATM   10  C   UNL     1     -42.378  60.337 -57.503  1.00  0.00     0.002 A 
HETATM   11  C   UNL     1     -42.019  60.204 -56.163  1.00  0.00     0.009 A 
BRANCH   8  12
HETATM   12  C   UNL     1     -43.493  56.826 -58.315  1.00  0.00     0.181 A 
HETATM   13  N   UNL     1     -43.402  55.559 -57.875  1.00  0.00    -0.152 NA
HETATM   14  N   UNL     1     -43.991  54.875 -58.864  1.00  0.00    -0.263 N 
HETATM   15  H   UNL     1     -44.067  53.866 -58.793  1.00  0.00     0.190 HD
HETATM   16  C   UNL     1     -44.417  55.700 -59.862  1.00  0.00     0.118 A 
HETATM   17  C   UNL     1     -45.101  55.221 -61.080  1.00  0.00     0.093 C 
HETATM   18  N   UNL     1     -44.113  56.938 -59.543  1.00  0.00    -0.212 NA
ENDBRANCH   8  12
ENDBRANCH   5   6
ENDBRANCH   2   5
BRANCH   1  19
HETATM   19  C   UNL     1     -41.370  55.347 -52.735  1.00  0.00     0.102 A 
HETATM   20  N   UNL     1     -41.258  54.510 -53.826  1.00  0.00    -0.351 N 
HETATM   21  C   UNL     1     -40.699  53.306 -53.475  1.00  0.00     0.043 A 
HETATM   22  H   UNL     1     -41.554  54.769 -54.758  1.00  0.00     0.166 HD
HETATM   23  C   UNL     1     -40.401  52.185 -54.258  1.00  0.00     0.037 A 
HETATM   24  C   UNL     1     -40.444  53.362 -52.108  1.00  0.00    -0.007 A 
HETATM   25  C   UNL     1     -39.828  51.072 -53.623  1.00  0.00    -0.060 A 
HETATM   26  C   UNL     1     -39.468  49.849 -54.416  1.00  0.00     0.048 C 
HETATM   27  C   UNL     1     -39.560  51.111 -52.250  1.00  0.00     0.007 A 
HETATM   28  C   UNL     1     -39.865  52.242 -51.482  1.00  0.00     0.014 A 
HETATM   29  C   UNL     1     -40.868  54.644 -51.654  1.00  0.00     0.049 A 
ENDBRANCH   1  19
TORSDOF 4
ENDMDL
MODEL 4
REMARK VINA RESULT:      -8.6      2.894      8.662
REMARK  4 active torsions:
REMARK  status: ('A' for Active; 'I' for Inactive)
REMARK    1  A    between atoms: C_10  and  C_11 
REMARK       I    between atoms: C_11  and  N_12 
REMARK    2  A    between atoms: N_12  and  C_13 
REMARK    3  A    between atoms: C_13  and  C_14 
REMARK    4  A    between atoms: C_16  and  C_17 
ROOT
HETATM    1  C   UNL     1     -43.011  57.224 -53.439  1.00  0.00     0.268 C 
HETATM    2  N   UNL     1     -42.954  56.073 -52.694  1.00  0.00    -0.351 N 
HETATM    3  O   UNL     1     -43.112  58.339 -52.936  1.00  0.00    -0.266 OA
HETATM    4  H   UNL     1     -42.829  55.185 -53.154  1.00  0.00     0.163 HD
ENDROOT
BRANCH   2   5
HETATM    5  C   UNL     1     -42.982  56.082 -51.251  1.00  0.00     0.161 C 
BRANCH   5   6
HETATM    6  C   UNL     1     -41.926  55.170 -50.685  1.00  0.00    -0.040 A 
HETATM    7  C   UNL     1     -41.512  54.028 -51.389  1.00  0.00     0.024 A 
HETATM    8  C   UNL     1     -40.538  53.164 -50.861  1.00  0.00     0.014 A 
HETATM    9  C   UNL     1     -39.975  53.462 -49.613  1.00  0.00     0.015 A 
HETATM   10  C   UNL     1     -40.378  54.595 -48.904  1.00  0.00     0.002 A 
HETATM   11  C   UNL     1     -41.350  55.442 -49.435  1.00  0.00     0.009 A 
BRANCH   8  12
HETATM   12  C   UNL     1     -40.132  51.973 -51.604  1.00  0.00     0.181 A 
HETATM   13  N   UNL     1     -39.705  50.835 -51.031  1.00  0.00    -0.152 NA
HETATM   14  N   UNL     1     -39.470  50.055 -52.095  1.00  0.00    -0.263 N 
HETATM   15  H   UNL     1     -39.133  49.110 -51.953  1.00  0.00     0.190 HD
HETATM   16  C   UNL     1     -39.744  50.704 -53.263  1.00  0.00     0.118 A 
HETATM   17  C   UNL     1     -39.576  50.088 -54.595  1.00  0.00     0.093 C 
HETATM   18  N   UNL     1     -40.160  51.918 -52.983  1.00  0.00    -0.212 NA
ENDBRANCH   8  12
ENDBRANCH   5   6
ENDBRANCH   2   5
BRANCH   1  19
HETATM   19  C   UNL     1     -42.935  57.041 -54.872  1.00  0.00     0.102 A 
HETATM   20  N   UNL     1     -42.526  58.070 -55.695  1.00  0.00    -0.351 N 
HETATM   21  C   UNL     1     -42.521  57.682 -57.012  1.00  0.00     0.043 A 
HETATM   22  H   UNL     1     -42.266  58.986 -55.353  1.00  0.00     0.166 HD
HETATM   23  C   UNL     1     -42.173  58.397 -58.164  1.00  0.00     0.037 A 
HETATM   24  C   UNL     1     -42.946  56.357 -57.046  1.00  0.00    -0.007 A 
HETATM   25  C   UNL     1     -42.269  57.740 -59.400  1.00  0.00    -0.060 A 
HETATM   26  C   UNL     1     -41.889  58.451 -60.668  1.00  0.00     0.048 C 
HETATM   27  C   UNL     1     -42.690  56.407 -59.454  1.00  0.00     0.007 A 
HETATM   28  C   UNL     1     -43.034  55.707 -58.290  1.00  0.00     0.014 A 
HETATM   29  C   UNL     1     -43.203  55.965 -55.700  1.00  0.00     0.049 A 
ENDBRANCH   1  19
TORSDOF 4
ENDMDL
MODEL 5
REMARK VINA RESULT:      -8.5      1.947      3.111
REMARK  4 active torsions:
REMARK  status: ('A' for Active; 'I' for Inactive)
REMARK    1  A    between atoms: C_10  and  C_11 
REMARK       I    between atoms: C_11  and  N_12 
REMARK    2  A    between atoms: N_12  and  C_13 
REMARK    3  A    between atoms: C_13  and  C_14 
REMARK    4  A    between atoms: C_16  and  C_17 
ROOT
HETATM    1  C   UNL     1     -42.094  56.223 -51.777  1.00  0.00     0.268 C 
HETATM    2  N   UNL     1     -43.440  56.267 -52.041  1.00  0.00    -0.351 N 
HETATM    3  O   UNL     1     -41.450  57.211 -51.436  1.00  0.00    -0.266 OA
HETATM    4  H   UNL     1     -43.931  55.420 -52.278  1.00  0.00     0.163 HD
ENDROOT
BRANCH   2   5
HETATM    5  C   UNL     1     -44.216  57.478 -51.913  1.00  0.00     0.161 C 
BRANCH   5   6
HETATM    6  C   UNL     1     -44.447  58.116 -53.258  1.00  0.00    -0.040 A 
HETATM    7  C   UNL     1     -44.020  57.482 -54.436  1.00  0.00     0.024 A 
HETATM    8  C   UNL     1     -44.218  58.077 -55.692  1.00  0.00     0.014 A 
HETATM    9  C   UNL     1     -44.861  59.322 -55.757  1.00  0.00     0.015 A 
HETATM   10  C   UNL     1     -45.291  59.961 -54.593  1.00  0.00     0.002 A 
HETATM   11  C   UNL     1     -45.082  59.363 -53.351  1.00  0.00     0.009 A 
BRANCH   8  12
HETATM   12  C   UNL     1     -43.752  57.408 -56.904  1.00  0.00     0.181 A 
HETATM   13  N   UNL     1     -42.583  56.753 -57.004  1.00  0.00    -0.152 NA
HETATM   14  N   UNL     1     -42.613  56.313 -58.269  1.00  0.00    -0.263 N 
HETATM   15  H   UNL     1     -41.835  55.769 -58.624  1.00  0.00     0.190 HD
HETATM   16  C   UNL     1     -43.758  56.692 -58.905  1.00  0.00     0.118 A 
HETATM   17  C   UNL     1     -44.061  56.349 -60.309  1.00  0.00     0.093 C 
HETATM   18  N   UNL     1     -44.494  57.388 -58.068  1.00  0.00    -0.212 NA
ENDBRANCH   8  12
ENDBRANCH   5   6
ENDBRANCH   2   5
BRANCH   1  19
HETATM   19  C   UNL     1     -41.476  54.924 -51.920  1.00  0.00     0.102 A 
HETATM   20  N   UNL     1     -41.452  54.283 -53.140  1.00  0.00    -0.351 N 
HETATM   21  C   UNL     1     -40.814  53.070 -53.054  1.00  0.00     0.043 A 
HETATM   22  H   UNL     1     -41.856  54.673 -53.982  1.00  0.00     0.166 HD
HETATM   23  C   UNL     1     -40.562  52.108 -54.039  1.00  0.00     0.037 A 
HETATM   24  C   UNL     1     -40.415  52.916 -51.729  1.00  0.00    -0.007 A 
HETATM   25  C   UNL     1     -39.883  50.940 -53.660  1.00  0.00    -0.060 A 
HETATM   26  C   UNL     1     -39.566  49.883 -54.679  1.00  0.00     0.048 C 
HETATM   27  C   UNL     1     -39.470  50.769 -52.334  1.00  0.00     0.007 A 
HETATM   28  C   UNL     1     -39.730  51.743 -51.361  1.00  0.00     0.014 A 
HETATM   29  C   UNL     1     -40.834  54.083 -51.027  1.00  0.00     0.049 A 
ENDBRANCH   1  19
TORSDOF 4
ENDMDL
MODEL 6
REMARK VINA RESULT:      -8.5     15.267     19.380
REMARK  4 active torsions:
REMARK  status: ('A' for Active; 'I' for Inactive)
REMARK    1  A    between atoms: C_10  and  C_11 
REMARK       I    between atoms: C_11  and  N_12 
REMARK    2  A    between atoms: N_12  and  C_13 
REMARK    3  A    between atoms: C_13  and  C_14 
REMARK    4  A    between atoms: C_16  and  C_17 
ROOT
HETATM    1  C   UNL     1     -36.080  41.831 -53.573  1.00  0.00     0.268 C 
HETATM    2  N   UNL     1     -36.092  40.714 -52.777  1.00  0.00    -0.351 N 
HETATM    3  O   UNL     1     -35.783  42.945 -53.152  1.00  0.00    -0.266 OA
HETATM    4  H   UNL     1     -36.304  39.815 -53.180  1.00  0.00     0.163 HD
ENDROOT
BRANCH   2   5
HETATM    5  C   UNL     1     -35.729  40.753 -51.380  1.00  0.00     0.161 C 
BRANCH   5   6
HETATM    6  C   UNL     1     -34.262  40.466 -51.197  1.00  0.00    -0.040 A 
HETATM    7  C   UNL     1     -33.747  40.134 -49.933  1.00  0.00     0.024 A 
HETATM    8  C   UNL     1     -32.378  39.881 -49.751  1.00  0.00     0.014 A 
HETATM    9  C   UNL     1     -31.523  39.959 -50.860  1.00  0.00     0.015 A 
HETATM   10  C   UNL     1     -32.023  40.288 -52.121  1.00  0.00     0.002 A 
HETATM   11  C   UNL     1     -33.383  40.543 -52.287  1.00  0.00     0.009 A 
BRANCH   8  12
HETATM   12  C   UNL     1     -31.861  39.551 -48.425  1.00  0.00     0.181 A 
HETATM   13  N   UNL     1     -32.198  38.448 -47.736  1.00  0.00    -0.152 NA
HETATM   14  N   UNL     1     -31.476  38.584 -46.616  1.00  0.00    -0.263 N 
HETATM   15  H   UNL     1     -31.535  37.871 -45.898  1.00  0.00     0.190 HD
HETATM   16  C   UNL     1     -30.735  39.728 -46.633  1.00  0.00     0.118 A 
HETATM   17  C   UNL     1     -29.844  40.137 -45.528  1.00  0.00     0.093 C 
HETATM   18  N   UNL     1     -30.961  40.361 -47.762  1.00  0.00    -0.212 NA
ENDBRANCH   8  12
ENDBRANCH   5   6
ENDBRANCH   2   5
BRANCH   1  19
HETATM   19  C   UNL     1     -36.436  41.612 -54.957  1.00  0.00     0.102 A 
HETATM   20  N   UNL     1     -37.113  40.473 -55.341  1.00  0.00    -0.351 N 
HETATM   21  C   UNL     1     -37.354  40.469 -56.693  1.00  0.00     0.043 A 
HETATM   22  H   UNL     1     -37.390  39.746 -54.695  1.00  0.00     0.166 HD
HETATM   23  C   UNL     1     -38.009  39.524 -57.492  1.00  0.00     0.037 A 
HETATM   24  C   UNL     1     -36.809  41.643 -57.205  1.00  0.00    -0.007 A 
HETATM   25  C   UNL     1     -38.105  39.780 -58.868  1.00  0.00    -0.060 A 
HETATM   26  C   UNL     1     -38.815  38.812 -59.771  1.00  0.00     0.048 C 
HETATM   27  C   UNL     1     -37.568  40.957 -59.401  1.00  0.00     0.007 A 
HETATM   28  C   UNL     1     -36.917  41.892 -58.586  1.00  0.00     0.014 A 
HETATM   29  C   UNL     1     -36.236  42.352 -56.110  1.00  0.00     0.049 A 
ENDBRANCH   1  19
TORSDOF 4
ENDMDL
MODEL 7
REMARK VINA RESULT:      -8.5      1.809      2.957
REMARK  4 active torsions:
REMARK  status: ('A' for Active; 'I' for Inactive)
REMARK    1  A    between atoms: C_10  and  C_11 
REMARK       I    between atoms: C_11  and  N_12 
REMARK    2  A    between atoms: N_12  and  C_13 
REMARK    3  A    between atoms: C_13  and  C_14 
REMARK    4  A    between atoms: C_16  and  C_17 
ROOT
HETATM    1  C   UNL     1     -41.939  56.501 -55.461  1.00  0.00     0.268 C 
HETATM    2  N   UNL     1     -42.373  56.157 -56.716  1.00  0.00    -0.351 N 
HETATM    3  O   UNL     1     -41.979  57.652 -55.036  1.00  0.00    -0.266 OA
HETATM    4  H   UNL     1     -42.358  55.191 -57.003  1.00  0.00     0.163 HD
ENDROOT
BRANCH   2   5
HETATM    5  C   UNL     1     -42.938  57.119 -57.633  1.00  0.00     0.161 C 
BRANCH   5   6
HETATM    6  C   UNL     1     -43.851  56.447 -58.625  1.00  0.00    -0.040 A 
HETATM    7  C   UNL     1     -44.886  57.162 -59.248  1.00  0.00     0.024 A 
HETATM    8  C   UNL     1     -45.750  56.539 -60.163  1.00  0.00     0.014 A 
HETATM    9  C   UNL     1     -45.561  55.180 -60.453  1.00  0.00     0.015 A 
HETATM   10  C   UNL     1     -44.535  54.459 -59.840  1.00  0.00     0.002 A 
HETATM   11  C   UNL     1     -43.688  55.088 -58.929  1.00  0.00     0.009 A 
BRANCH   8  12
HETATM   12  C   UNL     1     -46.830  57.298 -60.789  1.00  0.00     0.181 A 
HETATM   13  N   UNL     1     -47.770  56.760 -61.584  1.00  0.00    -0.152 NA
HETATM   14  N   UNL     1     -48.522  57.825 -61.892  1.00  0.00    -0.263 N 
HETATM   15  H   UNL     1     -49.328  57.705 -62.495  1.00  0.00     0.190 HD
HETATM   16  C   UNL     1     -48.048  58.960 -61.305  1.00  0.00     0.118 A 
HETATM   17  C   UNL     1     -48.678  60.286 -61.471  1.00  0.00     0.093 C 
HETATM   18  N   UNL     1     -46.978  58.658 -60.605  1.00  0.00    -0.212 NA
ENDBRANCH   8  12
ENDBRANCH   5   6
ENDBRANCH   2   5
BRANCH   1  19
HETATM   19  C   UNL     1     -41.434  55.411 -54.657  1.00  0.00     0.102 A 
HETATM   20  N   UNL     1     -41.199  54.172 -55.215  1.00  0.00    -0.351 N 
HETATM   21  C   UNL     1     -40.718  53.288 -54.281  1.00  0.00     0.043 A 
HETATM   22  H   UNL     1     -41.362  53.961 -56.191  1.00  0.00     0.166 HD
HETATM   23  C   UNL     1     -40.345  51.945 -54.414  1.00  0.00     0.037 A 
HETATM   24  C   UNL     1     -40.646  53.975 -53.073  1.00  0.00    -0.007 A 
HETATM   25  C   UNL     1     -39.887  51.273 -53.270  1.00  0.00    -0.060 A 
HETATM   26  C   UNL     1     -39.453  49.838 -53.358  1.00  0.00     0.048 C 
HETATM   27  C   UNL     1     -39.802  51.948 -52.048  1.00  0.00     0.007 A 
HETATM   28  C   UNL     1     -40.179  53.293 -51.934  1.00  0.00     0.014 A 
HETATM   29  C   UNL     1     -41.096  55.304 -53.319  1.00  0.00     0.049 A 
ENDBRANCH   1  19
TORSDOF 4
ENDMDL
MODEL 8
REMARK VINA RESULT:      -8.4      5.345      7.847
REMARK  4 active torsions:
REMARK  status: ('A' for Active; 'I' for Inactive)
REMARK    1  A    between atoms: C_10  and  C_11 
REMARK       I    between atoms: C_11  and  N_12 
REMARK    2  A    between atoms: N_12  and  C_13 
REMARK    3  A    between atoms: C_13  and  C_14 
REMARK    4  A    between atoms: C_16  and  C_17 
ROOT
HETATM    1  C   UNL     1     -43.410  56.030 -53.378  1.00  0.00     0.268 C 
HETATM    2  N   UNL     1     -43.939  56.596 -52.246  1.00  0.00    -0.351 N 
HETATM    3  O   UNL     1     -43.694  56.414 -54.509  1.00  0.00    -0.266 OA
HETATM    4  H   UNL     1     -43.642  56.271 -51.339  1.00  0.00     0.163 HD
ENDROOT
BRANCH   2   5
HETATM    5  C   UNL     1     -44.856  57.710 -52.291  1.00  0.00     0.161 C 
BRANCH   5   6
HETATM    6  C   UNL     1     -44.341  58.866 -51.472  1.00  0.00    -0.040 A 
HETATM    7  C   UNL     1     -45.211  59.626 -50.676  1.00  0.00     0.024 A 
HETATM    8  C   UNL     1     -44.741  60.713 -49.922  1.00  0.00     0.014 A 
HETATM    9  C   UNL     1     -43.376  61.030 -49.971  1.00  0.00     0.015 A 
HETATM   10  C   UNL     1     -42.501  60.281 -50.759  1.00  0.00     0.002 A 
HETATM   11  C   UNL     1     -42.981  59.208 -51.508  1.00  0.00     0.009 A 
BRANCH   8  12
HETATM   12  C   UNL     1     -45.667  61.500 -49.110  1.00  0.00     0.181 A 
HETATM   13  N   UNL     1     -46.592  62.334 -49.614  1.00  0.00    -0.152 NA
HETATM   14  N   UNL     1     -47.185  62.800 -48.507  1.00  0.00    -0.263 N 
HETATM   15  H   UNL     1     -47.945  63.465 -48.593  1.00  0.00     0.190 HD
HETATM   16  C   UNL     1     -46.633  62.266 -47.380  1.00  0.00     0.118 A 
HETATM   17  C   UNL     1     -47.087  62.600 -46.015  1.00  0.00     0.093 C 
HETATM   18  N   UNL     1     -45.670  61.444 -47.731  1.00  0.00    -0.212 NA
ENDBRANCH   8  12
ENDBRANCH   5   6
ENDBRANCH   2   5
BRANCH   1  19
HETATM   19  C   UNL     1     -42.480  54.946 -53.155  1.00  0.00     0.102 A 
HETATM   20  N   UNL     1     -42.296  53.965 -54.108  1.00  0.00    -0.351 N 
HETATM   21  C   UNL     1     -41.369  53.040 -53.697  1.00  0.00     0.043 A 
HETATM   22  H   UNL     1     -42.788  53.949 -54.991  1.00  0.00     0.166 HD
HETATM   23  C   UNL     1     -40.881  51.899 -54.346  1.00  0.00     0.037 A 
HETATM   24  C   UNL     1     -40.941  53.429 -52.431  1.00  0.00    -0.007 A 
HETATM   25  C   UNL     1     -39.925  51.120 -53.676  1.00  0.00    -0.060 A 
HETATM   26  C   UNL     1     -39.350  49.897 -54.332  1.00  0.00     0.048 C 
HETATM   27  C   UNL     1     -39.478  51.498 -52.405  1.00  0.00     0.007 A 
HETATM   28  C   UNL     1     -39.978  52.643 -51.772  1.00  0.00     0.014 A 
HETATM   29  C   UNL     1     -41.643  54.624 -52.101  1.00  0.00     0.049 A 
ENDBRANCH   1  19
TORSDOF 4
ENDMDL
MODEL 9
REMARK VINA RESULT:      -8.4      5.009      7.238
REMARK  4 active torsions:
REMARK  status: ('A' for Active; 'I' for Inactive)
REMARK    1  A    between atoms: C_10  and  C_11 
REMARK       I    between atoms: C_11  and  N_12 
REMARK    2  A    between atoms: N_12  and  C_13 
REMARK    3  A    between atoms: C_13  and  C_14 
REMARK    4  A    between atoms: C_16  and  C_17 
ROOT
HETATM    1  C   UNL     1     -43.356  55.622 -52.845  1.00  0.00     0.268 C 
HETATM    2  N   UNL     1     -43.849  56.065 -51.644  1.00  0.00    -0.351 N 
HETATM    3  O   UNL     1     -43.661  56.131 -53.919  1.00  0.00    -0.266 OA
HETATM    4  H   UNL     1     -43.535  55.640 -50.786  1.00  0.00     0.163 HD
ENDROOT
BRANCH   2   5
HETATM    5  C   UNL     1     -44.752  57.188 -51.544  1.00  0.00     0.161 C 
BRANCH   5   6
HETATM    6  C   UNL     1     -43.992  58.474 -51.348  1.00  0.00    -0.040 A 
HETATM    7  C   UNL     1     -42.590  58.476 -51.276  1.00  0.00     0.024 A 
HETATM    8  C   UNL     1     -41.876  59.669 -51.079  1.00  0.00     0.014 A 
HETATM    9  C   UNL     1     -42.588  60.871 -50.960  1.00  0.00     0.015 A 
HETATM   10  C   UNL     1     -43.982  60.881 -51.030  1.00  0.00     0.002 A 
HETATM   11  C   UNL     1     -44.680  59.690 -51.220  1.00  0.00     0.009 A 
BRANCH   8  12
HETATM   12  C   UNL     1     -40.418  59.647 -50.992  1.00  0.00     0.181 A 
HETATM   13  N   UNL     1     -39.604  59.350 -52.020  1.00  0.00    -0.152 NA
HETATM   14  N   UNL     1     -38.392  59.473 -51.464  1.00  0.00    -0.263 N 
HETATM   15  H   UNL     1     -37.567  59.304 -52.029  1.00  0.00     0.190 HD
HETATM   16  C   UNL     1     -38.476  59.828 -50.151  1.00  0.00     0.118 A 
HETATM   17  C   UNL     1     -37.296  60.034 -49.286  1.00  0.00     0.093 C 
HETATM   18  N   UNL     1     -39.744  59.942 -49.825  1.00  0.00    -0.212 NA
ENDBRANCH   8  12
ENDBRANCH   5   6
ENDBRANCH   2   5
BRANCH   1  19
HETATM   19  C   UNL     1     -42.435  54.509 -52.765  1.00  0.00     0.102 A 
HETATM   20  N   UNL     1     -42.207  53.702 -53.860  1.00  0.00    -0.351 N 
HETATM   21  C   UNL     1     -41.298  52.714 -53.569  1.00  0.00     0.043 A 
HETATM   22  H   UNL     1     -42.658  53.837 -54.755  1.00  0.00     0.166 HD
HETATM   23  C   UNL     1     -40.780  51.696 -54.378  1.00  0.00     0.037 A 
HETATM   24  C   UNL     1     -40.928  52.883 -52.238  1.00  0.00    -0.007 A 
HETATM   25  C   UNL     1     -39.854  50.809 -53.806  1.00  0.00    -0.060 A 
HETATM   26  C   UNL     1     -39.249  49.710 -54.631  1.00  0.00     0.048 C 
HETATM   27  C   UNL     1     -39.466  50.965 -52.471  1.00  0.00     0.007 A 
HETATM   28  C   UNL     1     -39.995  51.991 -51.677  1.00  0.00     0.014 A 
HETATM   29  C   UNL     1     -41.646  54.010 -51.743  1.00  0.00     0.049 A 
ENDBRANCH   1  19
TORSDOF 4
ENDMDL
MODEL 10
REMARK VINA RESULT:      -8.3     16.076     20.124
REMARK  4 active torsions:
REMARK  status: ('A' for Active; 'I' for Inactive)
REMARK    1  A    between atoms: C_10  and  C_11 
REMARK       I    between atoms: C_11  and  N_12 
REMARK    2  A    between atoms: N_12  and  C_13 
REMARK    3  A    between atoms: C_13  and  C_14 
REMARK    4  A    between atoms: C_16  and  C_17 
ROOT
HETATM    1  C   UNL     1     -32.808  40.578 -55.502  1.00  0.00     0.268 C 
HETATM    2  N   UNL     1     -33.098  40.647 -54.162  1.00  0.00    -0.351 N 
HETATM    3  O   UNL     1     -31.673  40.385 -55.928  1.00  0.00    -0.266 OA
HETATM    4  H   UNL     1     -34.053  40.766 -53.863  1.00  0.00     0.163 HD
ENDROOT
BRANCH   2   5
HETATM    5  C   UNL     1     -32.092  40.471 -53.141  1.00  0.00     0.161 C 
BRANCH   5   6
HETATM    6  C   UNL     1     -32.716  40.045 -51.838  1.00  0.00    -0.040 A 
HETATM    7  C   UNL     1     -31.936  39.911 -50.678  1.00  0.00     0.024 A 
HETATM    8  C   UNL     1     -32.508  39.500 -49.463  1.00  0.00     0.014 A 
HETATM    9  C   UNL     1     -33.883  39.227 -49.421  1.00  0.00     0.015 A 
HETATM   10  C   UNL     1     -34.668  39.357 -50.568  1.00  0.00     0.002 A 
HETATM   11  C   UNL     1     -34.088  39.760 -51.769  1.00  0.00     0.009 A 
BRANCH   8  12
HETATM   12  C   UNL     1     -31.676  39.354 -48.271  1.00  0.00     0.181 A 
HETATM   13  N   UNL     1     -31.392  38.177 -47.688  1.00  0.00    -0.152 NA
HETATM   14  N   UNL     1     -30.608  38.550 -46.668  1.00  0.00    -0.263 N 
HETATM   15  H   UNL     1     -30.235  37.843 -46.044  1.00  0.00     0.190 HD
HETATM   16  C   UNL     1     -30.431  39.901 -46.639  1.00  0.00     0.118 A 
HETATM   17  C   UNL     1     -29.614  40.594 -45.623  1.00  0.00     0.093 C 
HETATM   18  N   UNL     1     -31.096  40.435 -47.639  1.00  0.00    -0.212 NA
ENDBRANCH   8  12
ENDBRANCH   5   6
ENDBRANCH   2   5
BRANCH   1  19
HETATM   19  C   UNL     1     -33.937  40.741 -56.391  1.00  0.00     0.102 A 
HETATM   20  N   UNL     1     -34.421  39.675 -57.120  1.00  0.00    -0.351 N 
HETATM   21  C   UNL     1     -35.494  40.046 -57.892  1.00  0.00     0.043 A 
HETATM   22  H   UNL     1     -34.024  38.745 -57.077  1.00  0.00     0.166 HD
HETATM   23  C   UNL     1     -36.283  39.290 -58.767  1.00  0.00     0.037 A 
HETATM   24  C   UNL     1     -35.710  41.401 -57.660  1.00  0.00    -0.007 A 
HETATM   25  C   UNL     1     -37.328  39.942 -59.440  1.00  0.00    -0.060 A 
HETATM   26  C   UNL     1     -38.220  39.177 -60.375  1.00  0.00     0.048 C 
HETATM   27  C   UNL     1     -37.564  41.303 -59.216  1.00  0.00     0.007 A 
HETATM   28  C   UNL     1     -36.765  42.043 -58.336  1.00  0.00     0.014 A 
HETATM   29  C   UNL     1     -34.729  41.827 -56.719  1.00  0.00     0.049 A 
ENDBRANCH   1  19
TORSDOF 4
ENDMDL
