MODEL 1
REMARK VINA RESULT:      -8.6      0.000      0.000
REMARK  2 active torsions:
REMARK  status: ('A' for Active; 'I' for Inactive)
REMARK    1  A    between atoms: C_2  and  N_3 
REMARK    2  A    between atoms: N_3  and  C_4 
ROOT
HETATM    1  C   UNL     1     -42.296  56.583 -52.663  1.00  0.00     0.143 A 
HETATM    2  N   UNL     1     -42.273  57.795 -52.057  1.00  0.00    -0.223 NA
HETATM    3  C   UNL     1     -41.645  57.942 -50.886  1.00  0.00     0.236 A 
HETATM    4  N   UNL     1     -41.016  57.001 -50.190  1.00  0.00    -0.234 NA
HETATM    5  C   UNL     1     -41.019  55.814 -50.815  1.00  0.00     0.114 A 
HETATM    6  C   UNL     1     -41.587  55.514 -52.046  1.00  0.00     0.053 A 
HETATM    7  S   UNL     1     -40.295  54.475 -50.067  1.00  0.00    -0.073 SA
HETATM    8  C   UNL     1     -40.659  53.454 -51.381  1.00  0.00    -0.008 C 
HETATM    9  C   UNL     1     -41.284  54.131 -52.420  1.00  0.00    -0.028 C 
HETATM   10  C   UNL     1     -41.579  53.472 -53.742  1.00  0.00     0.041 C 
HETATM   11  C   UNL     1     -40.347  52.846 -54.405  1.00  0.00     0.005 C 
HETATM   12  C   UNL     1     -39.904  51.513 -53.801  1.00  0.00     0.001 C 
HETATM   13  C   UNL     1     -39.282  51.616 -52.408  1.00  0.00     0.005 C 
HETATM   14  C   UNL     1     -40.277  52.005 -51.317  1.00  0.00     0.047 C 
ENDROOT
BRANCH   1  15
HETATM   15  N   UNL     1     -43.073  56.394 -53.821  1.00  0.00    -0.340 N 
HETATM   16  H   UNL     1     -44.036  56.199 -53.589  1.00  0.00     0.167 HD
BRANCH  15  17
HETATM   17  C   UNL     1     -42.905  56.858 -55.140  1.00  0.00     0.036 A 
HETATM   18  C   UNL     1     -42.515  58.165 -55.458  1.00  0.00     0.032 A 
HETATM   19  C   UNL     1     -42.335  58.568 -56.786  1.00  0.00     0.042 A 
HETATM   20  C   UNL     1     -42.524  57.658 -57.821  1.00  0.00     0.102 A 
HETATM   21  C   UNL     1     -42.912  56.350 -57.526  1.00  0.00     0.104 A 
HETATM   22  O   UNL     1     -42.316  58.114 -59.095  1.00  0.00    -0.346 OA
HETATM   23  C   UNL     1     -43.078  55.950 -56.199  1.00  0.00     0.069 A 
HETATM   24  O   UNL     1     -43.142  55.400 -58.490  1.00  0.00    -0.346 OA
HETATM   25  C   UNL     1     -43.295  55.999 -59.782  1.00  0.00     0.202 C 
HETATM   26  C   UNL     1     -42.206  57.031 -60.026  1.00  0.00     0.202 C 
ENDBRANCH  15  17
ENDBRANCH   1  15
TORSDOF 2
ENDMDL
MODEL 2
REMARK VINA RESULT:      -8.5      3.238      4.410
REMARK  2 active torsions:
REMARK  status: ('A' for Active; 'I' for Inactive)
REMARK    1  A    between atoms: C_2  and  N_3 
REMARK    2  A    between atoms: N_3  and  C_4 
ROOT
HETATM    1  C   UNL     1     -41.611  55.331 -49.825  1.00  0.00     0.143 A 
HETATM    2  N   UNL     1     -41.229  55.235 -48.528  1.00  0.00    -0.223 NA
HETATM    3  C   UNL     1     -40.484  54.200 -48.128  1.00  0.00     0.236 A 
HETATM    4  N   UNL     1     -40.055  53.186 -48.872  1.00  0.00    -0.234 NA
HETATM    5  C   UNL     1     -40.414  53.308 -50.159  1.00  0.00     0.114 A 
HETATM    6  C   UNL     1     -41.144  54.340 -50.734  1.00  0.00     0.053 A 
HETATM    7  S   UNL     1     -39.989  52.092 -51.263  1.00  0.00    -0.073 SA
HETATM    8  C   UNL     1     -40.714  52.920 -52.563  1.00  0.00    -0.008 C 
HETATM    9  C   UNL     1     -41.236  54.149 -52.183  1.00  0.00    -0.028 C 
HETATM   10  C   UNL     1     -41.803  55.123 -53.183  1.00  0.00     0.041 C 
HETATM   11  C   UNL     1     -40.832  55.475 -54.316  1.00  0.00     0.005 C 
HETATM   12  C   UNL     1     -40.691  54.399 -55.393  1.00  0.00     0.001 C 
HETATM   13  C   UNL     1     -39.943  53.142 -54.948  1.00  0.00     0.005 C 
HETATM   14  C   UNL     1     -40.707  52.299 -53.929  1.00  0.00     0.047 C 
ENDROOT
BRANCH   1  15
HETATM   15  N   UNL     1     -42.509  56.340 -50.217  1.00  0.00    -0.340 N 
HETATM   16  H   UNL     1     -43.261  56.443 -49.550  1.00  0.00     0.167 HD
BRANCH  15  17
HETATM   17  C   UNL     1     -42.335  57.476 -51.033  1.00  0.00     0.036 A 
HETATM   18  C   UNL     1     -41.094  58.081 -51.262  1.00  0.00     0.032 A 
HETATM   19  C   UNL     1     -40.971  59.192 -52.105  1.00  0.00     0.042 A 
HETATM   20  C   UNL     1     -42.091  59.703 -52.750  1.00  0.00     0.102 A 
HETATM   21  C   UNL     1     -43.338  59.113 -52.536  1.00  0.00     0.104 A 
HETATM   22  O   UNL     1     -41.897  60.781 -53.572  1.00  0.00    -0.346 OA
HETATM   23  C   UNL     1     -43.454  57.998 -51.705  1.00  0.00     0.069 A 
HETATM   24  O   UNL     1     -44.495  59.572 -53.116  1.00  0.00    -0.346 OA
HETATM   25  C   UNL     1     -44.324  60.895 -53.638  1.00  0.00     0.202 C 
HETATM   26  C   UNL     1     -43.027  60.997 -54.426  1.00  0.00     0.202 C 
ENDBRANCH  15  17
ENDBRANCH   1  15
TORSDOF 2
ENDMDL
MODEL 3
REMARK VINA RESULT:      -8.4      2.389      3.568
REMARK  2 active torsions:
REMARK  status: ('A' for Active; 'I' for Inactive)
REMARK    1  A    between atoms: C_2  and  N_3 
REMARK    2  A    between atoms: N_3  and  C_4 
ROOT
HETATM    1  C   UNL     1     -42.260  57.869 -55.898  1.00  0.00     0.143 A 
HETATM    2  N   UNL     1     -42.472  59.195 -55.716  1.00  0.00    -0.223 NA
HETATM    3  C   UNL     1     -42.745  59.664 -54.495  1.00  0.00     0.236 A 
HETATM    4  N   UNL     1     -42.855  58.962 -53.372  1.00  0.00    -0.234 NA
HETATM    5  C   UNL     1     -42.613  57.656 -53.560  1.00  0.00     0.114 A 
HETATM    6  C   UNL     1     -42.276  57.026 -54.751  1.00  0.00     0.053 A 
HETATM    7  S   UNL     1     -42.739  56.587 -52.249  1.00  0.00    -0.073 SA
HETATM    8  C   UNL     1     -42.296  55.249 -53.205  1.00  0.00    -0.008 C 
HETATM    9  C   UNL     1     -41.995  55.609 -54.512  1.00  0.00    -0.028 C 
HETATM   10  C   UNL     1     -41.445  54.622 -55.509  1.00  0.00     0.041 C 
HETATM   11  C   UNL     1     -40.178  53.906 -55.028  1.00  0.00     0.005 C 
HETATM   12  C   UNL     1     -40.421  52.793 -54.009  1.00  0.00     0.001 C 
HETATM   13  C   UNL     1     -40.848  53.275 -52.622  1.00  0.00     0.005 C 
HETATM   14  C   UNL     1     -42.249  53.883 -52.587  1.00  0.00     0.047 C 
ENDROOT
BRANCH   1  15
HETATM   15  N   UNL     1     -42.113  57.356 -57.200  1.00  0.00    -0.340 N 
HETATM   16  H   UNL     1     -41.210  56.921 -57.325  1.00  0.00     0.167 HD
BRANCH  15  17
HETATM   17  C   UNL     1     -43.067  56.928 -58.145  1.00  0.00     0.036 A 
HETATM   18  C   UNL     1     -42.919  55.776 -58.927  1.00  0.00     0.032 A 
HETATM   19  C   UNL     1     -43.910  55.379 -59.832  1.00  0.00     0.042 A 
HETATM   20  C   UNL     1     -45.079  56.122 -59.953  1.00  0.00     0.102 A 
HETATM   21  C   UNL     1     -45.247  57.273 -59.182  1.00  0.00     0.104 A 
HETATM   22  O   UNL     1     -46.014  55.669 -60.846  1.00  0.00    -0.346 OA
HETATM   23  C   UNL     1     -44.262  57.657 -58.271  1.00  0.00     0.069 A 
HETATM   24  O   UNL     1     -46.360  58.073 -59.260  1.00  0.00    -0.346 OA
HETATM   25  C   UNL     1     -47.114  57.798 -60.446  1.00  0.00     0.202 C 
HETATM   26  C   UNL     1     -47.283  56.299 -60.638  1.00  0.00     0.202 C 
ENDBRANCH  15  17
ENDBRANCH   1  15
TORSDOF 2
ENDMDL
MODEL 4
REMARK VINA RESULT:      -8.3      3.112      6.576
REMARK  2 active torsions:
REMARK  status: ('A' for Active; 'I' for Inactive)
REMARK    1  A    between atoms: C_2  and  N_3 
REMARK    2  A    between atoms: N_3  and  C_4 
ROOT
HETATM    1  C   UNL     1     -44.153  56.816 -54.286  1.00  0.00     0.143 A 
HETATM    2  N   UNL     1     -44.781  57.536 -53.324  1.00  0.00    -0.223 NA
HETATM    3  C   UNL     1     -44.882  58.864 -53.444  1.00  0.00     0.236 A 
HETATM    4  N   UNL     1     -44.410  59.617 -54.432  1.00  0.00    -0.234 NA
HETATM    5  C   UNL     1     -43.818  58.891 -55.392  1.00  0.00     0.114 A 
HETATM    6  C   UNL     1     -43.673  57.510 -55.432  1.00  0.00     0.053 A 
HETATM    7  S   UNL     1     -43.119  59.677 -56.723  1.00  0.00    -0.073 SA
HETATM    8  C   UNL     1     -42.645  58.204 -57.435  1.00  0.00    -0.008 C 
HETATM    9  C   UNL     1     -43.059  57.102 -56.698  1.00  0.00    -0.028 C 
HETATM   10  C   UNL     1     -42.879  55.691 -57.195  1.00  0.00     0.041 C 
HETATM   11  C   UNL     1     -43.482  55.448 -58.584  1.00  0.00     0.005 C 
HETATM   12  C   UNL     1     -42.654  56.000 -59.745  1.00  0.00     0.001 C 
HETATM   13  C   UNL     1     -42.645  57.525 -59.857  1.00  0.00     0.005 C 
HETATM   14  C   UNL     1     -41.887  58.220 -58.729  1.00  0.00     0.047 C 
ENDROOT
BRANCH   1  15
HETATM   15  N   UNL     1     -43.922  55.442 -54.093  1.00  0.00    -0.340 N 
HETATM   16  H   UNL     1     -44.394  54.888 -54.793  1.00  0.00     0.167 HD
BRANCH  15  17
HETATM   17  C   UNL     1     -42.865  54.755 -53.465  1.00  0.00     0.036 A 
HETATM   18  C   UNL     1     -42.396  55.061 -52.182  1.00  0.00     0.032 A 
HETATM   19  C   UNL     1     -41.359  54.328 -51.592  1.00  0.00     0.042 A 
HETATM   20  C   UNL     1     -40.789  53.259 -52.273  1.00  0.00     0.102 A 
HETATM   21  C   UNL     1     -41.242  52.936 -53.553  1.00  0.00     0.104 A 
HETATM   22  O   UNL     1     -39.790  52.575 -51.632  1.00  0.00    -0.346 OA
HETATM   23  C   UNL     1     -42.284  53.662 -54.132  1.00  0.00     0.069 A 
HETATM   24  O   UNL     1     -40.715  51.912 -54.300  1.00  0.00    -0.346 OA
HETATM   25  C   UNL     1     -39.452  51.485 -53.777  1.00  0.00     0.202 C 
HETATM   26  C   UNL     1     -39.525  51.320 -52.268  1.00  0.00     0.202 C 
ENDBRANCH  15  17
ENDBRANCH   1  15
TORSDOF 2
ENDMDL
MODEL 5
REMARK VINA RESULT:      -8.3      3.681      7.158
REMARK  2 active torsions:
REMARK  status: ('A' for Active; 'I' for Inactive)
REMARK    1  A    between atoms: C_2  and  N_3 
REMARK    2  A    between atoms: N_3  and  C_4 
ROOT
HETATM    1  C   UNL     1     -41.677  55.986 -54.423  1.00  0.00     0.143 A 
HETATM    2  N   UNL     1     -42.113  55.601 -55.647  1.00  0.00    -0.223 NA
HETATM    3  C   UNL     1     -43.221  56.142 -56.160  1.00  0.00     0.236 A 
HETATM    4  N   UNL     1     -44.007  57.051 -55.592  1.00  0.00    -0.234 NA
HETATM    5  C   UNL     1     -43.549  57.447 -54.395  1.00  0.00     0.114 A 
HETATM    6  C   UNL     1     -42.398  57.013 -53.750  1.00  0.00     0.053 A 
HETATM    7  S   UNL     1     -44.435  58.579 -53.495  1.00  0.00    -0.073 SA
HETATM    8  C   UNL     1     -43.290  58.579 -52.234  1.00  0.00    -0.008 C 
HETATM    9  C   UNL     1     -42.200  57.764 -52.508  1.00  0.00    -0.028 C 
HETATM   10  C   UNL     1     -40.994  57.707 -51.607  1.00  0.00     0.041 C 
HETATM   11  C   UNL     1     -40.364  59.078 -51.338  1.00  0.00     0.005 C 
HETATM   12  C   UNL     1     -41.120  59.943 -50.330  1.00  0.00     0.001 C 
HETATM   13  C   UNL     1     -42.455  60.494 -50.832  1.00  0.00     0.005 C 
HETATM   14  C   UNL     1     -43.530  59.426 -51.019  1.00  0.00     0.047 C 
ENDROOT
BRANCH   1  15
HETATM   15  N   UNL     1     -40.594  55.318 -53.822  1.00  0.00    -0.340 N 
HETATM   16  H   UNL     1     -40.053  55.942 -53.241  1.00  0.00     0.167 HD
BRANCH  15  17
HETATM   17  C   UNL     1     -40.399  53.959 -53.504  1.00  0.00     0.036 A 
HETATM   18  C   UNL     1     -40.205  52.960 -54.465  1.00  0.00     0.032 A 
HETATM   19  C   UNL     1     -39.987  51.627 -54.095  1.00  0.00     0.042 A 
HETATM   20  C   UNL     1     -39.940  51.278 -52.750  1.00  0.00     0.102 A 
HETATM   21  C   UNL     1     -40.130  52.260 -51.776  1.00  0.00     0.104 A 
HETATM   22  O   UNL     1     -39.708  49.960 -52.458  1.00  0.00    -0.346 OA
HETATM   23  C   UNL     1     -40.334  53.589 -52.150  1.00  0.00     0.069 A 
HETATM   24  O   UNL     1     -40.122  51.992 -50.430  1.00  0.00    -0.346 OA
HETATM   25  C   UNL     1     -40.267  50.590 -50.179  1.00  0.00     0.202 C 
HETATM   26  C   UNL     1     -39.347  49.786 -51.083  1.00  0.00     0.202 C 
ENDBRANCH  15  17
ENDBRANCH   1  15
TORSDOF 2
ENDMDL
MODEL 6
REMARK VINA RESULT:      -7.8      3.468      6.969
REMARK  2 active torsions:
REMARK  status: ('A' for Active; 'I' for Inactive)
REMARK    1  A    between atoms: C_2  and  N_3 
REMARK    2  A    between atoms: N_3  and  C_4 
ROOT
HETATM    1  C   UNL     1     -42.932  57.366 -54.632  1.00  0.00     0.143 A 
HETATM    2  N   UNL     1     -43.332  57.820 -53.418  1.00  0.00    -0.223 NA
HETATM    3  C   UNL     1     -44.451  58.542 -53.313  1.00  0.00     0.236 A 
HETATM    4  N   UNL     1     -45.265  58.908 -54.297  1.00  0.00    -0.234 NA
HETATM    5  C   UNL     1     -44.876  58.428 -55.488  1.00  0.00     0.114 A 
HETATM    6  C   UNL     1     -43.769  57.632 -55.752  1.00  0.00     0.053 A 
HETATM    7  S   UNL     1     -45.769  58.816 -56.877  1.00  0.00    -0.073 SA
HETATM    8  C   UNL     1     -44.747  57.893 -57.879  1.00  0.00    -0.008 C 
HETATM    9  C   UNL     1     -43.754  57.239 -57.163  1.00  0.00    -0.028 C 
HETATM   10  C   UNL     1     -42.815  56.254 -57.811  1.00  0.00     0.041 C 
HETATM   11  C   UNL     1     -43.531  55.123 -58.557  1.00  0.00     0.005 C 
HETATM   12  C   UNL     1     -44.108  55.519 -59.916  1.00  0.00     0.001 C 
HETATM   13  C   UNL     1     -45.326  56.441 -59.851  1.00  0.00     0.005 C 
HETATM   14  C   UNL     1     -45.005  57.850 -59.357  1.00  0.00     0.047 C 
ENDROOT
BRANCH   1  15
HETATM   15  N   UNL     1     -41.685  56.729 -54.765  1.00  0.00    -0.340 N 
HETATM   16  H   UNL     1     -40.934  57.401 -54.832  1.00  0.00     0.167 HD
BRANCH  15  17
HETATM   17  C   UNL     1     -41.248  55.448 -54.373  1.00  0.00     0.036 A 
HETATM   18  C   UNL     1     -40.931  54.429 -55.279  1.00  0.00     0.032 A 
HETATM   19  C   UNL     1     -40.473  53.181 -54.838  1.00  0.00     0.042 A 
HETATM   20  C   UNL     1     -40.304  52.943 -53.479  1.00  0.00     0.102 A 
HETATM   21  C   UNL     1     -40.614  53.947 -52.560  1.00  0.00     0.104 A 
HETATM   22  O   UNL     1     -39.838  51.706 -53.118  1.00  0.00    -0.346 OA
HETATM   23  C   UNL     1     -41.057  55.193 -53.004  1.00  0.00     0.069 A 
HETATM   24  O   UNL     1     -40.498  53.782 -51.202  1.00  0.00    -0.346 OA
HETATM   25  C   UNL     1     -40.390  52.397 -50.854  1.00  0.00     0.202 C 
HETATM   26  C   UNL     1     -39.389  51.694 -51.758  1.00  0.00     0.202 C 
ENDBRANCH  15  17
ENDBRANCH   1  15
TORSDOF 2
ENDMDL
MODEL 7
REMARK VINA RESULT:      -7.8      3.782      6.148
REMARK  2 active torsions:
REMARK  status: ('A' for Active; 'I' for Inactive)
REMARK    1  A    between atoms: C_2  and  N_3 
REMARK    2  A    between atoms: N_3  and  C_4 
ROOT
HETATM    1  C   UNL     1     -42.401  56.592 -53.795  1.00  0.00     0.143 A 
HETATM    2  N   UNL     1     -42.998  56.595 -55.012  1.00  0.00    -0.223 NA
HETATM    3  C   UNL     1     -42.938  55.507 -55.786  1.00  0.00     0.236 A 
HETATM    4  N   UNL     1     -42.324  54.361 -55.511  1.00  0.00    -0.234 NA
HETATM    5  C   UNL     1     -41.764  54.359 -54.293  1.00  0.00     0.114 A 
HETATM    6  C   UNL     1     -41.777  55.389 -53.360  1.00  0.00     0.053 A 
HETATM    7  S   UNL     1     -40.902  52.995 -53.772  1.00  0.00    -0.073 SA
HETATM    8  C   UNL     1     -40.558  53.700 -52.260  1.00  0.00    -0.008 C 
HETATM    9  C   UNL     1     -41.140  54.952 -52.115  1.00  0.00    -0.028 C 
HETATM   10  C   UNL     1     -41.094  55.713 -50.816  1.00  0.00     0.041 C 
HETATM   11  C   UNL     1     -41.637  54.920 -49.621  1.00  0.00     0.005 C 
HETATM   12  C   UNL     1     -40.684  53.858 -49.073  1.00  0.00     0.001 C 
HETATM   13  C   UNL     1     -40.492  52.640 -49.979  1.00  0.00     0.005 C 
HETATM   14  C   UNL     1     -39.727  52.944 -51.265  1.00  0.00     0.047 C 
ENDROOT
BRANCH   1  15
HETATM   15  N   UNL     1     -42.342  57.778 -53.041  1.00  0.00    -0.340 N 
HETATM   16  H   UNL     1     -41.683  58.434 -53.438  1.00  0.00     0.167 HD
BRANCH  15  17
HETATM   17  C   UNL     1     -43.284  58.389 -52.191  1.00  0.00     0.036 A 
HETATM   18  C   UNL     1     -44.529  57.826 -51.885  1.00  0.00     0.032 A 
HETATM   19  C   UNL     1     -45.419  58.461 -51.010  1.00  0.00     0.042 A 
HETATM   20  C   UNL     1     -45.066  59.665 -50.411  1.00  0.00     0.102 A 
HETATM   21  C   UNL     1     -43.829  60.243 -50.703  1.00  0.00     0.104 A 
HETATM   22  O   UNL     1     -45.977  60.224 -49.555  1.00  0.00    -0.346 OA
HETATM   23  C   UNL     1     -42.940  59.599 -51.565  1.00  0.00     0.069 A 
HETATM   24  O   UNL     1     -43.416  61.439 -50.172  1.00  0.00    -0.346 OA
HETATM   25  C   UNL     1     -44.516  62.165 -49.611  1.00  0.00     0.202 C 
HETATM   26  C   UNL     1     -45.380  61.252 -48.756  1.00  0.00     0.202 C 
ENDBRANCH  15  17
ENDBRANCH   1  15
TORSDOF 2
ENDMDL
MODEL 8
REMARK VINA RESULT:      -7.5      2.132      2.727
REMARK  2 active torsions:
REMARK  status: ('A' for Active; 'I' for Inactive)
REMARK    1  A    between atoms: C_2  and  N_3 
REMARK    2  A    between atoms: N_3  and  C_4 
ROOT
HETATM    1  C   UNL     1     -44.617  57.587 -54.025  1.00  0.00     0.143 A 
HETATM    2  N   UNL     1     -45.010  58.772 -53.498  1.00  0.00    -0.223 NA
HETATM    3  C   UNL     1     -44.692  59.079 -52.237  1.00  0.00     0.236 A 
HETATM    4  N   UNL     1     -44.013  58.328 -51.376  1.00  0.00    -0.234 NA
HETATM    5  C   UNL     1     -43.604  57.171 -51.918  1.00  0.00     0.114 A 
HETATM    6  C   UNL     1     -43.816  56.730 -53.218  1.00  0.00     0.053 A 
HETATM    7  S   UNL     1     -42.751  56.058 -50.964  1.00  0.00    -0.073 SA
HETATM    8  C   UNL     1     -42.581  54.968 -52.262  1.00  0.00    -0.008 C 
HETATM    9  C   UNL     1     -43.121  55.461 -53.442  1.00  0.00    -0.028 C 
HETATM   10  C   UNL     1     -42.971  54.739 -54.756  1.00  0.00     0.041 C 
HETATM   11  C   UNL     1     -41.515  54.430 -55.123  1.00  0.00     0.005 C 
HETATM   12  C   UNL     1     -40.901  53.252 -54.366  1.00  0.00     0.001 C 
HETATM   13  C   UNL     1     -40.623  53.516 -52.886  1.00  0.00     0.005 C 
HETATM   14  C   UNL     1     -41.885  53.657 -52.038  1.00  0.00     0.047 C 
ENDROOT
BRANCH   1  15
HETATM   15  N   UNL     1     -45.071  57.203 -55.300  1.00  0.00    -0.340 N 
HETATM   16  H   UNL     1     -45.953  56.715 -55.246  1.00  0.00     0.167 HD
BRANCH  15  17
HETATM   17  C   UNL     1     -44.811  57.734 -56.579  1.00  0.00     0.036 A 
HETATM   18  C   UNL     1     -45.732  58.508 -57.297  1.00  0.00     0.032 A 
HETATM   19  C   UNL     1     -45.414  59.036 -58.553  1.00  0.00     0.042 A 
HETATM   20  C   UNL     1     -44.157  58.815 -59.104  1.00  0.00     0.102 A 
HETATM   21  C   UNL     1     -43.224  58.047 -58.404  1.00  0.00     0.104 A 
HETATM   22  O   UNL     1     -43.907  59.373 -60.329  1.00  0.00    -0.346 OA
HETATM   23  C   UNL     1     -43.541  57.533 -57.146  1.00  0.00     0.069 A 
HETATM   24  O   UNL     1     -41.972  57.762 -58.889  1.00  0.00    -0.346 OA
HETATM   25  C   UNL     1     -41.889  58.021 -60.295  1.00  0.00     0.202 C 
HETATM   26  C   UNL     1     -42.507  59.369 -60.629  1.00  0.00     0.202 C 
ENDBRANCH  15  17
ENDBRANCH   1  15
TORSDOF 2
ENDMDL
MODEL 9
REMARK VINA RESULT:      -7.3      3.198      6.546
REMARK  2 active torsions:
REMARK  status: ('A' for Active; 'I' for Inactive)
REMARK    1  A    between atoms: C_2  and  N_3 
REMARK    2  A    between atoms: N_3  and  C_4 
ROOT
HETATM    1  C   UNL     1     -42.541  55.978 -52.042  1.00  0.00     0.143 A 
HETATM    2  N   UNL     1     -43.149  55.497 -50.930  1.00  0.00    -0.223 NA
HETATM    3  C   UNL     1     -44.255  56.089 -50.468  1.00  0.00     0.236 A 
HETATM    4  N   UNL     1     -44.866  57.155 -50.974  1.00  0.00    -0.234 NA
HETATM    5  C   UNL     1     -44.272  57.603 -52.090  1.00  0.00     0.114 A 
HETATM    6  C   UNL     1     -43.150  57.074 -52.716  1.00  0.00     0.053 A 
HETATM    7  S   UNL     1     -44.884  58.981 -52.866  1.00  0.00    -0.073 SA
HETATM    8  C   UNL     1     -43.712  58.896 -54.099  1.00  0.00    -0.008 C 
HETATM    9  C   UNL     1     -42.881  57.791 -53.964  1.00  0.00    -0.028 C 
HETATM   10  C   UNL     1     -41.858  57.426 -55.007  1.00  0.00     0.041 C 
HETATM   11  C   UNL     1     -42.444  57.269 -56.415  1.00  0.00     0.005 C 
HETATM   12  C   UNL     1     -42.753  58.586 -57.128  1.00  0.00     0.001 C 
HETATM   13  C   UNL     1     -43.943  59.359 -56.561  1.00  0.00     0.005 C 
HETATM   14  C   UNL     1     -43.693  59.943 -55.173  1.00  0.00     0.047 C 
ENDROOT
BRANCH   1  15
HETATM   15  N   UNL     1     -41.303  55.447 -52.447  1.00  0.00    -0.340 N 
HETATM   16  H   UNL     1     -40.536  55.887 -51.960  1.00  0.00     0.167 HD
BRANCH  15  17
HETATM   17  C   UNL     1     -40.962  54.194 -52.996  1.00  0.00     0.036 A 
HETATM   18  C   UNL     1     -41.034  53.903 -54.363  1.00  0.00     0.032 A 
HETATM   19  C   UNL     1     -40.657  52.650 -54.861  1.00  0.00     0.042 A 
HETATM   20  C   UNL     1     -40.179  51.673 -53.995  1.00  0.00     0.102 A 
HETATM   21  C   UNL     1     -40.098  51.944 -52.628  1.00  0.00     0.104 A 
HETATM   22  O   UNL     1     -39.812  50.476 -54.550  1.00  0.00    -0.346 OA
HETATM   23  C   UNL     1     -40.463  53.198 -52.138  1.00  0.00     0.069 A 
HETATM   24  O   UNL     1     -39.661  51.026 -51.706  1.00  0.00    -0.346 OA
HETATM   25  C   UNL     1     -39.661  49.701 -52.252  1.00  0.00     0.202 C 
HETATM   26  C   UNL     1     -39.035  49.693 -53.637  1.00  0.00     0.202 C 
ENDBRANCH  15  17
ENDBRANCH   1  15
TORSDOF 2
ENDMDL
MODEL 10
REMARK VINA RESULT:      -7.2      2.000      2.557
REMARK  2 active torsions:
REMARK  status: ('A' for Active; 'I' for Inactive)
REMARK    1  A    between atoms: C_2  and  N_3 
REMARK    2  A    between atoms: N_3  and  C_4 
ROOT
HETATM    1  C   UNL     1     -41.723  57.586 -54.589  1.00  0.00     0.143 A 
HETATM    2  N   UNL     1     -41.642  58.915 -54.332  1.00  0.00    -0.223 NA
HETATM    3  C   UNL     1     -41.419  59.339 -53.084  1.00  0.00     0.236 A 
HETATM    4  N   UNL     1     -41.270  58.589 -51.997  1.00  0.00    -0.234 NA
HETATM    5  C   UNL     1     -41.322  57.277 -52.269  1.00  0.00     0.114 A 
HETATM    6  C   UNL     1     -41.503  56.683 -53.512  1.00  0.00     0.053 A 
HETATM    7  S   UNL     1     -41.189  56.155 -51.004  1.00  0.00    -0.073 SA
HETATM    8  C   UNL     1     -41.310  54.831 -52.068  1.00  0.00    -0.008 C 
HETATM    9  C   UNL     1     -41.398  55.226 -53.397  1.00  0.00    -0.028 C 
HETATM   10  C   UNL     1     -41.375  54.235 -54.531  1.00  0.00     0.041 C 
HETATM   11  C   UNL     1     -40.158  53.304 -54.508  1.00  0.00     0.005 C 
HETATM   12  C   UNL     1     -40.235  52.176 -53.479  1.00  0.00     0.001 C 
HETATM   13  C   UNL     1     -40.099  52.626 -52.024  1.00  0.00     0.005 C 
HETATM   14  C   UNL     1     -41.290  53.436 -51.516  1.00  0.00     0.047 C 
ENDROOT
BRANCH   1  15
HETATM   15  N   UNL     1     -42.098  57.144 -55.871  1.00  0.00    -0.340 N 
HETATM   16  H   UNL     1     -42.087  56.135 -55.930  1.00  0.00     0.167 HD
BRANCH  15  17
HETATM   17  C   UNL     1     -42.886  57.747 -56.871  1.00  0.00     0.036 A 
HETATM   18  C   UNL     1     -44.285  57.781 -56.837  1.00  0.00     0.032 A 
HETATM   19  C   UNL     1     -45.022  58.418 -57.842  1.00  0.00     0.042 A 
HETATM   20  C   UNL     1     -44.364  59.052 -58.891  1.00  0.00     0.102 A 
HETATM   21  C   UNL     1     -42.969  59.031 -58.942  1.00  0.00     0.104 A 
HETATM   22  O   UNL     1     -45.145  59.669 -59.832  1.00  0.00    -0.346 OA
HETATM   23  C   UNL     1     -42.239  58.405 -57.931  1.00  0.00     0.069 A 
HETATM   24  O   UNL     1     -42.247  59.611 -59.955  1.00  0.00    -0.346 OA
HETATM   25  C   UNL     1     -43.077  59.894 -61.088  1.00  0.00     0.202 C 
HETATM   26  C   UNL     1     -44.373  60.557 -60.650  1.00  0.00     0.202 C 
ENDBRANCH  15  17
ENDBRANCH   1  15
TORSDOF 2
ENDMDL
