MODEL 1
REMARK VINA RESULT:      -9.1      0.000      0.000
REMARK  6 active torsions:
REMARK  status: ('A' for Active; 'I' for Inactive)
REMARK    1  A    between atoms: C_2  and  N_3 
REMARK    2  A    between atoms: C_11  and  C_12 
REMARK    3  A    between atoms: C_14  and  C_15 
REMARK    4  A    between atoms: C_15  and  O_16 
REMARK    5  A    between atoms: O_16  and  C_17 
REMARK    6  A    between atoms: C_19  and  C_20 
ROOT
HETATM    1  N   UNL     1     -39.809  52.162 -53.424  1.00  0.00    -0.067 N 
HETATM    2  H   UNL     1     -39.127  52.901 -53.638  1.00  0.00     0.280 HD
HETATM    3  C   UNL     1     -41.081  52.520 -54.194  1.00  0.00     0.281 C 
HETATM    4  C   UNL     1     -41.770  53.691 -53.579  1.00  0.00     0.018 A 
HETATM    5  C   UNL     1     -41.499  54.209 -52.327  1.00  0.00    -0.023 A 
HETATM    6  C   UNL     1     -42.376  55.297 -52.016  1.00  0.00     0.073 A 
HETATM    7  C   UNL     1     -43.271  55.538 -53.030  1.00  0.00     0.088 A 
HETATM    8  N   UNL     1     -44.231  56.481 -52.959  1.00  0.00    -0.357 N 
HETATM    9  C   UNL     1     -44.143  57.514 -51.941  1.00  0.00     0.243 C 
HETATM   10  N   UNL     1     -43.470  57.006 -50.770  1.00  0.00    -0.330 N 
HETATM   11  C   UNL     1     -42.451  56.097 -50.806  1.00  0.00     0.256 C 
HETATM   12  O   UNL     1     -41.682  55.943 -49.864  1.00  0.00    -0.267 OA
HETATM   13  S   UNL     1     -43.047  54.502 -54.360  1.00  0.00    -0.074 SA
HETATM   14  C   UNL     1     -40.420  53.635 -51.461  1.00  0.00     0.068 C 
HETATM   15  C   UNL     1     -40.042  52.213 -51.910  1.00  0.00     0.240 C 
HETATM   16  H   UNL     1     -44.760  56.742 -53.786  1.00  0.00     0.162 HD
HETATM   17  H   UNL     1     -43.452  57.618 -49.967  1.00  0.00     0.165 HD
ENDROOT
BRANCH   9  18
HETATM   18  C   UNL     1     -43.482  58.790 -52.353  1.00  0.00     0.095 A 
HETATM   19  O   UNL     1     -43.557  59.100 -53.684  1.00  0.00    -0.313 OA
HETATM   20  C   UNL     1     -42.869  60.263 -53.872  1.00  0.00     0.077 A 
HETATM   21  C   UNL     1     -42.362  60.707 -52.670  1.00  0.00     0.037 A 
HETATM   22  C   UNL     1     -42.760  59.763 -51.691  1.00  0.00     0.039 A 
BRANCH  20  23
HETATM   23  C   UNL     1     -42.805  60.782 -55.265  1.00  0.00     0.240 C 
BRANCH  23  24
HETATM   24  O   UNL     1     -41.732  60.094 -55.903  1.00  0.00    -0.345 OA
BRANCH  24  25
HETATM   25  C   UNL     1     -42.002  59.491 -57.100  1.00  0.00     0.070 A 
HETATM   26  C   UNL     1     -42.358  58.153 -57.286  1.00  0.00     0.052 A 
HETATM   27  C   UNL     1     -42.608  57.650 -58.577  1.00  0.00     0.050 A 
HETATM   28  C   UNL     1     -42.499  58.512 -59.680  1.00  0.00     0.016 A 
HETATM   29  C   UNL     1     -42.148  59.848 -59.496  1.00  0.00     0.004 A 
HETATM   30  C   UNL     1     -41.903  60.331 -58.211  1.00  0.00     0.037 A 
BRANCH  27  31
HETATM   31  C   UNL     1     -42.992  56.207 -58.790  1.00  0.00     0.417 C 
HETATM   32  F   UNL     1     -42.318  55.614 -59.816  1.00  0.00    -0.166 F 
HETATM   33  F   UNL     1     -42.753  55.436 -57.694  1.00  0.00    -0.166 F 
HETATM   34  F   UNL     1     -44.314  56.056 -59.078  1.00  0.00    -0.166 F 
ENDBRANCH  27  31
ENDBRANCH  24  25
ENDBRANCH  23  24
ENDBRANCH  20  23
ENDBRANCH   9  18
BRANCH   1  35
HETATM   35  C   UNL     1     -39.212  50.839 -53.839  1.00  0.00     0.231 C 
HETATM   36  C   UNL     1     -40.269  49.920 -54.423  1.00  0.00     0.034 C 
ENDBRANCH   1  35
TORSDOF 6
ENDMDL
MODEL 2
REMARK VINA RESULT:      -8.9      4.038      8.648
REMARK  6 active torsions:
REMARK  status: ('A' for Active; 'I' for Inactive)
REMARK    1  A    between atoms: C_2  and  N_3 
REMARK    2  A    between atoms: C_11  and  C_12 
REMARK    3  A    between atoms: C_14  and  C_15 
REMARK    4  A    between atoms: C_15  and  O_16 
REMARK    5  A    between atoms: O_16  and  C_17 
REMARK    6  A    between atoms: C_19  and  C_20 
ROOT
HETATM    1  N   UNL     1     -43.681  61.262 -51.841  1.00  0.00    -0.067 N 
HETATM    2  H   UNL     1     -42.676  61.253 -52.058  1.00  0.00     0.280 HD
HETATM    3  C   UNL     1     -43.954  59.989 -51.039  1.00  0.00     0.281 C 
HETATM    4  C   UNL     1     -43.890  58.780 -51.910  1.00  0.00     0.018 A 
HETATM    5  C   UNL     1     -43.891  58.792 -53.292  1.00  0.00    -0.023 A 
HETATM    6  C   UNL     1     -43.877  57.461 -53.821  1.00  0.00     0.073 A 
HETATM    7  C   UNL     1     -43.884  56.515 -52.824  1.00  0.00     0.088 A 
HETATM    8  N   UNL     1     -43.921  55.189 -53.065  1.00  0.00    -0.357 N 
HETATM    9  C   UNL     1     -43.611  54.697 -54.396  1.00  0.00     0.243 C 
HETATM   10  N   UNL     1     -43.983  55.674 -55.390  1.00  0.00    -0.330 N 
HETATM   11  C   UNL     1     -43.901  57.025 -55.205  1.00  0.00     0.256 C 
HETATM   12  O   UNL     1     -43.889  57.811 -56.146  1.00  0.00    -0.267 OA
HETATM   13  S   UNL     1     -43.869  57.203 -51.269  1.00  0.00    -0.074 SA
HETATM   14  C   UNL     1     -43.920  60.075 -54.062  1.00  0.00     0.068 C 
HETATM   15  C   UNL     1     -44.414  61.240 -53.187  1.00  0.00     0.240 C 
HETATM   16  H   UNL     1     -43.756  54.525 -52.316  1.00  0.00     0.162 HD
HETATM   17  H   UNL     1     -43.902  55.381 -56.354  1.00  0.00     0.165 HD
ENDROOT
BRANCH   9  18
HETATM   18  C   UNL     1     -42.191  54.294 -54.634  1.00  0.00     0.095 A 
HETATM   19  O   UNL     1     -41.885  52.989 -54.359  1.00  0.00    -0.313 OA
HETATM   20  C   UNL     1     -40.551  52.823 -54.594  1.00  0.00     0.077 A 
HETATM   21  C   UNL     1     -40.002  54.010 -55.030  1.00  0.00     0.037 A 
HETATM   22  C   UNL     1     -41.056  54.955 -55.061  1.00  0.00     0.039 A 
BRANCH  20  23
HETATM   23  C   UNL     1     -39.993  51.468 -54.339  1.00  0.00     0.240 C 
BRANCH  23  24
HETATM   24  O   UNL     1     -39.043  51.614 -53.287  1.00  0.00    -0.345 OA
BRANCH  24  25
HETATM   25  C   UNL     1     -39.533  51.730 -52.016  1.00  0.00     0.070 A 
HETATM   26  C   UNL     1     -39.799  52.924 -51.341  1.00  0.00     0.052 A 
HETATM   27  C   UNL     1     -40.300  52.908 -50.026  1.00  0.00     0.050 A 
HETATM   28  C   UNL     1     -40.536  51.675 -49.399  1.00  0.00     0.016 A 
HETATM   29  C   UNL     1     -40.275  50.483 -50.071  1.00  0.00     0.004 A 
HETATM   30  C   UNL     1     -39.777  50.515 -51.373  1.00  0.00     0.037 A 
BRANCH  27  31
HETATM   31  C   UNL     1     -40.590  54.192 -49.288  1.00  0.00     0.417 C 
HETATM   32  F   UNL     1     -40.112  54.200 -48.011  1.00  0.00    -0.166 F 
HETATM   33  F   UNL     1     -40.043  55.279 -49.897  1.00  0.00    -0.166 F 
HETATM   34  F   UNL     1     -41.924  54.446 -49.188  1.00  0.00    -0.166 F 
ENDBRANCH  27  31
ENDBRANCH  24  25
ENDBRANCH  23  24
ENDBRANCH  20  23
ENDBRANCH   9  18
BRANCH   1  35
HETATM   35  C   UNL     1     -43.984  62.527 -51.075  1.00  0.00     0.231 C 
HETATM   36  C   UNL     1     -42.798  62.954 -50.231  1.00  0.00     0.034 C 
ENDBRANCH   1  35
TORSDOF 6
ENDMDL
MODEL 3
REMARK VINA RESULT:      -8.7      1.075      1.445
REMARK  6 active torsions:
REMARK  status: ('A' for Active; 'I' for Inactive)
REMARK    1  A    between atoms: C_2  and  N_3 
REMARK    2  A    between atoms: C_11  and  C_12 
REMARK    3  A    between atoms: C_14  and  C_15 
REMARK    4  A    between atoms: C_15  and  O_16 
REMARK    5  A    between atoms: O_16  and  C_17 
REMARK    6  A    between atoms: C_19  and  C_20 
ROOT
HETATM    1  N   UNL     1     -39.934  52.182 -53.294  1.00  0.00    -0.067 N 
HETATM    2  H   UNL     1     -39.269  52.873 -53.664  1.00  0.00     0.280 HD
HETATM    3  C   UNL     1     -41.257  52.433 -54.019  1.00  0.00     0.281 C 
HETATM    4  C   UNL     1     -41.900  53.692 -53.544  1.00  0.00     0.018 A 
HETATM    5  C   UNL     1     -41.542  54.391 -52.407  1.00  0.00    -0.023 A 
HETATM    6  C   UNL     1     -42.394  55.524 -52.205  1.00  0.00     0.073 A 
HETATM    7  C   UNL     1     -43.358  55.618 -53.180  1.00  0.00     0.088 A 
HETATM    8  N   UNL     1     -44.311  56.572 -53.187  1.00  0.00    -0.357 N 
HETATM    9  C   UNL     1     -44.151  57.746 -52.347  1.00  0.00     0.243 C 
HETATM   10  N   UNL     1     -43.398  57.414 -51.162  1.00  0.00    -0.330 N 
HETATM   11  C   UNL     1     -42.384  56.499 -51.130  1.00  0.00     0.256 C 
HETATM   12  O   UNL     1     -41.551  56.481 -50.230  1.00  0.00    -0.267 OA
HETATM   13  S   UNL     1     -43.229  54.389 -54.348  1.00  0.00    -0.074 SA
HETATM   14  C   UNL     1     -40.406  53.943 -51.541  1.00  0.00     0.068 C 
HETATM   15  C   UNL     1     -40.061  52.466 -51.793  1.00  0.00     0.240 C 
HETATM   16  H   UNL     1     -44.896  56.710 -54.005  1.00  0.00     0.162 HD
HETATM   17  H   UNL     1     -43.323  58.142 -50.465  1.00  0.00     0.165 HD
ENDROOT
BRANCH   9  18
HETATM   18  C   UNL     1     -43.519  58.937 -52.993  1.00  0.00     0.095 A 
HETATM   19  O   UNL     1     -43.609  58.995 -54.358  1.00  0.00    -0.313 OA
HETATM   20  C   UNL     1     -42.947  60.116 -54.764  1.00  0.00     0.077 A 
HETATM   21  C   UNL     1     -42.443  60.785 -53.669  1.00  0.00     0.037 A 
HETATM   22  C   UNL     1     -42.815  60.030 -52.529  1.00  0.00     0.039 A 
BRANCH  20  23
HETATM   23  C   UNL     1     -42.902  60.370 -56.229  1.00  0.00     0.240 C 
BRANCH  23  24
HETATM   24  O   UNL     1     -43.942  59.584 -56.806  1.00  0.00    -0.345 OA
BRANCH  24  25
HETATM   25  C   UNL     1     -43.582  58.684 -57.771  1.00  0.00     0.070 A 
HETATM   26  C   UNL     1     -44.376  57.650 -58.270  1.00  0.00     0.052 A 
HETATM   27  C   UNL     1     -43.884  56.785 -59.266  1.00  0.00     0.050 A 
HETATM   28  C   UNL     1     -42.583  56.976 -59.756  1.00  0.00     0.016 A 
HETATM   29  C   UNL     1     -41.791  58.010 -59.263  1.00  0.00     0.004 A 
HETATM   30  C   UNL     1     -42.291  58.859 -58.276  1.00  0.00     0.037 A 
BRANCH  27  31
HETATM   31  C   UNL     1     -44.734  55.663 -59.811  1.00  0.00     0.417 C 
HETATM   32  F   UNL     1     -46.069  55.852 -59.612  1.00  0.00    -0.166 F 
HETATM   33  F   UNL     1     -44.577  55.494 -61.152  1.00  0.00    -0.166 F 
HETATM   34  F   UNL     1     -44.439  54.462 -59.242  1.00  0.00    -0.166 F 
ENDBRANCH  27  31
ENDBRANCH  24  25
ENDBRANCH  23  24
ENDBRANCH  20  23
ENDBRANCH   9  18
BRANCH   1  35
HETATM   35  C   UNL     1     -39.369  50.805 -53.543  1.00  0.00     0.231 C 
HETATM   36  C   UNL     1     -40.307  49.974 -54.398  1.00  0.00     0.034 C 
ENDBRANCH   1  35
TORSDOF 6
ENDMDL
MODEL 4
REMARK VINA RESULT:      -8.7      3.583      7.873
REMARK  6 active torsions:
REMARK  status: ('A' for Active; 'I' for Inactive)
REMARK    1  A    between atoms: C_2  and  N_3 
REMARK    2  A    between atoms: C_11  and  C_12 
REMARK    3  A    between atoms: C_14  and  C_15 
REMARK    4  A    between atoms: C_15  and  O_16 
REMARK    5  A    between atoms: O_16  and  C_17 
REMARK    6  A    between atoms: C_19  and  C_20 
ROOT
HETATM    1  N   UNL     1     -44.639  60.616 -49.575  1.00  0.00    -0.067 N 
HETATM    2  H   UNL     1     -44.563  59.601 -49.425  1.00  0.00     0.280 HD
HETATM    3  C   UNL     1     -45.540  60.800 -50.796  1.00  0.00     0.281 C 
HETATM    4  C   UNL     1     -44.836  60.406 -52.049  1.00  0.00     0.018 A 
HETATM    5  C   UNL     1     -43.475  60.194 -52.167  1.00  0.00    -0.023 A 
HETATM    6  C   UNL     1     -43.114  59.882 -53.517  1.00  0.00     0.073 A 
HETATM    7  C   UNL     1     -44.205  59.889 -54.352  1.00  0.00     0.088 A 
HETATM    8  N   UNL     1     -44.120  59.672 -55.680  1.00  0.00    -0.357 N 
HETATM    9  C   UNL     1     -42.912  59.083 -56.231  1.00  0.00     0.243 C 
HETATM   10  N   UNL     1     -41.768  59.451 -55.433  1.00  0.00    -0.330 N 
HETATM   11  C   UNL     1     -41.801  59.619 -54.078  1.00  0.00     0.256 C 
HETATM   12  O   UNL     1     -40.785  59.589 -53.392  1.00  0.00    -0.267 OA
HETATM   13  S   UNL     1     -45.655  60.228 -53.531  1.00  0.00    -0.074 SA
HETATM   14  C   UNL     1     -42.562  60.312 -50.986  1.00  0.00     0.068 C 
HETATM   15  C   UNL     1     -43.217  61.118 -49.853  1.00  0.00     0.240 C 
HETATM   16  H   UNL     1     -44.959  59.519 -56.232  1.00  0.00     0.162 HD
HETATM   17  H   UNL     1     -40.866  59.174 -55.795  1.00  0.00     0.165 HD
ENDROOT
BRANCH   9  18
HETATM   18  C   UNL     1     -42.920  57.597 -56.394  1.00  0.00     0.095 A 
HETATM   19  O   UNL     1     -42.860  56.868 -55.238  1.00  0.00    -0.313 OA
HETATM   20  C   UNL     1     -42.834  55.549 -55.587  1.00  0.00     0.077 A 
HETATM   21  C   UNL     1     -42.890  55.427 -56.959  1.00  0.00     0.037 A 
HETATM   22  C   UNL     1     -42.950  56.743 -57.479  1.00  0.00     0.039 A 
BRANCH  20  23
HETATM   23  C   UNL     1     -42.752  54.566 -54.473  1.00  0.00     0.240 C 
BRANCH  23  24
HETATM   24  O   UNL     1     -41.496  54.785 -53.835  1.00  0.00    -0.345 OA
BRANCH  24  25
HETATM   25  C   UNL     1     -40.884  53.698 -53.274  1.00  0.00     0.070 A 
HETATM   26  C   UNL     1     -40.665  52.465 -53.893  1.00  0.00     0.052 A 
HETATM   27  C   UNL     1     -40.023  51.420 -53.203  1.00  0.00     0.050 A 
HETATM   28  C   UNL     1     -39.599  51.632 -51.882  1.00  0.00     0.016 A 
HETATM   29  C   UNL     1     -39.812  52.862 -51.264  1.00  0.00     0.004 A 
HETATM   30  C   UNL     1     -40.450  53.888 -51.960  1.00  0.00     0.037 A 
BRANCH  27  31
HETATM   31  C   UNL     1     -39.783  50.084 -53.862  1.00  0.00     0.417 C 
HETATM   32  F   UNL     1     -38.690  50.073 -54.676  1.00  0.00    -0.166 F 
HETATM   33  F   UNL     1     -39.586  49.085 -52.960  1.00  0.00    -0.166 F 
HETATM   34  F   UNL     1     -40.830  49.691 -54.639  1.00  0.00    -0.166 F 
ENDBRANCH  27  31
ENDBRANCH  24  25
ENDBRANCH  23  24
ENDBRANCH  20  23
ENDBRANCH   9  18
BRANCH   1  35
HETATM   35  C   UNL     1     -45.200  61.236 -48.319  1.00  0.00     0.231 C 
HETATM   36  C   UNL     1     -46.013  62.477 -48.636  1.00  0.00     0.034 C 
ENDBRANCH   1  35
TORSDOF 6
ENDMDL
MODEL 5
REMARK VINA RESULT:      -8.6      4.136      8.219
REMARK  6 active torsions:
REMARK  status: ('A' for Active; 'I' for Inactive)
REMARK    1  A    between atoms: C_2  and  N_3 
REMARK    2  A    between atoms: C_11  and  C_12 
REMARK    3  A    between atoms: C_14  and  C_15 
REMARK    4  A    between atoms: C_15  and  O_16 
REMARK    5  A    between atoms: O_16  and  C_17 
REMARK    6  A    between atoms: C_19  and  C_20 
ROOT
HETATM    1  N   UNL     1     -42.010  60.138 -60.005  1.00  0.00    -0.067 N 
HETATM    2  H   UNL     1     -41.151  60.206 -59.443  1.00  0.00     0.280 HD
HETATM    3  C   UNL     1     -43.144  60.641 -59.112  1.00  0.00     0.281 C 
HETATM    4  C   UNL     1     -43.460  59.656 -58.038  1.00  0.00     0.018 A 
HETATM    5  C   UNL     1     -43.028  58.343 -58.007  1.00  0.00    -0.023 A 
HETATM    6  C   UNL     1     -43.554  57.651 -56.869  1.00  0.00     0.073 A 
HETATM    7  C   UNL     1     -44.365  58.460 -56.109  1.00  0.00     0.088 A 
HETATM    8  N   UNL     1     -45.018  58.029 -55.012  1.00  0.00    -0.357 N 
HETATM    9  C   UNL     1     -44.620  56.778 -54.390  1.00  0.00     0.243 C 
HETATM   10  N   UNL     1     -44.094  55.872 -55.382  1.00  0.00    -0.330 N 
HETATM   11  C   UNL     1     -43.374  56.266 -56.474  1.00  0.00     0.256 C 
HETATM   12  O   UNL     1     -42.661  55.489 -57.099  1.00  0.00    -0.267 OA
HETATM   13  S   UNL     1     -44.472  60.042 -56.724  1.00  0.00    -0.074 SA
HETATM   14  C   UNL     1     -42.138  57.789 -59.075  1.00  0.00     0.068 C 
HETATM   15  C   UNL     1     -42.187  58.654 -60.346  1.00  0.00     0.240 C 
HETATM   16  H   UNL     1     -45.468  58.691 -54.387  1.00  0.00     0.162 HD
HETATM   17  H   UNL     1     -43.886  54.936 -55.064  1.00  0.00     0.165 HD
ENDROOT
BRANCH   9  18
HETATM   18  C   UNL     1     -43.633  56.883 -53.272  1.00  0.00     0.095 A 
HETATM   19  O   UNL     1     -42.807  55.805 -53.099  1.00  0.00    -0.313 OA
HETATM   20  C   UNL     1     -42.016  56.065 -52.019  1.00  0.00     0.077 A 
HETATM   21  C   UNL     1     -42.320  57.307 -51.504  1.00  0.00     0.037 A 
HETATM   22  C   UNL     1     -43.357  57.836 -52.311  1.00  0.00     0.039 A 
BRANCH  20  23
HETATM   23  C   UNL     1     -41.042  55.007 -51.636  1.00  0.00     0.240 C 
BRANCH  23  24
HETATM   24  O   UNL     1     -40.515  54.485 -52.853  1.00  0.00    -0.345 OA
BRANCH  24  25
HETATM   25  C   UNL     1     -40.296  53.136 -52.909  1.00  0.00     0.070 A 
HETATM   26  C   UNL     1     -40.122  52.283 -51.816  1.00  0.00     0.052 A 
HETATM   27  C   UNL     1     -39.898  50.907 -52.010  1.00  0.00     0.050 A 
HETATM   28  C   UNL     1     -39.855  50.398 -53.317  1.00  0.00     0.016 A 
HETATM   29  C   UNL     1     -40.032  51.246 -54.408  1.00  0.00     0.004 A 
HETATM   30  C   UNL     1     -40.252  52.608 -54.201  1.00  0.00     0.037 A 
BRANCH  27  31
HETATM   31  C   UNL     1     -39.708  49.978 -50.837  1.00  0.00     0.417 C 
HETATM   32  F   UNL     1     -38.403  49.654 -50.610  1.00  0.00    -0.166 F 
HETATM   33  F   UNL     1     -40.167  50.507 -49.671  1.00  0.00    -0.166 F 
HETATM   34  F   UNL     1     -40.361  48.794 -50.998  1.00  0.00    -0.166 F 
ENDBRANCH  27  31
ENDBRANCH  24  25
ENDBRANCH  23  24
ENDBRANCH  20  23
ENDBRANCH   9  18
BRANCH   1  35
HETATM   35  C   UNL     1     -41.821  60.966 -61.253  1.00  0.00     0.231 C 
HETATM   36  C   UNL     1     -43.155  61.403 -61.828  1.00  0.00     0.034 C 
ENDBRANCH   1  35
TORSDOF 6
ENDMDL
MODEL 6
REMARK VINA RESULT:      -8.6      3.104      5.440
REMARK  6 active torsions:
REMARK  status: ('A' for Active; 'I' for Inactive)
REMARK    1  A    between atoms: C_2  and  N_3 
REMARK    2  A    between atoms: C_11  and  C_12 
REMARK    3  A    between atoms: C_14  and  C_15 
REMARK    4  A    between atoms: C_15  and  O_16 
REMARK    5  A    between atoms: O_16  and  C_17 
REMARK    6  A    between atoms: C_19  and  C_20 
ROOT
HETATM    1  N   UNL     1     -40.896  54.086 -50.858  1.00  0.00    -0.067 N 
HETATM    2  H   UNL     1     -40.572  55.050 -50.703  1.00  0.00     0.280 HD
HETATM    3  C   UNL     1     -40.349  53.668 -52.223  1.00  0.00     0.281 C 
HETATM    4  C   UNL     1     -41.069  54.364 -53.328  1.00  0.00     0.018 A 
HETATM    5  C   UNL     1     -42.259  55.054 -53.194  1.00  0.00    -0.023 A 
HETATM    6  C   UNL     1     -42.712  55.557 -54.456  1.00  0.00     0.073 A 
HETATM    7  C   UNL     1     -41.860  55.212 -55.479  1.00  0.00     0.088 A 
HETATM    8  N   UNL     1     -42.090  55.527 -56.769  1.00  0.00    -0.357 N 
HETATM    9  C   UNL     1     -43.079  56.540 -57.091  1.00  0.00     0.243 C 
HETATM   10  N   UNL     1     -44.122  56.556 -56.094  1.00  0.00    -0.330 N 
HETATM   11  C   UNL     1     -43.917  56.305 -54.767  1.00  0.00     0.256 C 
HETATM   12  O   UNL     1     -44.718  56.652 -53.907  1.00  0.00    -0.267 OA
HETATM   13  S   UNL     1     -40.512  54.329 -54.936  1.00  0.00    -0.074 SA
HETATM   14  C   UNL     1     -42.933  55.197 -51.865  1.00  0.00     0.068 C 
HETATM   15  C   UNL     1     -42.428  54.142 -50.867  1.00  0.00     0.240 C 
HETATM   16  H   UNL     1     -41.363  55.404 -57.466  1.00  0.00     0.162 HD
HETATM   17  H   UNL     1     -44.911  57.158 -56.285  1.00  0.00     0.165 HD
ENDROOT
BRANCH   9  18
HETATM   18  C   UNL     1     -42.563  57.933 -57.261  1.00  0.00     0.095 A 
HETATM   19  O   UNL     1     -42.805  58.792 -56.224  1.00  0.00    -0.313 OA
HETATM   20  C   UNL     1     -42.303  60.011 -56.576  1.00  0.00     0.077 A 
HETATM   21  C   UNL     1     -41.730  59.937 -57.827  1.00  0.00     0.037 A 
HETATM   22  C   UNL     1     -41.892  58.600 -58.267  1.00  0.00     0.039 A 
BRANCH  20  23
HETATM   23  C   UNL     1     -42.473  61.112 -55.590  1.00  0.00     0.240 C 
BRANCH  23  24
HETATM   24  O   UNL     1     -43.376  60.629 -54.598  1.00  0.00    -0.345 OA
BRANCH  24  25
HETATM   25  C   UNL     1     -42.887  60.476 -53.330  1.00  0.00     0.070 A 
HETATM   26  C   UNL     1     -42.046  59.451 -52.890  1.00  0.00     0.052 A 
HETATM   27  C   UNL     1     -41.613  59.404 -51.552  1.00  0.00     0.050 A 
HETATM   28  C   UNL     1     -42.034  60.404 -50.661  1.00  0.00     0.016 A 
HETATM   29  C   UNL     1     -42.869  61.429 -51.099  1.00  0.00     0.004 A 
HETATM   30  C   UNL     1     -43.290  61.462 -52.428  1.00  0.00     0.037 A 
BRANCH  27  31
HETATM   31  C   UNL     1     -40.706  58.300 -51.066  1.00  0.00     0.417 C 
HETATM   32  F   UNL     1     -41.234  57.582 -50.034  1.00  0.00    -0.166 F 
HETATM   33  F   UNL     1     -40.416  57.396 -52.039  1.00  0.00    -0.166 F 
HETATM   34  F   UNL     1     -39.509  58.769 -50.617  1.00  0.00    -0.166 F 
ENDBRANCH  27  31
ENDBRANCH  24  25
ENDBRANCH  23  24
ENDBRANCH  20  23
ENDBRANCH   9  18
BRANCH   1  35
HETATM   35  C   UNL     1     -40.388  53.231 -49.724  1.00  0.00     0.231 C 
HETATM   36  C   UNL     1     -40.422  53.988 -48.409  1.00  0.00     0.034 C 
ENDBRANCH   1  35
TORSDOF 6
ENDMDL
MODEL 7
REMARK VINA RESULT:      -8.4      4.002      9.037
REMARK  6 active torsions:
REMARK  status: ('A' for Active; 'I' for Inactive)
REMARK    1  A    between atoms: C_2  and  N_3 
REMARK    2  A    between atoms: C_11  and  C_12 
REMARK    3  A    between atoms: C_14  and  C_15 
REMARK    4  A    between atoms: C_15  and  O_16 
REMARK    5  A    between atoms: O_16  and  C_17 
REMARK    6  A    between atoms: C_19  and  C_20 
ROOT
HETATM    1  N   UNL     1     -40.456  62.225 -60.301  1.00  0.00    -0.067 N 
HETATM    2  H   UNL     1     -39.713  61.523 -60.184  1.00  0.00     0.280 HD
HETATM    3  C   UNL     1     -41.058  62.444 -58.912  1.00  0.00     0.281 C 
HETATM    4  C   UNL     1     -41.874  61.271 -58.488  1.00  0.00     0.018 A 
HETATM    5  C   UNL     1     -42.300  60.252 -59.319  1.00  0.00    -0.023 A 
HETATM    6  C   UNL     1     -43.111  59.309 -58.611  1.00  0.00     0.073 A 
HETATM    7  C   UNL     1     -43.274  59.664 -57.293  1.00  0.00     0.088 A 
HETATM    8  N   UNL     1     -44.034  58.964 -56.428  1.00  0.00    -0.357 N 
HETATM    9  C   UNL     1     -44.440  57.611 -56.769  1.00  0.00     0.243 C 
HETATM   10  N   UNL     1     -44.569  57.473 -58.199  1.00  0.00    -0.330 N 
HETATM   11  C   UNL     1     -43.777  58.118 -59.105  1.00  0.00     0.256 C 
HETATM   12  O   UNL     1     -43.672  57.737 -60.266  1.00  0.00    -0.267 OA
HETATM   13  S   UNL     1     -42.437  61.089 -56.892  1.00  0.00    -0.074 SA
HETATM   14  C   UNL     1     -41.929  60.222 -60.770  1.00  0.00     0.068 C 
HETATM   15  C   UNL     1     -41.482  61.610 -61.260  1.00  0.00     0.240 C 
HETATM   16  H   UNL     1     -43.995  59.159 -55.432  1.00  0.00     0.162 HD
HETATM   17  H   UNL     1     -44.949  56.596 -58.528  1.00  0.00     0.165 HD
ENDROOT
BRANCH   9  18
HETATM   18  C   UNL     1     -43.561  56.513 -56.262  1.00  0.00     0.095 A 
HETATM   19  O   UNL     1     -43.373  56.473 -54.908  1.00  0.00    -0.313 OA
HETATM   20  C   UNL     1     -42.519  55.443 -54.643  1.00  0.00     0.077 A 
HETATM   21  C   UNL     1     -42.167  54.813 -55.818  1.00  0.00     0.037 A 
HETATM   22  C   UNL     1     -42.840  55.497 -56.859  1.00  0.00     0.039 A 
BRANCH  20  23
HETATM   23  C   UNL     1     -42.159  55.225 -53.216  1.00  0.00     0.240 C 
BRANCH  23  24
HETATM   24  O   UNL     1     -40.773  54.894 -53.196  1.00  0.00    -0.345 OA
BRANCH  24  25
HETATM   25  C   UNL     1     -40.435  53.653 -52.731  1.00  0.00     0.070 A 
HETATM   26  C   UNL     1     -40.244  52.506 -53.506  1.00  0.00     0.052 A 
HETATM   27  C   UNL     1     -39.900  51.282 -52.903  1.00  0.00     0.050 A 
HETATM   28  C   UNL     1     -39.745  51.226 -51.509  1.00  0.00     0.016 A 
HETATM   29  C   UNL     1     -39.930  52.369 -50.734  1.00  0.00     0.004 A 
HETATM   30  C   UNL     1     -40.272  53.575 -51.346  1.00  0.00     0.037 A 
BRANCH  27  31
HETATM   31  C   UNL     1     -39.693  50.038 -53.731  1.00  0.00     0.417 C 
HETATM   32  F   UNL     1     -40.808  49.652 -54.414  1.00  0.00    -0.166 F 
HETATM   33  F   UNL     1     -38.717  50.189 -54.666  1.00  0.00    -0.166 F 
HETATM   34  F   UNL     1     -39.330  48.964 -52.976  1.00  0.00    -0.166 F 
ENDBRANCH  27  31
ENDBRANCH  24  25
ENDBRANCH  23  24
ENDBRANCH  20  23
ENDBRANCH   9  18
BRANCH   1  35
HETATM   35  C   UNL     1     -39.839  63.470 -60.888  1.00  0.00     0.231 C 
HETATM   36  C   UNL     1     -39.168  64.307 -59.815  1.00  0.00     0.034 C 
ENDBRANCH   1  35
TORSDOF 6
ENDMDL
MODEL 8
REMARK VINA RESULT:      -8.4      3.045      7.124
REMARK  6 active torsions:
REMARK  status: ('A' for Active; 'I' for Inactive)
REMARK    1  A    between atoms: C_2  and  N_3 
REMARK    2  A    between atoms: C_11  and  C_12 
REMARK    3  A    between atoms: C_14  and  C_15 
REMARK    4  A    between atoms: C_15  and  O_16 
REMARK    5  A    between atoms: O_16  and  C_17 
REMARK    6  A    between atoms: C_19  and  C_20 
ROOT
HETATM    1  N   UNL     1     -45.701  56.486 -59.140  1.00  0.00    -0.067 N 
HETATM    2  H   UNL     1     -45.849  55.820 -58.371  1.00  0.00     0.280 HD
HETATM    3  C   UNL     1     -44.206  56.805 -59.145  1.00  0.00     0.281 C 
HETATM    4  C   UNL     1     -43.835  57.665 -57.985  1.00  0.00     0.018 A 
HETATM    5  C   UNL     1     -44.728  58.344 -57.178  1.00  0.00    -0.023 A 
HETATM    6  C   UNL     1     -44.045  59.122 -56.189  1.00  0.00     0.073 A 
HETATM    7  C   UNL     1     -42.680  59.009 -56.304  1.00  0.00     0.088 A 
HETATM    8  N   UNL     1     -41.815  59.682 -55.519  1.00  0.00    -0.357 N 
HETATM    9  C   UNL     1     -42.294  60.295 -54.292  1.00  0.00     0.243 C 
HETATM   10  N   UNL     1     -43.674  60.688 -54.434  1.00  0.00    -0.330 N 
HETATM   11  C   UNL     1     -44.595  59.998 -55.170  1.00  0.00     0.256 C 
HETATM   12  O   UNL     1     -45.802  60.143 -55.005  1.00  0.00    -0.267 OA
HETATM   13  S   UNL     1     -42.214  57.957 -57.555  1.00  0.00    -0.074 SA
HETATM   14  C   UNL     1     -46.207  58.239 -57.389  1.00  0.00     0.068 C 
HETATM   15  C   UNL     1     -46.534  57.728 -58.802  1.00  0.00     0.240 C 
HETATM   16  H   UNL     1     -40.828  59.447 -55.520  1.00  0.00     0.162 HD
HETATM   17  H   UNL     1     -44.067  61.218 -53.668  1.00  0.00     0.165 HD
ENDROOT
BRANCH   9  18
HETATM   18  C   UNL     1     -42.159  59.473 -53.049  1.00  0.00     0.095 A 
HETATM   19  O   UNL     1     -42.876  58.308 -53.022  1.00  0.00    -0.313 OA
HETATM   20  C   UNL     1     -42.662  57.724 -51.808  1.00  0.00     0.077 A 
HETATM   21  C   UNL     1     -41.803  58.501 -51.060  1.00  0.00     0.037 A 
HETATM   22  C   UNL     1     -41.475  59.624 -51.859  1.00  0.00     0.039 A 
BRANCH  20  23
HETATM   23  C   UNL     1     -43.367  56.440 -51.552  1.00  0.00     0.240 C 
BRANCH  23  24
HETATM   24  O   UNL     1     -42.635  55.776 -50.525  1.00  0.00    -0.345 OA
BRANCH  24  25
HETATM   25  C   UNL     1     -41.744  54.814 -50.915  1.00  0.00     0.070 A 
HETATM   26  C   UNL     1     -41.578  54.323 -52.212  1.00  0.00     0.052 A 
HETATM   27  C   UNL     1     -40.624  53.325 -52.483  1.00  0.00     0.050 A 
HETATM   28  C   UNL     1     -39.834  52.830 -51.434  1.00  0.00     0.016 A 
HETATM   29  C   UNL     1     -39.994  53.322 -50.141  1.00  0.00     0.004 A 
HETATM   30  C   UNL     1     -40.945  54.310 -49.887  1.00  0.00     0.037 A 
BRANCH  27  31
HETATM   31  C   UNL     1     -40.437  52.785 -53.880  1.00  0.00     0.417 C 
HETATM   32  F   UNL     1     -39.439  51.861 -53.973  1.00  0.00    -0.166 F 
HETATM   33  F   UNL     1     -41.555  52.176 -54.359  1.00  0.00    -0.166 F 
HETATM   34  F   UNL     1     -40.124  53.760 -54.778  1.00  0.00    -0.166 F 
ENDBRANCH  27  31
ENDBRANCH  24  25
ENDBRANCH  23  24
ENDBRANCH  20  23
ENDBRANCH   9  18
BRANCH   1  35
HETATM   35  C   UNL     1     -46.178  55.841 -60.419  1.00  0.00     0.231 C 
HETATM   36  C   UNL     1     -45.075  55.025 -61.065  1.00  0.00     0.034 C 
ENDBRANCH   1  35
TORSDOF 6
ENDMDL
MODEL 9
REMARK VINA RESULT:      -8.4      2.817      6.107
REMARK  6 active torsions:
REMARK  status: ('A' for Active; 'I' for Inactive)
REMARK    1  A    between atoms: C_2  and  N_3 
REMARK    2  A    between atoms: C_11  and  C_12 
REMARK    3  A    between atoms: C_14  and  C_15 
REMARK    4  A    between atoms: C_15  and  O_16 
REMARK    5  A    between atoms: O_16  and  C_17 
REMARK    6  A    between atoms: C_19  and  C_20 
ROOT
HETATM    1  N   UNL     1     -44.309  59.695 -52.264  1.00  0.00    -0.067 N 
HETATM    2  H   UNL     1     -44.279  59.216 -53.173  1.00  0.00     0.280 HD
HETATM    3  C   UNL     1     -42.872  59.705 -51.741  1.00  0.00     0.281 C 
HETATM    4  C   UNL     1     -42.449  58.345 -51.302  1.00  0.00     0.018 A 
HETATM    5  C   UNL     1     -43.297  57.273 -51.096  1.00  0.00    -0.023 A 
HETATM    6  C   UNL     1     -42.580  56.127 -50.624  1.00  0.00     0.073 A 
HETATM    7  C   UNL     1     -41.238  56.388 -50.481  1.00  0.00     0.088 A 
HETATM    8  N   UNL     1     -40.356  55.485 -50.007  1.00  0.00    -0.357 N 
HETATM    9  C   UNL     1     -40.733  54.084 -49.947  1.00  0.00     0.243 C 
HETATM   10  N   UNL     1     -42.156  53.956 -49.744  1.00  0.00    -0.330 N 
HETATM   11  C   UNL     1     -43.083  54.815 -50.260  1.00  0.00     0.256 C 
HETATM   12  O   UNL     1     -44.266  54.509 -50.368  1.00  0.00    -0.267 OA
HETATM   13  S   UNL     1     -40.827  57.974 -50.939  1.00  0.00    -0.074 SA
HETATM   14  C   UNL     1     -44.770  57.385 -51.342  1.00  0.00     0.068 C 
HETATM   15  C   UNL     1     -45.222  58.854 -51.363  1.00  0.00     0.240 C 
HETATM   16  H   UNL     1     -39.358  55.655 -50.073  1.00  0.00     0.162 HD
HETATM   17  H   UNL     1     -42.500  53.019 -49.585  1.00  0.00     0.165 HD
ENDROOT
BRANCH   9  18
HETATM   18  C   UNL     1     -40.345  53.247 -51.125  1.00  0.00     0.095 A 
HETATM   19  O   UNL     1     -40.537  53.819 -52.353  1.00  0.00    -0.313 OA
HETATM   20  C   UNL     1     -40.170  52.901 -53.293  1.00  0.00     0.077 A 
HETATM   21  C   UNL     1     -39.732  51.748 -52.676  1.00  0.00     0.037 A 
HETATM   22  C   UNL     1     -39.840  51.972 -51.281  1.00  0.00     0.039 A 
BRANCH  20  23
HETATM   23  C   UNL     1     -40.314  53.309 -54.716  1.00  0.00     0.240 C 
BRANCH  23  24
HETATM   24  O   UNL     1     -40.231  54.731 -54.738  1.00  0.00    -0.345 OA
BRANCH  24  25
HETATM   25  C   UNL     1     -41.294  55.411 -55.266  1.00  0.00     0.070 A 
HETATM   26  C   UNL     1     -41.825  55.244 -56.547  1.00  0.00     0.052 A 
HETATM   27  C   UNL     1     -42.925  56.012 -56.973  1.00  0.00     0.050 A 
HETATM   28  C   UNL     1     -43.488  56.947 -56.091  1.00  0.00     0.016 A 
HETATM   29  C   UNL     1     -42.964  57.113 -54.812  1.00  0.00     0.004 A 
HETATM   30  C   UNL     1     -41.873  56.345 -54.404  1.00  0.00     0.037 A 
BRANCH  27  31
HETATM   31  C   UNL     1     -43.506  55.840 -58.355  1.00  0.00     0.417 C 
HETATM   32  F   UNL     1     -44.564  56.663 -58.602  1.00  0.00    -0.166 F 
HETATM   33  F   UNL     1     -42.600  56.094 -59.337  1.00  0.00    -0.166 F 
HETATM   34  F   UNL     1     -43.959  54.575 -58.577  1.00  0.00    -0.166 F 
ENDBRANCH  27  31
ENDBRANCH  24  25
ENDBRANCH  23  24
ENDBRANCH  20  23
ENDBRANCH   9  18
BRANCH   1  35
HETATM   35  C   UNL     1     -44.876  61.076 -52.479  1.00  0.00     0.231 C 
HETATM   36  C   UNL     1     -46.300  61.170 -51.963  1.00  0.00     0.034 C 
ENDBRANCH   1  35
TORSDOF 6
ENDMDL
MODEL 10
REMARK VINA RESULT:      -8.4      4.353      8.682
REMARK  6 active torsions:
REMARK  status: ('A' for Active; 'I' for Inactive)
REMARK    1  A    between atoms: C_2  and  N_3 
REMARK    2  A    between atoms: C_11  and  C_12 
REMARK    3  A    between atoms: C_14  and  C_15 
REMARK    4  A    between atoms: C_15  and  O_16 
REMARK    5  A    between atoms: O_16  and  C_17 
REMARK    6  A    between atoms: C_19  and  C_20 
ROOT
HETATM    1  N   UNL     1     -47.885  57.321 -61.352  1.00  0.00    -0.067 N 
HETATM    2  H   UNL     1     -48.410  57.294 -60.469  1.00  0.00     0.280 HD
HETATM    3  C   UNL     1     -46.776  56.277 -61.220  1.00  0.00     0.281 C 
HETATM    4  C   UNL     1     -45.716  56.734 -60.276  1.00  0.00     0.018 A 
HETATM    5  C   UNL     1     -45.568  58.026 -59.807  1.00  0.00    -0.023 A 
HETATM    6  C   UNL     1     -44.419  58.141 -58.960  1.00  0.00     0.073 A 
HETATM    7  C   UNL     1     -43.749  56.947 -58.842  1.00  0.00     0.088 A 
HETATM    8  N   UNL     1     -42.609  56.806 -58.137  1.00  0.00    -0.357 N 
HETATM    9  C   UNL     1     -42.224  57.838 -57.190  1.00  0.00     0.243 C 
HETATM   10  N   UNL     1     -42.709  59.124 -57.627  1.00  0.00    -0.330 N 
HETATM   11  C   UNL     1     -43.889  59.314 -58.289  1.00  0.00     0.256 C 
HETATM   12  O   UNL     1     -44.436  60.410 -58.344  1.00  0.00    -0.267 OA
HETATM   13  S   UNL     1     -44.501  55.688 -59.703  1.00  0.00    -0.074 SA
HETATM   14  C   UNL     1     -46.521  59.112 -60.198  1.00  0.00     0.068 C 
HETATM   15  C   UNL     1     -47.306  58.736 -61.466  1.00  0.00     0.240 C 
HETATM   16  H   UNL     1     -42.239  55.883 -57.935  1.00  0.00     0.162 HD
HETATM   17  H   UNL     1     -42.403  59.922 -57.087  1.00  0.00     0.165 HD
ENDROOT
BRANCH   9  18
HETATM   18  C   UNL     1     -42.654  57.625 -55.773  1.00  0.00     0.095 A 
HETATM   19  O   UNL     1     -42.632  56.330 -55.330  1.00  0.00    -0.313 OA
HETATM   20  C   UNL     1     -43.092  56.330 -54.046  1.00  0.00     0.077 A 
HETATM   21  C   UNL     1     -43.397  57.617 -53.658  1.00  0.00     0.037 A 
HETATM   22  C   UNL     1     -43.112  58.451 -54.766  1.00  0.00     0.039 A 
BRANCH  20  23
HETATM   23  C   UNL     1     -43.169  55.009 -53.366  1.00  0.00     0.240 C 
BRANCH  23  24
HETATM   24  O   UNL     1     -42.482  54.083 -54.204  1.00  0.00    -0.345 OA
BRANCH  24  25
HETATM   25  C   UNL     1     -41.549  53.277 -53.611  1.00  0.00     0.070 A 
HETATM   26  C   UNL     1     -41.058  52.073 -54.120  1.00  0.00     0.052 A 
HETATM   27  C   UNL     1     -40.097  51.332 -53.406  1.00  0.00     0.050 A 
HETATM   28  C   UNL     1     -39.632  51.821 -52.175  1.00  0.00     0.016 A 
HETATM   29  C   UNL     1     -40.117  53.024 -51.668  1.00  0.00     0.004 A 
HETATM   30  C   UNL     1     -41.070  53.746 -52.386  1.00  0.00     0.037 A 
BRANCH  27  31
HETATM   31  C   UNL     1     -39.561  50.029 -53.946  1.00  0.00     0.417 C 
HETATM   32  F   UNL     1     -38.356  50.159 -54.571  1.00  0.00    -0.166 F 
HETATM   33  F   UNL     1     -39.376  49.097 -52.973  1.00  0.00    -0.166 F 
HETATM   34  F   UNL     1     -40.394  49.461 -54.861  1.00  0.00    -0.166 F 
ENDBRANCH  27  31
ENDBRANCH  24  25
ENDBRANCH  23  24
ENDBRANCH  20  23
ENDBRANCH   9  18
BRANCH   1  35
HETATM   35  C   UNL     1     -48.846  57.033 -62.480  1.00  0.00     0.231 C 
HETATM   36  C   UNL     1     -49.947  58.074 -62.541  1.00  0.00     0.034 C 
ENDBRANCH   1  35
TORSDOF 6
ENDMDL
