MODEL 1
REMARK VINA RESULT:      -8.4      0.000      0.000
REMARK  10 active torsions:
REMARK  status: ('A' for Active; 'I' for Inactive)
REMARK    1  A    between atoms: N_5  and  C_7 
REMARK    2  A    between atoms: C_7  and  C_8 
REMARK    3  A    between atoms: C_8  and  C_9 
REMARK    4  A    between atoms: C_9  and  N_10 
REMARK       I    between atoms: N_10  and  C_11 
REMARK    5  A    between atoms: C_11  and  C_12 
REMARK    6  A    between atoms: C_12  and  C_13 
REMARK    7  A    between atoms: C_13  and  C_14 
REMARK    8  A    between atoms: C_14  and  N_15 
REMARK       I    between atoms: N_15  and  C_16 
REMARK    9  A    between atoms: C_16  and  C_17 
REMARK   10  A    between atoms: C_17  and  N_18 
ROOT
HETATM    1  N   UNL     1     -44.018  57.800 -54.814  1.00  0.00    -0.360 N 
HETATM    2  C   UNL     1     -43.311  56.654 -54.519  1.00  0.00     0.235 C 
HETATM    3  O   UNL     1     -43.837  55.546 -54.434  1.00  0.00    -0.272 OA
HETATM    4  H   UNL     1     -43.554  58.701 -54.707  1.00  0.00     0.162 HD
ENDROOT
BRANCH   1   5
HETATM    5  C   UNL     1     -45.427  57.759 -55.147  1.00  0.00     0.123 C 
BRANCH   5   6
HETATM    6  C   UNL     1     -45.740  58.531 -56.429  1.00  0.00     0.029 C 
BRANCH   6   7
HETATM    7  C   UNL     1     -46.974  57.969 -57.130  1.00  0.00     0.104 C 
BRANCH   7   8
HETATM    8  C   UNL     1     -46.843  57.798 -58.635  1.00  0.00     0.217 C 
HETATM    9  N   UNL     1     -46.454  56.560 -59.087  1.00  0.00    -0.361 N 
HETATM   10  H   UNL     1     -46.081  55.887 -58.425  1.00  0.00     0.162 HD
HETATM   11  O   UNL     1     -47.198  58.675 -59.427  1.00  0.00    -0.274 OA
BRANCH   9  12
HETATM   12  C   UNL     1     -46.231  56.294 -60.493  1.00  0.00     0.124 C 
BRANCH  12  13
HETATM   13  C   UNL     1     -45.226  55.172 -60.745  1.00  0.00     0.047 C 
BRANCH  13  14
HETATM   14  C   UNL     1     -44.225  54.874 -59.626  1.00  0.00     0.236 C 
BRANCH  14  15
HETATM   15  N   UNL     1     -43.149  55.920 -59.450  1.00  0.00    -0.071 N 
HETATM   16  C   UNL     1     -43.089  56.931 -60.564  1.00  0.00     0.235 C 
HETATM   17  C   UNL     1     -41.950  57.914 -60.336  1.00  0.00     0.032 C 
HETATM   18  C   UNL     1     -42.006  58.600 -58.968  1.00  0.00    -0.016 C 
HETATM   19  C   UNL     1     -43.140  59.625 -58.888  1.00  0.00     0.010 C 
HETATM   20  C   UNL     1     -42.112  57.542 -57.866  1.00  0.00     0.032 C 
HETATM   21  C   UNL     1     -43.261  56.568 -58.086  1.00  0.00     0.235 C 
HETATM   22  H   UNL     1     -42.249  55.391 -59.407  1.00  0.00     0.279 HD
ENDBRANCH  14  15
ENDBRANCH  13  14
ENDBRANCH  12  13
ENDBRANCH   9  12
ENDBRANCH   7   8
ENDBRANCH   6   7
ENDBRANCH   5   6
ENDBRANCH   1   5
BRANCH   2  23
HETATM   23  C   UNL     1     -41.837  56.871 -54.210  1.00  0.00     0.235 C 
BRANCH  23  24
HETATM   24  N   UNL     1     -41.404  55.857 -53.266  1.00  0.00    -0.299 N 
HETATM   25  C   UNL     1     -40.837  54.686 -53.761  1.00  0.00     0.262 C 
HETATM   26  O   UNL     1     -40.577  54.522 -54.953  1.00  0.00    -0.267 OA
HETATM   27  C   UNL     1     -40.534  53.701 -52.739  1.00  0.00     0.075 A 
HETATM   28  C   UNL     1     -40.696  54.080 -51.422  1.00  0.00     0.115 A 
HETATM   29  C   UNL     1     -40.108  52.338 -52.865  1.00  0.00    -0.026 A 
HETATM   30  S   UNL     1     -40.297  52.823 -50.342  1.00  0.00    -0.073 SA
HETATM   31  N   UNL     1     -41.130  55.286 -50.973  1.00  0.00    -0.235 NA
HETATM   32  C   UNL     1     -39.968  51.750 -51.621  1.00  0.00    -0.008 A 
HETATM   33  C   UNL     1     -39.561  50.329 -51.375  1.00  0.00     0.047 C 
HETATM   34  C   UNL     1     -39.755  49.496 -52.650  1.00  0.00     0.005 C 
HETATM   35  C   UNL     1     -39.199  50.218 -53.886  1.00  0.00     0.005 C 
HETATM   36  C   UNL     1     -39.904  51.563 -54.134  1.00  0.00     0.041 C 
HETATM   37  C   UNL     1     -41.483  56.107 -51.909  1.00  0.00     0.214 C 
ENDBRANCH  23  24
ENDBRANCH   2  23
TORSDOF 10
ENDMDL
MODEL 2
REMARK VINA RESULT:      -8.3      1.503      2.230
REMARK  10 active torsions:
REMARK  status: ('A' for Active; 'I' for Inactive)
REMARK    1  A    between atoms: N_5  and  C_7 
REMARK    2  A    between atoms: C_7  and  C_8 
REMARK    3  A    between atoms: C_8  and  C_9 
REMARK    4  A    between atoms: C_9  and  N_10 
REMARK       I    between atoms: N_10  and  C_11 
REMARK    5  A    between atoms: C_11  and  C_12 
REMARK    6  A    between atoms: C_12  and  C_13 
REMARK    7  A    between atoms: C_13  and  C_14 
REMARK    8  A    between atoms: C_14  and  N_15 
REMARK       I    between atoms: N_15  and  C_16 
REMARK    9  A    between atoms: C_16  and  C_17 
REMARK   10  A    between atoms: C_17  and  N_18 
ROOT
HETATM    1  N   UNL     1     -42.572  56.880 -56.166  1.00  0.00    -0.360 N 
HETATM    2  C   UNL     1     -42.742  56.633 -54.820  1.00  0.00     0.235 C 
HETATM    3  O   UNL     1     -43.773  56.154 -54.353  1.00  0.00    -0.272 OA
HETATM    4  H   UNL     1     -41.764  57.426 -56.464  1.00  0.00     0.162 HD
ENDROOT
BRANCH   1   5
HETATM    5  C   UNL     1     -43.569  56.494 -57.142  1.00  0.00     0.123 C 
BRANCH   5   6
HETATM    6  C   UNL     1     -42.960  55.742 -58.325  1.00  0.00     0.029 C 
BRANCH   6   7
HETATM    7  C   UNL     1     -43.968  54.785 -58.956  1.00  0.00     0.104 C 
BRANCH   7   8
HETATM    8  C   UNL     1     -44.872  55.398 -60.012  1.00  0.00     0.217 C 
HETATM    9  N   UNL     1     -46.035  55.981 -59.569  1.00  0.00    -0.361 N 
HETATM   10  H   UNL     1     -46.343  55.810 -58.618  1.00  0.00     0.162 HD
HETATM   11  O   UNL     1     -44.528  55.496 -61.193  1.00  0.00    -0.274 OA
BRANCH   9  12
HETATM   12  C   UNL     1     -47.008  56.539 -60.486  1.00  0.00     0.124 C 
BRANCH  12  13
HETATM   13  C   UNL     1     -46.857  58.046 -60.684  1.00  0.00     0.047 C 
BRANCH  13  14
HETATM   14  C   UNL     1     -46.347  58.854 -59.488  1.00  0.00     0.236 C 
BRANCH  14  15
HETATM   15  N   UNL     1     -44.842  58.913 -59.364  1.00  0.00    -0.071 N 
HETATM   16  C   UNL     1     -44.120  58.971 -60.683  1.00  0.00     0.235 C 
HETATM   17  C   UNL     1     -42.612  58.977 -60.471  1.00  0.00     0.032 C 
HETATM   18  C   UNL     1     -42.138  60.087 -59.529  1.00  0.00    -0.016 C 
HETATM   19  C   UNL     1     -42.227  61.468 -60.183  1.00  0.00     0.010 C 
HETATM   20  C   UNL     1     -42.926  60.022 -58.218  1.00  0.00     0.032 C 
HETATM   21  C   UNL     1     -44.434  60.033 -58.430  1.00  0.00     0.235 C 
HETATM   22  H   UNL     1     -44.569  58.044 -58.852  1.00  0.00     0.279 HD
ENDBRANCH  14  15
ENDBRANCH  13  14
ENDBRANCH  12  13
ENDBRANCH   9  12
ENDBRANCH   7   8
ENDBRANCH   6   7
ENDBRANCH   5   6
ENDBRANCH   1   5
BRANCH   2  23
HETATM   23  C   UNL     1     -41.590  57.086 -53.934  1.00  0.00     0.235 C 
BRANCH  23  24
HETATM   24  N   UNL     1     -41.223  55.993 -53.053  1.00  0.00    -0.299 N 
HETATM   25  C   UNL     1     -40.687  54.837 -53.613  1.00  0.00     0.262 C 
HETATM   26  O   UNL     1     -40.400  54.745 -54.806  1.00  0.00    -0.267 OA
HETATM   27  C   UNL     1     -40.451  53.773 -52.654  1.00  0.00     0.075 A 
HETATM   28  C   UNL     1     -40.636  54.068 -51.318  1.00  0.00     0.115 A 
HETATM   29  C   UNL     1     -40.074  52.406 -52.864  1.00  0.00    -0.026 A 
HETATM   30  S   UNL     1     -40.316  52.724 -50.319  1.00  0.00    -0.073 SA
HETATM   31  N   UNL     1     -41.036  55.256 -50.798  1.00  0.00    -0.235 NA
HETATM   32  C   UNL     1     -39.992  51.730 -51.660  1.00  0.00    -0.008 A 
HETATM   33  C   UNL     1     -39.647  50.280 -51.503  1.00  0.00     0.047 C 
HETATM   34  C   UNL     1     -39.836  49.544 -52.837  1.00  0.00     0.005 C 
HETATM   35  C   UNL     1     -39.218  50.326 -54.005  1.00  0.00     0.005 C 
HETATM   36  C   UNL     1     -39.863  51.712 -54.178  1.00  0.00     0.041 C 
HETATM   37  C   UNL     1     -41.331  56.153 -51.684  1.00  0.00     0.214 C 
ENDBRANCH  23  24
ENDBRANCH   2  23
TORSDOF 10
ENDMDL
MODEL 3
REMARK VINA RESULT:      -8.3      1.828      2.674
REMARK  10 active torsions:
REMARK  status: ('A' for Active; 'I' for Inactive)
REMARK    1  A    between atoms: N_5  and  C_7 
REMARK    2  A    between atoms: C_7  and  C_8 
REMARK    3  A    between atoms: C_8  and  C_9 
REMARK    4  A    between atoms: C_9  and  N_10 
REMARK       I    between atoms: N_10  and  C_11 
REMARK    5  A    between atoms: C_11  and  C_12 
REMARK    6  A    between atoms: C_12  and  C_13 
REMARK    7  A    between atoms: C_13  and  C_14 
REMARK    8  A    between atoms: C_14  and  N_15 
REMARK       I    between atoms: N_15  and  C_16 
REMARK    9  A    between atoms: C_16  and  C_17 
REMARK   10  A    between atoms: C_17  and  N_18 
ROOT
HETATM    1  N   UNL     1     -42.745  58.275 -54.718  1.00  0.00    -0.360 N 
HETATM    2  C   UNL     1     -43.253  58.334 -53.437  1.00  0.00     0.235 C 
HETATM    3  O   UNL     1     -43.089  59.300 -52.696  1.00  0.00    -0.272 OA
HETATM    4  H   UNL     1     -42.777  57.386 -55.215  1.00  0.00     0.162 HD
ENDROOT
BRANCH   1   5
HETATM    5  C   UNL     1     -42.060  59.401 -55.316  1.00  0.00     0.123 C 
BRANCH   5   6
HETATM    6  C   UNL     1     -42.496  59.642 -56.761  1.00  0.00     0.029 C 
BRANCH   6   7
HETATM    7  C   UNL     1     -43.783  60.461 -56.826  1.00  0.00     0.104 C 
BRANCH   7   8
HETATM    8  C   UNL     1     -45.051  59.659 -57.069  1.00  0.00     0.217 C 
HETATM    9  N   UNL     1     -45.921  60.148 -58.014  1.00  0.00    -0.361 N 
HETATM   10  H   UNL     1     -45.798  61.095 -58.357  1.00  0.00     0.162 HD
HETATM   11  O   UNL     1     -45.237  58.555 -56.552  1.00  0.00    -0.274 OA
BRANCH   9  12
HETATM   12  C   UNL     1     -47.192  59.509 -58.286  1.00  0.00     0.124 C 
BRANCH  12  13
HETATM   13  C   UNL     1     -47.155  58.581 -59.500  1.00  0.00     0.047 C 
BRANCH  13  14
HETATM   14  C   UNL     1     -46.021  58.801 -60.505  1.00  0.00     0.236 C 
BRANCH  14  15
HETATM   15  N   UNL     1     -44.981  57.705 -60.529  1.00  0.00    -0.071 N 
HETATM   16  C   UNL     1     -43.621  58.140 -60.051  1.00  0.00     0.235 C 
HETATM   17  C   UNL     1     -42.624  56.995 -60.155  1.00  0.00     0.032 C 
HETATM   18  C   UNL     1     -43.084  55.724 -59.435  1.00  0.00    -0.016 C 
HETATM   19  C   UNL     1     -43.020  55.874 -57.913  1.00  0.00     0.010 C 
HETATM   20  C   UNL     1     -44.487  55.340 -59.914  1.00  0.00     0.032 C 
HETATM   21  C   UNL     1     -45.488  56.481 -59.795  1.00  0.00     0.235 C 
HETATM   22  H   UNL     1     -44.921  57.397 -61.525  1.00  0.00     0.279 HD
ENDBRANCH  14  15
ENDBRANCH  13  14
ENDBRANCH  12  13
ENDBRANCH   9  12
ENDBRANCH   7   8
ENDBRANCH   6   7
ENDBRANCH   5   6
ENDBRANCH   1   5
BRANCH   2  23
HETATM   23  C   UNL     1     -43.960  57.070 -52.968  1.00  0.00     0.235 C 
BRANCH  23  24
HETATM   24  N   UNL     1     -42.982  56.188 -52.358  1.00  0.00    -0.299 N 
HETATM   25  C   UNL     1     -42.380  55.213 -53.149  1.00  0.00     0.262 C 
HETATM   26  O   UNL     1     -42.551  55.141 -54.365  1.00  0.00    -0.267 OA
HETATM   27  C   UNL     1     -41.497  54.325 -52.415  1.00  0.00     0.075 A 
HETATM   28  C   UNL     1     -41.243  54.629 -51.093  1.00  0.00     0.115 A 
HETATM   29  C   UNL     1     -40.839  53.122 -52.835  1.00  0.00    -0.026 A 
HETATM   30  S   UNL     1     -40.187  53.501 -50.371  1.00  0.00    -0.073 SA
HETATM   31  N   UNL     1     -41.750  55.673 -50.389  1.00  0.00    -0.235 NA
HETATM   32  C   UNL     1     -40.113  52.571 -51.794  1.00  0.00    -0.008 A 
HETATM   33  C   UNL     1     -39.322  51.301 -51.867  1.00  0.00     0.047 C 
HETATM   34  C   UNL     1     -39.772  50.466 -53.074  1.00  0.00     0.005 C 
HETATM   35  C   UNL     1     -39.902  51.327 -54.339  1.00  0.00     0.005 C 
HETATM   36  C   UNL     1     -40.944  52.446 -54.171  1.00  0.00     0.041 C 
HETATM   37  C   UNL     1     -42.608  56.388 -51.043  1.00  0.00     0.214 C 
ENDBRANCH  23  24
ENDBRANCH   2  23
TORSDOF 10
ENDMDL
MODEL 4
REMARK VINA RESULT:      -8.1      2.181      3.502
REMARK  10 active torsions:
REMARK  status: ('A' for Active; 'I' for Inactive)
REMARK    1  A    between atoms: N_5  and  C_7 
REMARK    2  A    between atoms: C_7  and  C_8 
REMARK    3  A    between atoms: C_8  and  C_9 
REMARK    4  A    between atoms: C_9  and  N_10 
REMARK       I    between atoms: N_10  and  C_11 
REMARK    5  A    between atoms: C_11  and  C_12 
REMARK    6  A    between atoms: C_12  and  C_13 
REMARK    7  A    between atoms: C_13  and  C_14 
REMARK    8  A    between atoms: C_14  and  N_15 
REMARK       I    between atoms: N_15  and  C_16 
REMARK    9  A    between atoms: C_16  and  C_17 
REMARK   10  A    between atoms: C_17  and  N_18 
ROOT
HETATM    1  N   UNL     1     -43.739  58.002 -51.156  1.00  0.00    -0.360 N 
HETATM    2  C   UNL     1     -43.224  57.390 -52.279  1.00  0.00     0.235 C 
HETATM    3  O   UNL     1     -43.930  56.886 -53.151  1.00  0.00    -0.272 OA
HETATM    4  H   UNL     1     -43.102  58.250 -50.400  1.00  0.00     0.162 HD
ENDROOT
BRANCH   1   5
HETATM    5  C   UNL     1     -45.164  58.181 -50.975  1.00  0.00     0.123 C 
BRANCH   5   6
HETATM    6  C   UNL     1     -45.536  59.645 -50.736  1.00  0.00     0.029 C 
BRANCH   6   7
HETATM    7  C   UNL     1     -46.211  60.255 -51.962  1.00  0.00     0.104 C 
BRANCH   7   8
HETATM    8  C   UNL     1     -45.366  60.277 -53.225  1.00  0.00     0.217 C 
HETATM    9  N   UNL     1     -46.033  60.149 -54.420  1.00  0.00    -0.361 N 
HETATM   10  H   UNL     1     -47.002  59.848 -54.415  1.00  0.00     0.162 HD
HETATM   11  O   UNL     1     -44.159  60.534 -53.201  1.00  0.00    -0.274 OA
BRANCH   9  12
HETATM   12  C   UNL     1     -45.331  60.090 -55.685  1.00  0.00     0.124 C 
BRANCH  12  13
HETATM   13  C   UNL     1     -45.333  58.697 -56.313  1.00  0.00     0.047 C 
BRANCH  13  14
HETATM   14  C   UNL     1     -43.969  58.058 -56.586  1.00  0.00     0.236 C 
BRANCH  14  15
HETATM   15  N   UNL     1     -43.780  57.558 -58.000  1.00  0.00    -0.071 N 
HETATM   16  C   UNL     1     -42.974  56.291 -58.099  1.00  0.00     0.235 C 
HETATM   17  C   UNL     1     -42.789  55.885 -59.554  1.00  0.00     0.032 C 
HETATM   18  C   UNL     1     -44.107  55.764 -60.322  1.00  0.00    -0.016 C 
HETATM   19  C   UNL     1     -44.906  54.529 -59.897  1.00  0.00     0.010 C 
HETATM   20  C   UNL     1     -44.918  57.053 -60.160  1.00  0.00     0.032 C 
HETATM   21  C   UNL     1     -45.117  57.450 -58.704  1.00  0.00     0.235 C 
HETATM   22  H   UNL     1     -43.288  58.328 -58.506  1.00  0.00     0.279 HD
ENDBRANCH  14  15
ENDBRANCH  13  14
ENDBRANCH  12  13
ENDBRANCH   9  12
ENDBRANCH   7   8
ENDBRANCH   6   7
ENDBRANCH   5   6
ENDBRANCH   1   5
BRANCH   2  23
HETATM   23  C   UNL     1     -41.705  57.298 -52.321  1.00  0.00     0.235 C 
BRANCH  23  24
HETATM   24  N   UNL     1     -41.303  55.997 -51.820  1.00  0.00    -0.299 N 
HETATM   25  C   UNL     1     -40.810  55.059 -52.724  1.00  0.00     0.262 C 
HETATM   26  O   UNL     1     -40.588  55.323 -53.905  1.00  0.00    -0.267 OA
HETATM   27  C   UNL     1     -40.534  53.762 -52.133  1.00  0.00     0.075 A 
HETATM   28  C   UNL     1     -40.644  53.651 -50.762  1.00  0.00     0.115 A 
HETATM   29  C   UNL     1     -40.182  52.519 -52.756  1.00  0.00    -0.026 A 
HETATM   30  S   UNL     1     -40.285  52.074 -50.220  1.00  0.00    -0.073 SA
HETATM   31  N   UNL     1     -41.004  54.631 -49.895  1.00  0.00    -0.235 NA
HETATM   32  C   UNL     1     -40.043  51.520 -51.810  1.00  0.00    -0.008 A 
HETATM   33  C   UNL     1     -39.705  50.090 -52.104  1.00  0.00     0.047 C 
HETATM   34  C   UNL     1     -39.972  49.777 -53.584  1.00  0.00     0.005 C 
HETATM   35  C   UNL     1     -39.410  50.872 -54.502  1.00  0.00     0.005 C 
HETATM   36  C   UNL     1     -40.049  52.243 -54.225  1.00  0.00     0.041 C 
HETATM   37  C   UNL     1     -41.336  55.747 -50.461  1.00  0.00     0.214 C 
ENDBRANCH  23  24
ENDBRANCH   2  23
TORSDOF 10
ENDMDL
MODEL 5
REMARK VINA RESULT:      -8.0      1.885      2.468
REMARK  10 active torsions:
REMARK  status: ('A' for Active; 'I' for Inactive)
REMARK    1  A    between atoms: N_5  and  C_7 
REMARK    2  A    between atoms: C_7  and  C_8 
REMARK    3  A    between atoms: C_8  and  C_9 
REMARK    4  A    between atoms: C_9  and  N_10 
REMARK       I    between atoms: N_10  and  C_11 
REMARK    5  A    between atoms: C_11  and  C_12 
REMARK    6  A    between atoms: C_12  and  C_13 
REMARK    7  A    between atoms: C_13  and  C_14 
REMARK    8  A    between atoms: C_14  and  N_15 
REMARK       I    between atoms: N_15  and  C_16 
REMARK    9  A    between atoms: C_16  and  C_17 
REMARK   10  A    between atoms: C_17  and  N_18 
ROOT
HETATM    1  N   UNL     1     -43.344  57.172 -53.283  1.00  0.00    -0.360 N 
HETATM    2  C   UNL     1     -43.308  56.951 -51.922  1.00  0.00     0.235 C 
HETATM    3  O   UNL     1     -44.320  56.778 -51.245  1.00  0.00    -0.272 OA
HETATM    4  H   UNL     1     -42.489  57.469 -53.752  1.00  0.00     0.162 HD
ENDROOT
BRANCH   1   5
HETATM    5  C   UNL     1     -44.583  57.117 -54.029  1.00  0.00     0.123 C 
BRANCH   5   6
HETATM    6  C   UNL     1     -44.949  58.469 -54.641  1.00  0.00     0.029 C 
BRANCH   6   7
HETATM    7  C   UNL     1     -44.954  58.408 -56.167  1.00  0.00     0.104 C 
BRANCH   7   8
HETATM    8  C   UNL     1     -43.806  57.629 -56.788  1.00  0.00     0.217 C 
HETATM    9  N   UNL     1     -44.135  56.496 -57.493  1.00  0.00    -0.361 N 
HETATM   10  H   UNL     1     -45.072  56.116 -57.407  1.00  0.00     0.162 HD
HETATM   11  O   UNL     1     -42.647  58.054 -56.784  1.00  0.00    -0.274 OA
BRANCH   9  12
HETATM   12  C   UNL     1     -43.126  55.636 -58.074  1.00  0.00     0.124 C 
BRANCH  12  13
HETATM   13  C   UNL     1     -42.939  55.851 -59.575  1.00  0.00     0.047 C 
BRANCH  13  14
HETATM   14  C   UNL     1     -44.070  56.566 -60.318  1.00  0.00     0.236 C 
BRANCH  14  15
HETATM   15  N   UNL     1     -43.757  57.987 -60.724  1.00  0.00    -0.071 N 
HETATM   16  C   UNL     1     -44.683  59.013 -60.127  1.00  0.00     0.235 C 
HETATM   17  C   UNL     1     -44.332  60.408 -60.624  1.00  0.00     0.032 C 
HETATM   18  C   UNL     1     -42.866  60.783 -60.390  1.00  0.00    -0.016 C 
HETATM   19  C   UNL     1     -42.572  61.045 -58.910  1.00  0.00     0.010 C 
HETATM   20  C   UNL     1     -41.957  59.695 -60.969  1.00  0.00     0.032 C 
HETATM   21  C   UNL     1     -42.299  58.302 -60.460  1.00  0.00     0.235 C 
HETATM   22  H   UNL     1     -43.836  58.006 -61.765  1.00  0.00     0.279 HD
ENDBRANCH  14  15
ENDBRANCH  13  14
ENDBRANCH  12  13
ENDBRANCH   9  12
ENDBRANCH   7   8
ENDBRANCH   6   7
ENDBRANCH   5   6
ENDBRANCH   1   5
BRANCH   2  23
HETATM   23  C   UNL     1     -41.923  57.027 -51.296  1.00  0.00     0.235 C 
BRANCH  23  24
HETATM   24  N   UNL     1     -41.450  55.678 -51.045  1.00  0.00    -0.299 N 
HETATM   25  C   UNL     1     -40.969  54.931 -52.117  1.00  0.00     0.262 C 
HETATM   26  O   UNL     1     -40.816  55.402 -53.243  1.00  0.00    -0.267 OA
HETATM   27  C   UNL     1     -40.618  53.565 -51.772  1.00  0.00     0.075 A 
HETATM   28  C   UNL     1     -40.656  53.217 -50.437  1.00  0.00     0.115 A 
HETATM   29  C   UNL     1     -40.254  52.464 -52.614  1.00  0.00    -0.026 A 
HETATM   30  S   UNL     1     -40.214  51.588 -50.191  1.00  0.00    -0.073 SA
HETATM   31  N   UNL     1     -41.007  54.018 -49.399  1.00  0.00    -0.235 NA
HETATM   32  C   UNL     1     -40.032  51.324 -51.861  1.00  0.00    -0.008 A 
HETATM   33  C   UNL     1     -39.658  49.982 -52.412  1.00  0.00     0.047 C 
HETATM   34  C   UNL     1     -39.988  49.915 -53.911  1.00  0.00     0.005 C 
HETATM   35  C   UNL     1     -39.511  51.174 -54.650  1.00  0.00     0.005 C 
HETATM   36  C   UNL     1     -40.184  52.449 -54.113  1.00  0.00     0.041 C 
HETATM   37  C   UNL     1     -41.406  55.198 -49.749  1.00  0.00     0.214 C 
ENDBRANCH  23  24
ENDBRANCH   2  23
TORSDOF 10
ENDMDL
MODEL 6
REMARK VINA RESULT:      -7.9      2.407      3.598
REMARK  10 active torsions:
REMARK  status: ('A' for Active; 'I' for Inactive)
REMARK    1  A    between atoms: N_5  and  C_7 
REMARK    2  A    between atoms: C_7  and  C_8 
REMARK    3  A    between atoms: C_8  and  C_9 
REMARK    4  A    between atoms: C_9  and  N_10 
REMARK       I    between atoms: N_10  and  C_11 
REMARK    5  A    between atoms: C_11  and  C_12 
REMARK    6  A    between atoms: C_12  and  C_13 
REMARK    7  A    between atoms: C_13  and  C_14 
REMARK    8  A    between atoms: C_14  and  N_15 
REMARK       I    between atoms: N_15  and  C_16 
REMARK    9  A    between atoms: C_16  and  C_17 
REMARK   10  A    between atoms: C_17  and  N_18 
ROOT
HETATM    1  N   UNL     1     -42.713  59.022 -52.678  1.00  0.00    -0.360 N 
HETATM    2  C   UNL     1     -41.785  58.249 -53.343  1.00  0.00     0.235 C 
HETATM    3  O   UNL     1     -40.652  58.645 -53.612  1.00  0.00    -0.272 OA
HETATM    4  H   UNL     1     -43.678  58.696 -52.634  1.00  0.00     0.162 HD
ENDROOT
BRANCH   1   5
HETATM    5  C   UNL     1     -42.379  60.332 -52.160  1.00  0.00     0.123 C 
BRANCH   5   6
HETATM    6  C   UNL     1     -43.566  61.294 -52.213  1.00  0.00     0.029 C 
BRANCH   6   7
HETATM    7  C   UNL     1     -44.336  61.157 -53.524  1.00  0.00     0.104 C 
BRANCH   7   8
HETATM    8  C   UNL     1     -43.641  61.732 -54.748  1.00  0.00     0.217 C 
HETATM    9  N   UNL     1     -43.678  60.975 -55.894  1.00  0.00    -0.361 N 
HETATM   10  H   UNL     1     -43.974  60.006 -55.838  1.00  0.00     0.162 HD
HETATM   11  O   UNL     1     -43.184  62.878 -54.763  1.00  0.00    -0.274 OA
BRANCH   9  12
HETATM   12  C   UNL     1     -42.997  61.387 -57.104  1.00  0.00     0.124 C 
BRANCH  12  13
HETATM   13  C   UNL     1     -42.047  60.324 -57.655  1.00  0.00     0.047 C 
BRANCH  13  14
HETATM   14  C   UNL     1     -41.968  59.002 -56.888  1.00  0.00     0.236 C 
BRANCH  14  15
HETATM   15  N   UNL     1     -42.067  57.767 -57.753  1.00  0.00    -0.071 N 
HETATM   16  C   UNL     1     -43.238  56.880 -57.423  1.00  0.00     0.235 C 
HETATM   17  C   UNL     1     -43.236  55.638 -58.303  1.00  0.00     0.032 C 
HETATM   18  C   UNL     1     -43.185  55.955 -59.799  1.00  0.00    -0.016 C 
HETATM   19  C   UNL     1     -44.511  56.527 -60.308  1.00  0.00     0.010 C 
HETATM   20  C   UNL     1     -42.010  56.894 -60.087  1.00  0.00     0.032 C 
HETATM   21  C   UNL     1     -42.021  58.144 -59.219  1.00  0.00     0.235 C 
HETATM   22  H   UNL     1     -41.176  57.244 -57.597  1.00  0.00     0.279 HD
ENDBRANCH  14  15
ENDBRANCH  13  14
ENDBRANCH  12  13
ENDBRANCH   9  12
ENDBRANCH   7   8
ENDBRANCH   6   7
ENDBRANCH   5   6
ENDBRANCH   1   5
BRANCH   2  23
HETATM   23  C   UNL     1     -42.294  56.891 -53.806  1.00  0.00     0.235 C 
BRANCH  23  24
HETATM   24  N   UNL     1     -41.702  55.862 -52.972  1.00  0.00    -0.299 N 
HETATM   25  C   UNL     1     -41.168  54.733 -53.586  1.00  0.00     0.262 C 
HETATM   26  O   UNL     1     -41.067  54.622 -54.808  1.00  0.00    -0.267 OA
HETATM   27  C   UNL     1     -40.694  53.725 -52.655  1.00  0.00     0.075 A 
HETATM   28  C   UNL     1     -40.688  54.051 -51.314  1.00  0.00     0.115 A 
HETATM   29  C   UNL     1     -40.243  52.386 -52.893  1.00  0.00    -0.026 A 
HETATM   30  S   UNL     1     -40.102  52.772 -50.350  1.00  0.00    -0.073 SA
HETATM   31  N   UNL     1     -41.098  55.221 -50.762  1.00  0.00    -0.235 NA
HETATM   32  C   UNL     1     -39.914  51.760 -51.704  1.00  0.00    -0.008 A 
HETATM   33  C   UNL     1     -39.429  50.349 -51.573  1.00  0.00     0.047 C 
HETATM   34  C   UNL     1     -39.766  49.554 -52.843  1.00  0.00     0.005 C 
HETATM   35  C   UNL     1     -39.409  50.341 -54.112  1.00  0.00     0.005 C 
HETATM   36  C   UNL     1     -40.187  51.665 -54.208  1.00  0.00     0.041 C 
HETATM   37  C   UNL     1     -41.603  56.061 -51.608  1.00  0.00     0.214 C 
ENDBRANCH  23  24
ENDBRANCH   2  23
TORSDOF 10
ENDMDL
MODEL 7
REMARK VINA RESULT:      -7.8      1.673      2.333
REMARK  10 active torsions:
REMARK  status: ('A' for Active; 'I' for Inactive)
REMARK    1  A    between atoms: N_5  and  C_7 
REMARK    2  A    between atoms: C_7  and  C_8 
REMARK    3  A    between atoms: C_8  and  C_9 
REMARK    4  A    between atoms: C_9  and  N_10 
REMARK       I    between atoms: N_10  and  C_11 
REMARK    5  A    between atoms: C_11  and  C_12 
REMARK    6  A    between atoms: C_12  and  C_13 
REMARK    7  A    between atoms: C_13  and  C_14 
REMARK    8  A    between atoms: C_14  and  N_15 
REMARK       I    between atoms: N_15  and  C_16 
REMARK    9  A    between atoms: C_16  and  C_17 
REMARK   10  A    between atoms: C_17  and  N_18 
ROOT
HETATM    1  N   UNL     1     -44.589  58.407 -55.501  1.00  0.00    -0.360 N 
HETATM    2  C   UNL     1     -44.398  58.905 -54.230  1.00  0.00     0.235 C 
HETATM    3  O   UNL     1     -45.324  59.136 -53.455  1.00  0.00    -0.272 OA
HETATM    4  H   UNL     1     -43.798  58.394 -56.145  1.00  0.00     0.162 HD
ENDROOT
BRANCH   1   5
HETATM    5  C   UNL     1     -45.901  58.026 -55.979  1.00  0.00     0.123 C 
BRANCH   5   6
HETATM    6  C   UNL     1     -46.328  58.834 -57.204  1.00  0.00     0.029 C 
BRANCH   6   7
HETATM    7  C   UNL     1     -46.839  57.927 -58.321  1.00  0.00     0.104 C 
BRANCH   7   8
HETATM    8  C   UNL     1     -45.777  57.422 -59.284  1.00  0.00     0.217 C 
HETATM    9  N   UNL     1     -45.322  56.140 -59.087  1.00  0.00    -0.361 N 
HETATM   10  H   UNL     1     -45.546  55.663 -58.220  1.00  0.00     0.162 HD
HETATM   11  O   UNL     1     -45.433  58.067 -60.277  1.00  0.00    -0.274 OA
BRANCH   9  12
HETATM   12  C   UNL     1     -44.266  55.571 -59.898  1.00  0.00     0.124 C 
BRANCH  12  13
HETATM   13  C   UNL     1     -42.866  55.877 -59.370  1.00  0.00     0.047 C 
BRANCH  13  14
HETATM   14  C   UNL     1     -41.968  56.746 -60.253  1.00  0.00     0.236 C 
BRANCH  14  15
HETATM   15  N   UNL     1     -41.704  58.132 -59.712  1.00  0.00    -0.071 N 
HETATM   16  C   UNL     1     -42.125  59.243 -60.637  1.00  0.00     0.235 C 
HETATM   17  C   UNL     1     -41.780  60.600 -60.040  1.00  0.00     0.032 C 
HETATM   18  C   UNL     1     -42.348  60.805 -58.633  1.00  0.00    -0.016 C 
HETATM   19  C   UNL     1     -43.866  61.004 -58.653  1.00  0.00     0.010 C 
HETATM   20  C   UNL     1     -41.936  59.634 -57.735  1.00  0.00     0.032 C 
HETATM   21  C   UNL     1     -42.296  58.278 -58.325  1.00  0.00     0.235 C 
HETATM   22  H   UNL     1     -40.672  58.180 -59.553  1.00  0.00     0.279 HD
ENDBRANCH  14  15
ENDBRANCH  13  14
ENDBRANCH  12  13
ENDBRANCH   9  12
ENDBRANCH   7   8
ENDBRANCH   6   7
ENDBRANCH   5   6
ENDBRANCH   1   5
BRANCH   2  23
HETATM   23  C   UNL     1     -42.954  59.238 -53.882  1.00  0.00     0.235 C 
BRANCH  23  24
HETATM   24  N   UNL     1     -42.393  58.138 -53.121  1.00  0.00    -0.299 N 
HETATM   25  C   UNL     1     -41.814  57.077 -53.812  1.00  0.00     0.262 C 
HETATM   26  O   UNL     1     -41.650  57.085 -55.032  1.00  0.00    -0.267 OA
HETATM   27  C   UNL     1     -41.376  55.988 -52.958  1.00  0.00     0.075 A 
HETATM   28  C   UNL     1     -41.442  56.182 -51.594  1.00  0.00     0.115 A 
HETATM   29  C   UNL     1     -40.896  54.681 -53.300  1.00  0.00    -0.026 A 
HETATM   30  S   UNL     1     -40.890  54.821 -50.728  1.00  0.00    -0.073 SA
HETATM   31  N   UNL     1     -41.894  57.291 -50.954  1.00  0.00    -0.235 NA
HETATM   32  C   UNL     1     -40.621  53.946 -52.161  1.00  0.00    -0.008 A 
HETATM   33  C   UNL     1     -40.125  52.532 -52.142  1.00  0.00     0.047 C 
HETATM   34  C   UNL     1     -40.388  51.861 -53.498  1.00  0.00     0.005 C 
HETATM   35  C   UNL     1     -39.977  52.769 -54.666  1.00  0.00     0.005 C 
HETATM   36  C   UNL     1     -40.765  54.091 -54.674  1.00  0.00     0.041 C 
HETATM   37  C   UNL     1     -42.366  58.204 -51.740  1.00  0.00     0.214 C 
ENDBRANCH  23  24
ENDBRANCH   2  23
TORSDOF 10
ENDMDL
MODEL 8
REMARK VINA RESULT:      -7.8      2.092      3.855
REMARK  10 active torsions:
REMARK  status: ('A' for Active; 'I' for Inactive)
REMARK    1  A    between atoms: N_5  and  C_7 
REMARK    2  A    between atoms: C_7  and  C_8 
REMARK    3  A    between atoms: C_8  and  C_9 
REMARK    4  A    between atoms: C_9  and  N_10 
REMARK       I    between atoms: N_10  and  C_11 
REMARK    5  A    between atoms: C_11  and  C_12 
REMARK    6  A    between atoms: C_12  and  C_13 
REMARK    7  A    between atoms: C_13  and  C_14 
REMARK    8  A    between atoms: C_14  and  N_15 
REMARK       I    between atoms: N_15  and  C_16 
REMARK    9  A    between atoms: C_16  and  C_17 
REMARK   10  A    between atoms: C_17  and  N_18 
ROOT
HETATM    1  N   UNL     1     -42.414  55.724 -56.753  1.00  0.00    -0.360 N 
HETATM    2  C   UNL     1     -42.689  56.114 -55.459  1.00  0.00     0.235 C 
HETATM    3  O   UNL     1     -43.824  56.117 -54.987  1.00  0.00    -0.272 OA
HETATM    4  H   UNL     1     -41.483  55.900 -57.129  1.00  0.00     0.162 HD
ENDROOT
BRANCH   1   5
HETATM    5  C   UNL     1     -43.444  55.193 -57.621  1.00  0.00     0.123 C 
BRANCH   5   6
HETATM    6  C   UNL     1     -43.649  56.053 -58.868  1.00  0.00     0.029 C 
BRANCH   6   7
HETATM    7  C   UNL     1     -42.434  56.936 -59.142  1.00  0.00     0.104 C 
BRANCH   7   8
HETATM    8  C   UNL     1     -42.594  58.398 -58.759  1.00  0.00     0.217 C 
HETATM    9  N   UNL     1     -43.842  58.950 -58.928  1.00  0.00    -0.361 N 
HETATM   10  H   UNL     1     -44.535  58.447 -59.473  1.00  0.00     0.162 HD
HETATM   11  O   UNL     1     -41.696  59.030 -58.196  1.00  0.00    -0.274 OA
BRANCH   9  12
HETATM   12  C   UNL     1     -44.102  60.349 -58.661  1.00  0.00     0.124 C 
BRANCH  12  13
HETATM   13  C   UNL     1     -44.643  60.606 -57.256  1.00  0.00     0.047 C 
BRANCH  13  14
HETATM   14  C   UNL     1     -44.888  59.380 -56.373  1.00  0.00     0.236 C 
BRANCH  14  15
HETATM   15  N   UNL     1     -44.000  59.297 -55.152  1.00  0.00    -0.071 N 
HETATM   16  C   UNL     1     -42.911  60.336 -55.115  1.00  0.00     0.235 C 
HETATM   17  C   UNL     1     -42.035  60.152 -53.884  1.00  0.00     0.032 C 
HETATM   18  C   UNL     1     -42.827  60.132 -52.574  1.00  0.00    -0.016 C 
HETATM   19  C   UNL     1     -43.357  61.520 -52.205  1.00  0.00     0.010 C 
HETATM   20  C   UNL     1     -43.952  59.097 -52.668  1.00  0.00     0.032 C 
HETATM   21  C   UNL     1     -44.838  59.292 -53.891  1.00  0.00     0.235 C 
HETATM   22  H   UNL     1     -43.575  58.344 -55.179  1.00  0.00     0.279 HD
ENDBRANCH  14  15
ENDBRANCH  13  14
ENDBRANCH  12  13
ENDBRANCH   9  12
ENDBRANCH   7   8
ENDBRANCH   6   7
ENDBRANCH   5   6
ENDBRANCH   1   5
BRANCH   2  23
HETATM   23  C   UNL     1     -41.490  56.632 -54.677  1.00  0.00     0.235 C 
BRANCH  23  24
HETATM   24  N   UNL     1     -41.161  55.673 -53.639  1.00  0.00    -0.299 N 
HETATM   25  C   UNL     1     -40.585  54.461 -54.009  1.00  0.00     0.262 C 
HETATM   26  O   UNL     1     -40.232  54.215 -55.162  1.00  0.00    -0.267 OA
HETATM   27  C   UNL     1     -40.392  53.540 -52.904  1.00  0.00     0.075 A 
HETATM   28  C   UNL     1     -40.652  54.007 -51.633  1.00  0.00     0.115 A 
HETATM   29  C   UNL     1     -39.990  52.163 -52.908  1.00  0.00    -0.026 A 
HETATM   30  S   UNL     1     -40.374  52.815 -50.446  1.00  0.00    -0.073 SA
HETATM   31  N   UNL     1     -41.091  55.248 -51.299  1.00  0.00    -0.235 NA
HETATM   32  C   UNL     1     -39.968  51.655 -51.622  1.00  0.00    -0.008 A 
HETATM   33  C   UNL     1     -39.618  50.246 -51.253  1.00  0.00     0.047 C 
HETATM   34  C   UNL     1     -39.727  49.335 -52.485  1.00  0.00     0.005 C 
HETATM   35  C   UNL     1     -39.054  49.964 -53.713  1.00  0.00     0.005 C 
HETATM   36  C   UNL     1     -39.702  51.303 -54.104  1.00  0.00     0.041 C 
HETATM   37  C   UNL     1     -41.345  56.013 -52.311  1.00  0.00     0.214 C 
ENDBRANCH  23  24
ENDBRANCH   2  23
TORSDOF 10
ENDMDL
MODEL 9
REMARK VINA RESULT:      -7.8      3.002      5.743
REMARK  10 active torsions:
REMARK  status: ('A' for Active; 'I' for Inactive)
REMARK    1  A    between atoms: N_5  and  C_7 
REMARK    2  A    between atoms: C_7  and  C_8 
REMARK    3  A    between atoms: C_8  and  C_9 
REMARK    4  A    between atoms: C_9  and  N_10 
REMARK       I    between atoms: N_10  and  C_11 
REMARK    5  A    between atoms: C_11  and  C_12 
REMARK    6  A    between atoms: C_12  and  C_13 
REMARK    7  A    between atoms: C_13  and  C_14 
REMARK    8  A    between atoms: C_14  and  N_15 
REMARK       I    between atoms: N_15  and  C_16 
REMARK    9  A    between atoms: C_16  and  C_17 
REMARK   10  A    between atoms: C_17  and  N_18 
ROOT
HETATM    1  N   UNL     1     -44.382  57.269 -56.829  1.00  0.00    -0.360 N 
HETATM    2  C   UNL     1     -43.069  56.849 -56.811  1.00  0.00     0.235 C 
HETATM    3  O   UNL     1     -42.120  57.607 -57.006  1.00  0.00    -0.272 OA
HETATM    4  H   UNL     1     -45.120  56.565 -56.824  1.00  0.00     0.162 HD
ENDROOT
BRANCH   1   5
HETATM    5  C   UNL     1     -44.731  58.666 -56.983  1.00  0.00     0.123 C 
BRANCH   5   6
HETATM    6  C   UNL     1     -44.917  59.366 -55.637  1.00  0.00     0.029 C 
BRANCH   6   7
HETATM    7  C   UNL     1     -44.056  60.623 -55.539  1.00  0.00     0.104 C 
BRANCH   7   8
HETATM    8  C   UNL     1     -42.942  60.567 -54.506  1.00  0.00     0.217 C 
HETATM    9  N   UNL     1     -42.151  59.443 -54.506  1.00  0.00    -0.361 N 
HETATM   10  H   UNL     1     -42.450  58.629 -55.034  1.00  0.00     0.162 HD
HETATM   11  O   UNL     1     -42.665  61.533 -53.789  1.00  0.00    -0.274 OA
BRANCH   9  12
HETATM   12  C   UNL     1     -41.102  59.246 -53.529  1.00  0.00     0.124 C 
BRANCH  12  13
HETATM   13  C   UNL     1     -41.535  58.390 -52.340  1.00  0.00     0.047 C 
BRANCH  13  14
HETATM   14  C   UNL     1     -41.698  59.103 -50.995  1.00  0.00     0.236 C 
BRANCH  14  15
HETATM   15  N   UNL     1     -43.130  59.365 -50.591  1.00  0.00    -0.071 N 
HETATM   16  C   UNL     1     -43.497  60.824 -50.547  1.00  0.00     0.235 C 
HETATM   17  C   UNL     1     -44.937  61.002 -50.084  1.00  0.00     0.032 C 
HETATM   18  C   UNL     1     -45.943  60.202 -50.915  1.00  0.00    -0.016 C 
HETATM   19  C   UNL     1     -46.134  60.799 -52.312  1.00  0.00     0.010 C 
HETATM   20  C   UNL     1     -45.511  58.734 -50.975  1.00  0.00     0.032 C 
HETATM   21  C   UNL     1     -44.077  58.556 -51.453  1.00  0.00     0.235 C 
HETATM   22  H   UNL     1     -43.234  58.947 -49.639  1.00  0.00     0.279 HD
ENDBRANCH  14  15
ENDBRANCH  13  14
ENDBRANCH  12  13
ENDBRANCH   9  12
ENDBRANCH   7   8
ENDBRANCH   6   7
ENDBRANCH   5   6
ENDBRANCH   1   5
BRANCH   2  23
HETATM   23  C   UNL     1     -42.877  55.350 -56.623  1.00  0.00     0.235 C 
BRANCH  23  24
HETATM   24  N   UNL     1     -42.700  55.078 -55.209  1.00  0.00    -0.299 N 
HETATM   25  C   UNL     1     -41.654  54.247 -54.817  1.00  0.00     0.262 C 
HETATM   26  O   UNL     1     -40.802  53.830 -55.601  1.00  0.00    -0.267 OA
HETATM   27  C   UNL     1     -41.631  53.961 -53.394  1.00  0.00     0.075 A 
HETATM   28  C   UNL     1     -42.526  54.642 -52.594  1.00  0.00     0.115 A 
HETATM   29  C   UNL     1     -40.828  53.036 -52.649  1.00  0.00    -0.026 A 
HETATM   30  S   UNL     1     -42.375  54.205 -50.953  1.00  0.00    -0.073 SA
HETATM   31  N   UNL     1     -43.450  55.550 -53.001  1.00  0.00    -0.235 NA
HETATM   32  C   UNL     1     -41.163  53.065 -51.307  1.00  0.00    -0.008 A 
HETATM   33  C   UNL     1     -40.545  52.213 -50.242  1.00  0.00     0.047 C 
HETATM   34  C   UNL     1     -39.832  51.009 -50.875  1.00  0.00     0.005 C 
HETATM   35  C   UNL     1     -38.969  51.431 -52.074  1.00  0.00     0.005 C 
HETATM   36  C   UNL     1     -39.809  52.076 -53.190  1.00  0.00     0.041 C 
HETATM   37  C   UNL     1     -43.510  55.710 -54.284  1.00  0.00     0.214 C 
ENDBRANCH  23  24
ENDBRANCH   2  23
TORSDOF 10
ENDMDL
MODEL 10
REMARK VINA RESULT:      -7.6      2.663      5.882
REMARK  10 active torsions:
REMARK  status: ('A' for Active; 'I' for Inactive)
REMARK    1  A    between atoms: N_5  and  C_7 
REMARK    2  A    between atoms: C_7  and  C_8 
REMARK    3  A    between atoms: C_8  and  C_9 
REMARK    4  A    between atoms: C_9  and  N_10 
REMARK       I    between atoms: N_10  and  C_11 
REMARK    5  A    between atoms: C_11  and  C_12 
REMARK    6  A    between atoms: C_12  and  C_13 
REMARK    7  A    between atoms: C_13  and  C_14 
REMARK    8  A    between atoms: C_14  and  N_15 
REMARK       I    between atoms: N_15  and  C_16 
REMARK    9  A    between atoms: C_16  and  C_17 
REMARK   10  A    between atoms: C_17  and  N_18 
ROOT
HETATM    1  N   UNL     1     -41.146  53.174 -52.418  1.00  0.00    -0.360 N 
HETATM    2  C   UNL     1     -40.840  53.588 -51.139  1.00  0.00     0.235 C 
HETATM    3  O   UNL     1     -39.785  53.299 -50.577  1.00  0.00    -0.272 OA
HETATM    4  H   UNL     1     -42.098  53.308 -52.760  1.00  0.00     0.162 HD
ENDROOT
BRANCH   1   5
HETATM    5  C   UNL     1     -40.194  52.447 -53.231  1.00  0.00     0.123 C 
BRANCH   5   6
HETATM    6  C   UNL     1     -40.233  52.881 -54.696  1.00  0.00     0.029 C 
BRANCH   6   7
HETATM    7  C   UNL     1     -40.662  54.340 -54.833  1.00  0.00     0.104 C 
BRANCH   7   8
HETATM    8  C   UNL     1     -41.986  54.563 -55.545  1.00  0.00     0.217 C 
HETATM    9  N   UNL     1     -41.967  55.382 -56.649  1.00  0.00    -0.361 N 
HETATM   10  H   UNL     1     -41.147  55.953 -56.826  1.00  0.00     0.162 HD
HETATM   11  O   UNL     1     -43.007  53.939 -55.242  1.00  0.00    -0.274 OA
BRANCH   9  12
HETATM   12  C   UNL     1     -43.175  55.722 -57.371  1.00  0.00     0.124 C 
BRANCH  12  13
HETATM   13  C   UNL     1     -42.973  55.807 -58.882  1.00  0.00     0.047 C 
BRANCH  13  14
HETATM   14  C   UNL     1     -44.080  56.487 -59.691  1.00  0.00     0.236 C 
BRANCH  14  15
HETATM   15  N   UNL     1     -43.713  57.847 -60.241  1.00  0.00    -0.071 N 
HETATM   16  C   UNL     1     -44.400  58.993 -59.550  1.00  0.00     0.235 C 
HETATM   17  C   UNL     1     -44.016  60.318 -60.194  1.00  0.00     0.032 C 
HETATM   18  C   UNL     1     -42.503  60.540 -60.265  1.00  0.00    -0.016 C 
HETATM   19  C   UNL     1     -41.904  60.836 -58.888  1.00  0.00     0.010 C 
HETATM   20  C   UNL     1     -41.836  59.334 -60.933  1.00  0.00     0.032 C 
HETATM   21  C   UNL     1     -42.208  58.011 -60.278  1.00  0.00     0.235 C 
HETATM   22  H   UNL     1     -43.991  57.826 -61.248  1.00  0.00     0.279 HD
ENDBRANCH  14  15
ENDBRANCH  13  14
ENDBRANCH  12  13
ENDBRANCH   9  12
ENDBRANCH   7   8
ENDBRANCH   6   7
ENDBRANCH   5   6
ENDBRANCH   1   5
BRANCH   2  23
HETATM   23  C   UNL     1     -41.946  54.356 -50.430  1.00  0.00     0.235 C 
BRANCH  23  24
HETATM   24  N   UNL     1     -41.961  55.718 -50.931  1.00  0.00    -0.299 N 
HETATM   25  C   UNL     1     -42.874  56.052 -51.927  1.00  0.00     0.262 C 
HETATM   26  O   UNL     1     -43.747  55.278 -52.319  1.00  0.00    -0.267 OA
HETATM   27  C   UNL     1     -42.734  57.409 -52.423  1.00  0.00     0.075 A 
HETATM   28  C   UNL     1     -41.844  58.236 -51.770  1.00  0.00     0.115 A 
HETATM   29  C   UNL     1     -43.363  58.055 -53.537  1.00  0.00    -0.026 A 
HETATM   30  S   UNL     1     -41.796  59.794 -52.461  1.00  0.00    -0.073 SA
HETATM   31  N   UNL     1     -41.062  57.910 -50.709  1.00  0.00    -0.235 NA
HETATM   32  C   UNL     1     -42.910  59.356 -53.670  1.00  0.00    -0.008 A 
HETATM   33  C   UNL     1     -43.334  60.316 -54.738  1.00  0.00     0.047 C 
HETATM   34  C   UNL     1     -43.974  59.555 -55.909  1.00  0.00     0.005 C 
HETATM   35  C   UNL     1     -44.983  58.508 -55.417  1.00  0.00     0.005 C 
HETATM   36  C   UNL     1     -44.323  57.448 -54.518  1.00  0.00     0.041 C 
HETATM   37  C   UNL     1     -41.139  56.668 -50.353  1.00  0.00     0.214 C 
ENDBRANCH  23  24
ENDBRANCH   2  23
TORSDOF 10
ENDMDL
