MODEL 1
REMARK VINA RESULT:      -9.0      0.000      0.000
REMARK  9 active torsions:
REMARK  status: ('A' for Active; 'I' for Inactive)
REMARK    1  A    between atoms: O_2  and  C_3 
REMARK    2  A    between atoms: C_6  and  N_7 
REMARK    3  A    between atoms: N_10  and  C_12 
REMARK    4  A    between atoms: C_12  and  C_13 
REMARK    5  A    between atoms: C_13  and  C_14 
REMARK    6  A    between atoms: C_14  and  N_15 
REMARK       I    between atoms: N_15  and  C_16 
REMARK    7  A    between atoms: C_16  and  C_17 
REMARK    8  A    between atoms: C_17  and  C_18 
REMARK    9  A    between atoms: C_18  and  C_19 
ROOT
HETATM    1  N   UNL     1     -42.541  59.391 -52.165  1.00  0.00    -0.361 N 
HETATM    2  C   UNL     1     -41.507  59.338 -53.079  1.00  0.00     0.217 C 
HETATM    3  O   UNL     1     -41.419  60.119 -54.022  1.00  0.00    -0.274 OA
HETATM    4  H   UNL     1     -42.654  58.575 -51.566  1.00  0.00     0.162 HD
ENDROOT
BRANCH   1   5
HETATM    5  C   UNL     1     -43.689  60.240 -52.397  1.00  0.00     0.124 C 
BRANCH   5   6
HETATM    6  C   UNL     1     -44.858  59.507 -53.065  1.00  0.00     0.047 C 
BRANCH   6   7
HETATM    7  C   UNL     1     -44.969  59.914 -54.530  1.00  0.00     0.236 C 
BRANCH   7   8
HETATM    8  N   UNL     1     -44.023  59.100 -55.389  1.00  0.00    -0.068 N 
HETATM    9  C   UNL     1     -44.383  57.600 -55.408  1.00  0.00     0.254 C 
HETATM   10  C   UNL     1     -43.417  56.813 -56.323  1.00  0.00     0.150 C 
HETATM   11  N   UNL     1     -43.353  57.401 -57.675  1.00  0.00    -0.378 N 
HETATM   12  C   UNL     1     -42.972  58.828 -57.677  1.00  0.00     0.150 C 
HETATM   13  C   UNL     1     -43.960  59.649 -56.822  1.00  0.00     0.254 C 
HETATM   14  H   UNL     1     -43.076  59.177 -54.999  1.00  0.00     0.280 HD
BRANCH  11  15
HETATM   15  C   UNL     1     -44.224  56.977 -58.683  1.00  0.00     0.030 A 
HETATM   16  C   UNL     1     -43.861  56.075 -59.696  1.00  0.00     0.032 A 
HETATM   17  C   UNL     1     -44.768  55.658 -60.684  1.00  0.00     0.039 A 
HETATM   18  C   UNL     1     -46.068  56.150 -60.701  1.00  0.00     0.068 A 
HETATM   19  C   UNL     1     -46.439  57.077 -59.735  1.00  0.00     0.039 A 
HETATM   20  C   UNL     1     -45.531  57.488 -58.751  1.00  0.00     0.032 A 
BRANCH  18  21
HETATM   21  O   UNL     1     -47.047  55.826 -61.595  1.00  0.00    -0.356 OA
HETATM   22  C   UNL     1     -48.059  56.797 -61.830  1.00  0.00     0.210 C 
ENDBRANCH  18  21
ENDBRANCH  11  15
ENDBRANCH   7   8
ENDBRANCH   6   7
ENDBRANCH   5   6
ENDBRANCH   1   5
BRANCH   2  23
HETATM   23  C   UNL     1     -40.494  58.243 -52.829  1.00  0.00     0.105 C 
BRANCH  23  24
HETATM   24  C   UNL     1     -40.678  57.019 -53.726  1.00  0.00     0.046 C 
BRANCH  24  25
HETATM   25  C   UNL     1     -41.599  55.937 -53.163  1.00  0.00     0.203 A 
HETATM   26  N   UNL     1     -41.304  54.630 -53.803  1.00  0.00    -0.257 NA
HETATM   27  C   UNL     1     -40.890  53.882 -52.822  1.00  0.00     0.147 A 
HETATM   28  N   UNL     1     -40.875  54.424 -51.568  1.00  0.00    -0.239 N 
HETATM   29  C   UNL     1     -40.441  52.495 -52.989  1.00  0.00     0.037 A 
HETATM   30  C   UNL     1     -40.458  53.742 -50.418  1.00  0.00     0.187 A 
HETATM   31  C   UNL     1     -41.336  55.717 -51.686  1.00  0.00     0.257 A 
HETATM   32  S   UNL     1     -40.410  54.330 -48.853  1.00  0.00    -0.040 SA
HETATM   33  N   UNL     1     -40.043  52.442 -50.608  1.00  0.00    -0.332 N 
HETATM   34  C   UNL     1     -40.021  51.808 -51.853  1.00  0.00     0.048 A 
HETATM   35  H   UNL     1     -39.733  51.939 -49.782  1.00  0.00     0.168 HD
HETATM   36  C   UNL     1     -39.575  50.491 -51.955  1.00  0.00     0.030 A 
HETATM   37  C   UNL     1     -39.550  49.868 -53.205  1.00  0.00     0.002 A 
HETATM   38  C   UNL     1     -39.969  50.558 -54.345  1.00  0.00     0.001 A 
HETATM   39  C   UNL     1     -40.417  51.877 -54.241  1.00  0.00     0.017 A 
HETATM   40  O   UNL     1     -41.536  56.568 -50.834  1.00  0.00    -0.270 OA
ENDBRANCH  24  25
ENDBRANCH  23  24
ENDBRANCH   2  23
TORSDOF 9
ENDMDL
MODEL 2
REMARK VINA RESULT:      -8.9      2.145      3.391
REMARK  9 active torsions:
REMARK  status: ('A' for Active; 'I' for Inactive)
REMARK    1  A    between atoms: O_2  and  C_3 
REMARK    2  A    between atoms: C_6  and  N_7 
REMARK    3  A    between atoms: N_10  and  C_12 
REMARK    4  A    between atoms: C_12  and  C_13 
REMARK    5  A    between atoms: C_13  and  C_14 
REMARK    6  A    between atoms: C_14  and  N_15 
REMARK       I    between atoms: N_15  and  C_16 
REMARK    7  A    between atoms: C_16  and  C_17 
REMARK    8  A    between atoms: C_17  and  C_18 
REMARK    9  A    between atoms: C_18  and  C_19 
ROOT
HETATM    1  N   UNL     1     -40.636  58.359 -51.543  1.00  0.00    -0.361 N 
HETATM    2  C   UNL     1     -40.720  58.461 -52.917  1.00  0.00     0.217 C 
HETATM    3  O   UNL     1     -40.609  59.533 -53.508  1.00  0.00    -0.274 OA
HETATM    4  H   UNL     1     -40.966  57.485 -51.136  1.00  0.00     0.162 HD
ENDROOT
BRANCH   1   5
HETATM    5  C   UNL     1     -40.623  59.545 -50.713  1.00  0.00     0.124 C 
BRANCH   5   6
HETATM    6  C   UNL     1     -42.020  59.968 -50.244  1.00  0.00     0.047 C 
BRANCH   6   7
HETATM    7  C   UNL     1     -42.356  61.358 -50.769  1.00  0.00     0.236 C 
BRANCH   7   8
HETATM    8  N   UNL     1     -43.538  61.306 -51.716  1.00  0.00    -0.068 N 
HETATM    9  C   UNL     1     -43.260  62.026 -53.051  1.00  0.00     0.254 C 
HETATM   10  C   UNL     1     -44.475  61.918 -54.000  1.00  0.00     0.150 C 
HETATM   11  N   UNL     1     -44.893  60.515 -54.185  1.00  0.00    -0.378 N 
HETATM   12  C   UNL     1     -45.201  59.822 -52.917  1.00  0.00     0.150 C 
HETATM   13  C   UNL     1     -43.979  59.857 -51.975  1.00  0.00     0.254 C 
HETATM   14  H   UNL     1     -44.333  61.785 -51.276  1.00  0.00     0.280 HD
BRANCH  11  15
HETATM   15  C   UNL     1     -44.359  59.738 -55.218  1.00  0.00     0.030 A 
HETATM   16  C   UNL     1     -43.115  59.992 -55.817  1.00  0.00     0.032 A 
HETATM   17  C   UNL     1     -42.600  59.179 -56.842  1.00  0.00     0.039 A 
HETATM   18  C   UNL     1     -43.330  58.094 -57.314  1.00  0.00     0.068 A 
HETATM   19  C   UNL     1     -44.583  57.848 -56.766  1.00  0.00     0.039 A 
HETATM   20  C   UNL     1     -45.090  58.660 -55.744  1.00  0.00     0.032 A 
BRANCH  18  21
HETATM   21  O   UNL     1     -42.948  57.224 -58.294  1.00  0.00    -0.356 OA
HETATM   22  C   UNL     1     -43.235  55.847 -58.087  1.00  0.00     0.210 C 
ENDBRANCH  18  21
ENDBRANCH  11  15
ENDBRANCH   7   8
ENDBRANCH   6   7
ENDBRANCH   5   6
ENDBRANCH   1   5
BRANCH   2  23
HETATM   23  C   UNL     1     -40.961  57.154 -53.638  1.00  0.00     0.105 C 
BRANCH  23  24
HETATM   24  C   UNL     1     -42.438  56.856 -53.894  1.00  0.00     0.046 C 
BRANCH  24  25
HETATM   25  C   UNL     1     -42.979  55.612 -53.190  1.00  0.00     0.203 A 
HETATM   26  N   UNL     1     -42.412  54.387 -53.809  1.00  0.00    -0.257 NA
HETATM   27  C   UNL     1     -41.720  53.838 -52.854  1.00  0.00     0.147 A 
HETATM   28  N   UNL     1     -41.724  54.448 -51.631  1.00  0.00    -0.239 N 
HETATM   29  C   UNL     1     -40.938  52.608 -53.018  1.00  0.00     0.037 A 
HETATM   30  C   UNL     1     -41.030  53.976 -50.510  1.00  0.00     0.187 A 
HETATM   31  C   UNL     1     -42.522  55.566 -51.744  1.00  0.00     0.257 A 
HETATM   32  S   UNL     1     -40.984  54.657 -48.984  1.00  0.00    -0.040 SA
HETATM   33  N   UNL     1     -40.306  52.818 -50.697  1.00  0.00    -0.332 N 
HETATM   34  C   UNL     1     -40.240  52.130 -51.911  1.00  0.00     0.048 A 
HETATM   35  H   UNL     1     -39.793  52.469 -49.893  1.00  0.00     0.168 HD
HETATM   36  C   UNL     1     -39.474  50.970 -52.014  1.00  0.00     0.030 A 
HETATM   37  C   UNL     1     -39.409  50.294 -53.234  1.00  0.00     0.002 A 
HETATM   38  C   UNL     1     -40.107  50.774 -54.345  1.00  0.00     0.001 A 
HETATM   39  C   UNL     1     -40.875  51.935 -54.240  1.00  0.00     0.017 A 
HETATM   40  O   UNL     1     -42.854  56.390 -50.908  1.00  0.00    -0.270 OA
ENDBRANCH  24  25
ENDBRANCH  23  24
ENDBRANCH   2  23
TORSDOF 9
ENDMDL
MODEL 3
REMARK VINA RESULT:      -8.9      3.330      8.324
REMARK  9 active torsions:
REMARK  status: ('A' for Active; 'I' for Inactive)
REMARK    1  A    between atoms: O_2  and  C_3 
REMARK    2  A    between atoms: C_6  and  N_7 
REMARK    3  A    between atoms: N_10  and  C_12 
REMARK    4  A    between atoms: C_12  and  C_13 
REMARK    5  A    between atoms: C_13  and  C_14 
REMARK    6  A    between atoms: C_14  and  N_15 
REMARK       I    between atoms: N_15  and  C_16 
REMARK    7  A    between atoms: C_16  and  C_17 
REMARK    8  A    between atoms: C_17  and  C_18 
REMARK    9  A    between atoms: C_18  and  C_19 
ROOT
HETATM    1  N   UNL     1     -41.106  59.184 -53.524  1.00  0.00    -0.361 N 
HETATM    2  C   UNL     1     -41.537  58.162 -54.347  1.00  0.00     0.217 C 
HETATM    3  O   UNL     1     -41.114  57.013 -54.250  1.00  0.00    -0.274 OA
HETATM    4  H   UNL     1     -41.334  60.130 -53.825  1.00  0.00     0.162 HD
ENDROOT
BRANCH   1   5
HETATM    5  C   UNL     1     -39.975  58.994 -52.642  1.00  0.00     0.124 C 
BRANCH   5   6
HETATM    6  C   UNL     1     -40.332  59.152 -51.159  1.00  0.00     0.047 C 
BRANCH   6   7
HETATM    7  C   UNL     1     -41.840  59.046 -50.964  1.00  0.00     0.236 C 
BRANCH   7   8
HETATM    8  N   UNL     1     -42.226  57.663 -50.483  1.00  0.00    -0.068 N 
HETATM    9  C   UNL     1     -43.207  56.955 -51.440  1.00  0.00     0.254 C 
HETATM   10  C   UNL     1     -43.546  55.535 -50.932  1.00  0.00     0.150 C 
HETATM   11  N   UNL     1     -42.325  54.745 -50.681  1.00  0.00    -0.378 N 
HETATM   12  C   UNL     1     -41.391  55.392 -49.735  1.00  0.00     0.150 C 
HETATM   13  C   UNL     1     -40.985  56.787 -50.253  1.00  0.00     0.254 C 
HETATM   14  H   UNL     1     -42.701  57.750 -49.576  1.00  0.00     0.280 HD
BRANCH  11  15
HETATM   15  C   UNL     1     -41.761  53.958 -51.689  1.00  0.00     0.030 A 
HETATM   16  C   UNL     1     -42.248  53.914 -53.005  1.00  0.00     0.032 A 
HETATM   17  C   UNL     1     -41.645  53.123 -53.998  1.00  0.00     0.039 A 
HETATM   18  C   UNL     1     -40.542  52.333 -53.696  1.00  0.00     0.068 A 
HETATM   19  C   UNL     1     -40.067  52.327 -52.391  1.00  0.00     0.039 A 
HETATM   20  C   UNL     1     -40.671  53.118 -51.405  1.00  0.00     0.032 A 
BRANCH  18  21
HETATM   21  O   UNL     1     -39.859  51.528 -54.561  1.00  0.00    -0.356 OA
HETATM   22  C   UNL     1     -39.937  50.125 -54.341  1.00  0.00     0.210 C 
ENDBRANCH  18  21
ENDBRANCH  11  15
ENDBRANCH   7   8
ENDBRANCH   6   7
ENDBRANCH   5   6
ENDBRANCH   1   5
BRANCH   2  23
HETATM   23  C   UNL     1     -42.567  58.569 -55.377  1.00  0.00     0.105 C 
BRANCH  23  24
HETATM   24  C   UNL     1     -42.112  59.712 -56.284  1.00  0.00     0.046 C 
BRANCH  24  25
HETATM   25  C   UNL     1     -41.818  59.314 -57.730  1.00  0.00     0.203 A 
HETATM   26  N   UNL     1     -42.162  57.885 -57.947  1.00  0.00    -0.257 NA
HETATM   27  C   UNL     1     -43.118  57.919 -58.828  1.00  0.00     0.147 A 
HETATM   28  N   UNL     1     -43.498  59.138 -59.314  1.00  0.00    -0.239 N 
HETATM   29  C   UNL     1     -43.809  56.723 -59.326  1.00  0.00     0.037 A 
HETATM   30  C   UNL     1     -44.508  59.331 -60.264  1.00  0.00     0.187 A 
HETATM   31  C   UNL     1     -42.706  60.079 -58.693  1.00  0.00     0.257 A 
HETATM   32  S   UNL     1     -45.030  60.782 -60.909  1.00  0.00    -0.040 SA
HETATM   33  N   UNL     1     -45.137  58.189 -60.711  1.00  0.00    -0.332 N 
HETATM   34  C   UNL     1     -44.818  56.902 -60.269  1.00  0.00     0.048 A 
HETATM   35  H   UNL     1     -45.875  58.316 -61.397  1.00  0.00     0.168 HD
HETATM   36  C   UNL     1     -45.513  55.802 -60.769  1.00  0.00     0.030 A 
HETATM   37  C   UNL     1     -45.191  54.521 -60.314  1.00  0.00     0.002 A 
HETATM   38  C   UNL     1     -44.181  54.342 -59.367  1.00  0.00     0.001 A 
HETATM   39  C   UNL     1     -43.485  55.444 -58.868  1.00  0.00     0.017 A 
HETATM   40  O   UNL     1     -42.653  61.290 -58.837  1.00  0.00    -0.270 OA
ENDBRANCH  24  25
ENDBRANCH  23  24
ENDBRANCH   2  23
TORSDOF 9
ENDMDL
MODEL 4
REMARK VINA RESULT:      -8.9      4.242      8.602
REMARK  9 active torsions:
REMARK  status: ('A' for Active; 'I' for Inactive)
REMARK    1  A    between atoms: O_2  and  C_3 
REMARK    2  A    between atoms: C_6  and  N_7 
REMARK    3  A    between atoms: N_10  and  C_12 
REMARK    4  A    between atoms: C_12  and  C_13 
REMARK    5  A    between atoms: C_13  and  C_14 
REMARK    6  A    between atoms: C_14  and  N_15 
REMARK       I    between atoms: N_15  and  C_16 
REMARK    7  A    between atoms: C_16  and  C_17 
REMARK    8  A    between atoms: C_17  and  C_18 
REMARK    9  A    between atoms: C_18  and  C_19 
ROOT
HETATM    1  N   UNL     1     -40.677  58.526 -51.627  1.00  0.00    -0.361 N 
HETATM    2  C   UNL     1     -40.707  58.543 -53.007  1.00  0.00     0.217 C 
HETATM    3  O   UNL     1     -40.531  59.570 -53.658  1.00  0.00    -0.274 OA
HETATM    4  H   UNL     1     -41.056  57.693 -51.179  1.00  0.00     0.162 HD
ENDROOT
BRANCH   1   5
HETATM    5  C   UNL     1     -40.646  59.760 -50.872  1.00  0.00     0.124 C 
BRANCH   5   6
HETATM    6  C   UNL     1     -41.994  60.109 -50.231  1.00  0.00     0.047 C 
BRANCH   6   7
HETATM    7  C   UNL     1     -42.975  60.594 -51.291  1.00  0.00     0.236 C 
BRANCH   7   8
HETATM    8  N   UNL     1     -44.039  61.481 -50.677  1.00  0.00    -0.068 N 
HETATM    9  C   UNL     1     -45.052  60.689 -49.826  1.00  0.00     0.254 C 
HETATM   10  C   UNL     1     -46.096  61.635 -49.190  1.00  0.00     0.150 C 
HETATM   11  N   UNL     1     -45.449  62.727 -48.437  1.00  0.00    -0.378 N 
HETATM   12  C   UNL     1     -44.503  63.520 -49.249  1.00  0.00     0.150 C 
HETATM   13  C   UNL     1     -43.410  62.608 -49.844  1.00  0.00     0.254 C 
HETATM   14  H   UNL     1     -44.568  61.931 -51.434  1.00  0.00     0.280 HD
BRANCH  11  15
HETATM   15  C   UNL     1     -45.149  62.582 -47.078  1.00  0.00     0.030 A 
HETATM   16  C   UNL     1     -44.868  61.347 -46.472  1.00  0.00     0.032 A 
HETATM   17  C   UNL     1     -44.553  61.241 -45.107  1.00  0.00     0.039 A 
HETATM   18  C   UNL     1     -44.532  62.371 -44.298  1.00  0.00     0.068 A 
HETATM   19  C   UNL     1     -44.849  63.599 -44.866  1.00  0.00     0.039 A 
HETATM   20  C   UNL     1     -45.159  63.700 -46.228  1.00  0.00     0.032 A 
BRANCH  18  21
HETATM   21  O   UNL     1     -44.238  62.411 -42.966  1.00  0.00    -0.356 OA
HETATM   22  C   UNL     1     -43.091  63.155 -42.576  1.00  0.00     0.210 C 
ENDBRANCH  18  21
ENDBRANCH  11  15
ENDBRANCH   7   8
ENDBRANCH   6   7
ENDBRANCH   5   6
ENDBRANCH   1   5
BRANCH   2  23
HETATM   23  C   UNL     1     -40.974  57.202 -53.653  1.00  0.00     0.105 C 
BRANCH  23  24
HETATM   24  C   UNL     1     -42.458  56.912 -53.875  1.00  0.00     0.046 C 
BRANCH  24  25
HETATM   25  C   UNL     1     -42.982  55.654 -53.183  1.00  0.00     0.203 A 
HETATM   26  N   UNL     1     -42.391  54.443 -53.806  1.00  0.00    -0.257 NA
HETATM   27  C   UNL     1     -41.695  53.900 -52.849  1.00  0.00     0.147 A 
HETATM   28  N   UNL     1     -41.718  54.502 -51.623  1.00  0.00    -0.239 N 
HETATM   29  C   UNL     1     -40.892  52.684 -53.016  1.00  0.00     0.037 A 
HETATM   30  C   UNL     1     -41.023  54.035 -50.501  1.00  0.00     0.187 A 
HETATM   31  C   UNL     1     -42.533  55.607 -51.735  1.00  0.00     0.257 A 
HETATM   32  S   UNL     1     -40.998  54.708 -48.970  1.00  0.00    -0.040 SA
HETATM   33  N   UNL     1     -40.278  52.891 -50.690  1.00  0.00    -0.332 N 
HETATM   34  C   UNL     1     -40.193  52.211 -51.908  1.00  0.00     0.048 A 
HETATM   35  H   UNL     1     -39.764  52.545 -49.885  1.00  0.00     0.168 HD
HETATM   36  C   UNL     1     -39.406  51.065 -52.013  1.00  0.00     0.030 A 
HETATM   37  C   UNL     1     -39.322  50.398 -53.237  1.00  0.00     0.002 A 
HETATM   38  C   UNL     1     -40.022  50.873 -54.349  1.00  0.00     0.001 A 
HETATM   39  C   UNL     1     -40.810  52.020 -54.242  1.00  0.00     0.017 A 
HETATM   40  O   UNL     1     -42.885  56.421 -50.895  1.00  0.00    -0.270 OA
ENDBRANCH  24  25
ENDBRANCH  23  24
ENDBRANCH   2  23
TORSDOF 9
ENDMDL
MODEL 5
REMARK VINA RESULT:      -8.8      2.871      6.242
REMARK  9 active torsions:
REMARK  status: ('A' for Active; 'I' for Inactive)
REMARK    1  A    between atoms: O_2  and  C_3 
REMARK    2  A    between atoms: C_6  and  N_7 
REMARK    3  A    between atoms: N_10  and  C_12 
REMARK    4  A    between atoms: C_12  and  C_13 
REMARK    5  A    between atoms: C_13  and  C_14 
REMARK    6  A    between atoms: C_14  and  N_15 
REMARK       I    between atoms: N_15  and  C_16 
REMARK    7  A    between atoms: C_16  and  C_17 
REMARK    8  A    between atoms: C_17  and  C_18 
REMARK    9  A    between atoms: C_18  and  C_19 
ROOT
HETATM    1  N   UNL     1     -42.105  57.312 -58.406  1.00  0.00    -0.361 N 
HETATM    2  C   UNL     1     -42.759  56.145 -58.744  1.00  0.00     0.217 C 
HETATM    3  O   UNL     1     -42.810  55.726 -59.897  1.00  0.00    -0.274 OA
HETATM    4  H   UNL     1     -42.310  57.692 -57.483  1.00  0.00     0.162 HD
ENDROOT
BRANCH   1   5
HETATM    5  C   UNL     1     -41.625  58.214 -59.431  1.00  0.00     0.124 C 
BRANCH   5   6
HETATM    6  C   UNL     1     -42.139  59.648 -59.262  1.00  0.00     0.047 C 
BRANCH   6   7
HETATM    7  C   UNL     1     -43.646  59.648 -59.036  1.00  0.00     0.236 C 
BRANCH   7   8
HETATM    8  N   UNL     1     -43.994  60.304 -57.715  1.00  0.00    -0.068 N 
HETATM    9  C   UNL     1     -44.522  59.296 -56.674  1.00  0.00     0.254 C 
HETATM   10  C   UNL     1     -44.829  59.999 -55.333  1.00  0.00     0.150 C 
HETATM   11  N   UNL     1     -43.668  60.767 -54.845  1.00  0.00    -0.378 N 
HETATM   12  C   UNL     1     -43.173  61.765 -55.816  1.00  0.00     0.150 C 
HETATM   13  C   UNL     1     -42.795  61.078 -57.146  1.00  0.00     0.254 C 
HETATM   14  H   UNL     1     -44.742  60.990 -57.876  1.00  0.00     0.280 HD
BRANCH  11  15
HETATM   15  C   UNL     1     -42.717  60.175 -54.007  1.00  0.00     0.030 A 
HETATM   16  C   UNL     1     -41.903  59.099 -54.395  1.00  0.00     0.032 A 
HETATM   17  C   UNL     1     -40.945  58.539 -53.532  1.00  0.00     0.039 A 
HETATM   18  C   UNL     1     -40.787  59.029 -52.241  1.00  0.00     0.068 A 
HETATM   19  C   UNL     1     -41.611  60.065 -51.820  1.00  0.00     0.039 A 
HETATM   20  C   UNL     1     -42.563  60.621 -52.684  1.00  0.00     0.032 A 
BRANCH  18  21
HETATM   21  O   UNL     1     -39.897  58.585 -51.307  1.00  0.00    -0.356 OA
HETATM   22  C   UNL     1     -39.364  59.549 -50.407  1.00  0.00     0.210 C 
ENDBRANCH  18  21
ENDBRANCH  11  15
ENDBRANCH   7   8
ENDBRANCH   6   7
ENDBRANCH   5   6
ENDBRANCH   1   5
BRANCH   2  23
HETATM   23  C   UNL     1     -43.409  55.422 -57.585  1.00  0.00     0.105 C 
BRANCH  23  24
HETATM   24  C   UNL     1     -42.757  55.717 -56.234  1.00  0.00     0.046 C 
BRANCH  24  25
HETATM   25  C   UNL     1     -43.412  55.031 -55.036  1.00  0.00     0.203 A 
HETATM   26  N   UNL     1     -42.376  54.420 -54.165  1.00  0.00    -0.257 NA
HETATM   27  C   UNL     1     -42.487  55.063 -53.039  1.00  0.00     0.147 A 
HETATM   28  N   UNL     1     -43.461  56.016 -52.941  1.00  0.00    -0.239 N 
HETATM   29  C   UNL     1     -41.624  54.823 -51.877  1.00  0.00     0.037 A 
HETATM   30  C   UNL     1     -43.700  56.786 -51.796  1.00  0.00     0.187 A 
HETATM   31  C   UNL     1     -44.117  56.043 -54.152  1.00  0.00     0.257 A 
HETATM   32  S   UNL     1     -44.869  57.965 -51.593  1.00  0.00    -0.040 SA
HETATM   33  N   UNL     1     -42.875  56.536 -50.721  1.00  0.00    -0.332 N 
HETATM   34  C   UNL     1     -41.850  55.585 -50.733  1.00  0.00     0.048 A 
HETATM   35  H   UNL     1     -43.035  57.092 -49.887  1.00  0.00     0.168 HD
HETATM   36  C   UNL     1     -41.055  55.405 -49.602  1.00  0.00     0.030 A 
HETATM   37  C   UNL     1     -40.029  54.457 -49.627  1.00  0.00     0.002 A 
HETATM   38  C   UNL     1     -39.801  53.694 -50.775  1.00  0.00     0.001 A 
HETATM   39  C   UNL     1     -40.600  53.875 -51.905  1.00  0.00     0.017 A 
HETATM   40  O   UNL     1     -45.079  56.700 -54.518  1.00  0.00    -0.270 OA
ENDBRANCH  24  25
ENDBRANCH  23  24
ENDBRANCH   2  23
TORSDOF 9
ENDMDL
MODEL 6
REMARK VINA RESULT:      -8.8      2.280      5.897
REMARK  9 active torsions:
REMARK  status: ('A' for Active; 'I' for Inactive)
REMARK    1  A    between atoms: O_2  and  C_3 
REMARK    2  A    between atoms: C_6  and  N_7 
REMARK    3  A    between atoms: N_10  and  C_12 
REMARK    4  A    between atoms: C_12  and  C_13 
REMARK    5  A    between atoms: C_13  and  C_14 
REMARK    6  A    between atoms: C_14  and  N_15 
REMARK       I    between atoms: N_15  and  C_16 
REMARK    7  A    between atoms: C_16  and  C_17 
REMARK    8  A    between atoms: C_17  and  C_18 
REMARK    9  A    between atoms: C_18  and  C_19 
ROOT
HETATM    1  N   UNL     1     -42.105  57.305 -58.838  1.00  0.00    -0.361 N 
HETATM    2  C   UNL     1     -42.888  56.274 -59.316  1.00  0.00     0.217 C 
HETATM    3  O   UNL     1     -43.126  56.124 -60.512  1.00  0.00    -0.274 OA
HETATM    4  H   UNL     1     -42.154  57.480 -57.836  1.00  0.00     0.162 HD
ENDROOT
BRANCH   1   5
HETATM    5  C   UNL     1     -41.697  58.387 -59.708  1.00  0.00     0.124 C 
BRANCH   5   6
HETATM    6  C   UNL     1     -42.094  59.770 -59.178  1.00  0.00     0.047 C 
BRANCH   6   7
HETATM    7  C   UNL     1     -43.608  59.937 -59.217  1.00  0.00     0.236 C 
BRANCH   7   8
HETATM    8  N   UNL     1     -44.144  60.317 -57.851  1.00  0.00    -0.068 N 
HETATM    9  C   UNL     1     -44.442  59.087 -56.969  1.00  0.00     0.254 C 
HETATM   10  C   UNL     1     -44.951  59.519 -55.575  1.00  0.00     0.150 C 
HETATM   11  N   UNL     1     -44.026  60.471 -54.932  1.00  0.00    -0.378 N 
HETATM   12  C   UNL     1     -43.760  61.674 -55.748  1.00  0.00     0.150 C 
HETATM   13  C   UNL     1     -43.187  61.274 -57.124  1.00  0.00     0.254 C 
HETATM   14  H   UNL     1     -45.031  60.820 -57.975  1.00  0.00     0.280 HD
BRANCH  11  15
HETATM   15  C   UNL     1     -42.985  60.019 -54.114  1.00  0.00     0.030 A 
HETATM   16  C   UNL     1     -42.034  59.070 -54.521  1.00  0.00     0.032 A 
HETATM   17  C   UNL     1     -40.990  58.651 -53.678  1.00  0.00     0.039 A 
HETATM   18  C   UNL     1     -40.880  59.157 -52.389  1.00  0.00     0.068 A 
HETATM   19  C   UNL     1     -41.834  60.066 -51.948  1.00  0.00     0.039 A 
HETATM   20  C   UNL     1     -42.871  60.481 -52.793  1.00  0.00     0.032 A 
BRANCH  18  21
HETATM   21  O   UNL     1     -39.917  58.843 -51.473  1.00  0.00    -0.356 OA
HETATM   22  C   UNL     1     -39.838  59.657 -50.310  1.00  0.00     0.210 C 
ENDBRANCH  18  21
ENDBRANCH  11  15
ENDBRANCH   7   8
ENDBRANCH   6   7
ENDBRANCH   5   6
ENDBRANCH   1   5
BRANCH   2  23
HETATM   23  C   UNL     1     -43.432  55.344 -58.254  1.00  0.00     0.105 C 
BRANCH  23  24
HETATM   24  C   UNL     1     -42.864  55.605 -56.859  1.00  0.00     0.046 C 
BRANCH  24  25
HETATM   25  C   UNL     1     -43.409  54.697 -55.758  1.00  0.00     0.203 A 
HETATM   26  N   UNL     1     -42.412  53.650 -55.418  1.00  0.00    -0.257 NA
HETATM   27  C   UNL     1     -42.108  53.893 -54.176  1.00  0.00     0.147 A 
HETATM   28  N   UNL     1     -42.750  54.924 -53.550  1.00  0.00    -0.239 N 
HETATM   29  C   UNL     1     -41.114  53.125 -53.417  1.00  0.00     0.037 A 
HETATM   30  C   UNL     1     -42.529  55.302 -52.220  1.00  0.00     0.187 A 
HETATM   31  C   UNL     1     -43.616  55.472 -54.470  1.00  0.00     0.257 A 
HETATM   32  S   UNL     1     -43.271  56.544 -51.382  1.00  0.00    -0.040 SA
HETATM   33  N   UNL     1     -41.591  54.561 -51.534  1.00  0.00    -0.332 N 
HETATM   34  C   UNL     1     -40.883  53.494 -52.093  1.00  0.00     0.048 A 
HETATM   35  H   UNL     1     -41.417  54.829 -50.570  1.00  0.00     0.168 HD
HETATM   36  C   UNL     1     -39.943  52.804 -51.328  1.00  0.00     0.030 A 
HETATM   37  C   UNL     1     -39.235  51.744 -51.899  1.00  0.00     0.002 A 
HETATM   38  C   UNL     1     -39.467  51.376 -53.227  1.00  0.00     0.001 A 
HETATM   39  C   UNL     1     -40.408  52.066 -53.991  1.00  0.00     0.017 A 
HETATM   40  O   UNL     1     -44.424  56.381 -54.356  1.00  0.00    -0.270 OA
ENDBRANCH  24  25
ENDBRANCH  23  24
ENDBRANCH   2  23
TORSDOF 9
ENDMDL
MODEL 7
REMARK VINA RESULT:      -8.7      2.016      5.329
REMARK  9 active torsions:
REMARK  status: ('A' for Active; 'I' for Inactive)
REMARK    1  A    between atoms: O_2  and  C_3 
REMARK    2  A    between atoms: C_6  and  N_7 
REMARK    3  A    between atoms: N_10  and  C_12 
REMARK    4  A    between atoms: C_12  and  C_13 
REMARK    5  A    between atoms: C_13  and  C_14 
REMARK    6  A    between atoms: C_14  and  N_15 
REMARK       I    between atoms: N_15  and  C_16 
REMARK    7  A    between atoms: C_16  and  C_17 
REMARK    8  A    between atoms: C_17  and  C_18 
REMARK    9  A    between atoms: C_18  and  C_19 
ROOT
HETATM    1  N   UNL     1     -44.336  55.141 -58.902  1.00  0.00    -0.361 N 
HETATM    2  C   UNL     1     -43.067  55.683 -58.868  1.00  0.00     0.217 C 
HETATM    3  O   UNL     1     -42.521  56.150 -59.864  1.00  0.00    -0.274 OA
HETATM    4  H   UNL     1     -44.608  54.580 -58.097  1.00  0.00     0.162 HD
ENDROOT
BRANCH   1   5
HETATM    5  C   UNL     1     -45.005  54.904 -60.164  1.00  0.00     0.124 C 
BRANCH   5   6
HETATM    6  C   UNL     1     -45.775  56.126 -60.678  1.00  0.00     0.047 C 
BRANCH   6   7
HETATM    7  C   UNL     1     -46.793  56.585 -59.640  1.00  0.00     0.236 C 
BRANCH   7   8
HETATM    8  N   UNL     1     -46.623  58.058 -59.333  1.00  0.00    -0.068 N 
HETATM    9  C   UNL     1     -47.053  58.417 -57.896  1.00  0.00     0.254 C 
HETATM   10  C   UNL     1     -46.829  59.919 -57.612  1.00  0.00     0.150 C 
HETATM   11  N   UNL     1     -45.443  60.327 -57.911  1.00  0.00    -0.378 N 
HETATM   12  C   UNL     1     -45.028  60.025 -59.297  1.00  0.00     0.150 C 
HETATM   13  C   UNL     1     -45.179  58.517 -59.586  1.00  0.00     0.254 C 
HETATM   14  H   UNL     1     -47.223  58.598 -59.969  1.00  0.00     0.280 HD
BRANCH  11  15
HETATM   15  C   UNL     1     -44.451  60.269 -56.927  1.00  0.00     0.030 A 
HETATM   16  C   UNL     1     -44.702  60.456 -55.559  1.00  0.00     0.032 A 
HETATM   17  C   UNL     1     -43.682  60.375 -54.595  1.00  0.00     0.039 A 
HETATM   18  C   UNL     1     -42.370  60.123 -54.977  1.00  0.00     0.068 A 
HETATM   19  C   UNL     1     -42.089  59.976 -56.330  1.00  0.00     0.039 A 
HETATM   20  C   UNL     1     -43.109  60.057 -57.286  1.00  0.00     0.032 A 
BRANCH  18  21
HETATM   21  O   UNL     1     -41.290  60.012 -54.149  1.00  0.00    -0.356 OA
HETATM   22  C   UNL     1     -40.946  58.707 -53.700  1.00  0.00     0.210 C 
ENDBRANCH  18  21
ENDBRANCH  11  15
ENDBRANCH   7   8
ENDBRANCH   6   7
ENDBRANCH   5   6
ENDBRANCH   1   5
BRANCH   2  23
HETATM   23  C   UNL     1     -42.402  55.656 -57.510  1.00  0.00     0.105 C 
BRANCH  23  24
HETATM   24  C   UNL     1     -43.222  56.330 -56.410  1.00  0.00     0.046 C 
BRANCH  24  25
HETATM   25  C   UNL     1     -43.701  55.400 -55.297  1.00  0.00     0.203 A 
HETATM   26  N   UNL     1     -42.855  54.180 -55.250  1.00  0.00    -0.257 NA
HETATM   27  C   UNL     1     -42.287  54.233 -54.080  1.00  0.00     0.147 A 
HETATM   28  N   UNL     1     -42.614  55.273 -53.257  1.00  0.00    -0.239 N 
HETATM   29  C   UNL     1     -41.318  53.241 -53.601  1.00  0.00     0.037 A 
HETATM   30  C   UNL     1     -42.086  55.461 -51.974  1.00  0.00     0.187 A 
HETATM   31  C   UNL     1     -43.528  56.048 -53.937  1.00  0.00     0.257 A 
HETATM   32  S   UNL     1     -42.434  56.701 -50.906  1.00  0.00    -0.040 SA
HETATM   33  N   UNL     1     -41.180  54.513 -51.553  1.00  0.00    -0.332 N 
HETATM   34  C   UNL     1     -40.783  53.419 -52.327  1.00  0.00     0.048 A 
HETATM   35  H   UNL     1     -40.786  54.641 -50.625  1.00  0.00     0.168 HD
HETATM   36  C   UNL     1     -39.852  52.512 -51.825  1.00  0.00     0.030 A 
HETATM   37  C   UNL     1     -39.457  51.426 -52.610  1.00  0.00     0.002 A 
HETATM   38  C   UNL     1     -39.991  51.249 -53.888  1.00  0.00     0.001 A 
HETATM   39  C   UNL     1     -40.925  52.157 -54.389  1.00  0.00     0.017 A 
HETATM   40  O   UNL     1     -44.131  57.051 -53.589  1.00  0.00    -0.270 OA
ENDBRANCH  24  25
ENDBRANCH  23  24
ENDBRANCH   2  23
TORSDOF 9
ENDMDL
MODEL 8
REMARK VINA RESULT:      -8.6      2.838      8.077
REMARK  9 active torsions:
REMARK  status: ('A' for Active; 'I' for Inactive)
REMARK    1  A    between atoms: O_2  and  C_3 
REMARK    2  A    between atoms: C_6  and  N_7 
REMARK    3  A    between atoms: N_10  and  C_12 
REMARK    4  A    between atoms: C_12  and  C_13 
REMARK    5  A    between atoms: C_13  and  C_14 
REMARK    6  A    between atoms: C_14  and  N_15 
REMARK       I    between atoms: N_15  and  C_16 
REMARK    7  A    between atoms: C_16  and  C_17 
REMARK    8  A    between atoms: C_17  and  C_18 
REMARK    9  A    between atoms: C_18  and  C_19 
ROOT
HETATM    1  N   UNL     1     -42.435  59.603 -53.660  1.00  0.00    -0.361 N 
HETATM    2  C   UNL     1     -42.606  60.354 -54.806  1.00  0.00     0.217 C 
HETATM    3  O   UNL     1     -41.712  60.509 -55.634  1.00  0.00    -0.274 OA
HETATM    4  H   UNL     1     -43.141  59.720 -52.935  1.00  0.00     0.162 HD
ENDROOT
BRANCH   1   5
HETATM    5  C   UNL     1     -41.121  59.134 -53.273  1.00  0.00     0.124 C 
BRANCH   5   6
HETATM    6  C   UNL     1     -41.027  58.757 -51.790  1.00  0.00     0.047 C 
BRANCH   6   7
HETATM    7  C   UNL     1     -42.420  58.554 -51.206  1.00  0.00     0.236 C 
BRANCH   7   8
HETATM    8  N   UNL     1     -42.517  57.222 -50.491  1.00  0.00    -0.068 N 
HETATM    9  C   UNL     1     -43.336  56.183 -51.283  1.00  0.00     0.254 C 
HETATM   10  C   UNL     1     -43.379  54.830 -50.537  1.00  0.00     0.150 C 
HETATM   11  N   UNL     1     -42.023  54.352 -50.205  1.00  0.00    -0.378 N 
HETATM   12  C   UNL     1     -41.238  55.321 -49.412  1.00  0.00     0.150 C 
HETATM   13  C   UNL     1     -41.123  56.663 -50.165  1.00  0.00     0.254 C 
HETATM   14  H   UNL     1     -42.997  57.364 -49.594  1.00  0.00     0.280 HD
BRANCH  11  15
HETATM   15  C   UNL     1     -41.313  53.535 -51.090  1.00  0.00     0.030 A 
HETATM   16  C   UNL     1     -40.421  52.534 -50.677  1.00  0.00     0.032 A 
HETATM   17  C   UNL     1     -39.736  51.719 -51.594  1.00  0.00     0.039 A 
HETATM   18  C   UNL     1     -39.910  51.898 -52.962  1.00  0.00     0.068 A 
HETATM   19  C   UNL     1     -40.755  52.911 -53.397  1.00  0.00     0.039 A 
HETATM   20  C   UNL     1     -41.436  53.719 -52.477  1.00  0.00     0.032 A 
BRANCH  18  21
HETATM   21  O   UNL     1     -39.315  51.177 -53.957  1.00  0.00    -0.356 OA
HETATM   22  C   UNL     1     -39.476  49.765 -53.921  1.00  0.00     0.210 C 
ENDBRANCH  18  21
ENDBRANCH  11  15
ENDBRANCH   7   8
ENDBRANCH   6   7
ENDBRANCH   5   6
ENDBRANCH   1   5
BRANCH   2  23
HETATM   23  C   UNL     1     -43.978  60.971 -54.961  1.00  0.00     0.105 C 
BRANCH  23  24
HETATM   24  C   UNL     1     -45.122  60.022 -54.606  1.00  0.00     0.046 C 
BRANCH  24  25
HETATM   25  C   UNL     1     -45.499  59.023 -55.700  1.00  0.00     0.203 A 
HETATM   26  N   UNL     1     -45.029  59.512 -57.022  1.00  0.00    -0.257 NA
HETATM   27  C   UNL     1     -44.162  58.618 -57.401  1.00  0.00     0.147 A 
HETATM   28  N   UNL     1     -43.955  57.542 -56.586  1.00  0.00    -0.239 N 
HETATM   29  C   UNL     1     -43.398  58.706 -58.651  1.00  0.00     0.037 A 
HETATM   30  C   UNL     1     -43.058  56.503 -56.861  1.00  0.00     0.187 A 
HETATM   31  C   UNL     1     -44.783  57.701 -55.496  1.00  0.00     0.257 A 
HETATM   32  S   UNL     1     -42.747  55.155 -55.921  1.00  0.00    -0.040 SA
HETATM   33  N   UNL     1     -42.355  56.614 -58.041  1.00  0.00    -0.332 N 
HETATM   34  C   UNL     1     -42.499  57.680 -58.934  1.00  0.00     0.048 A 
HETATM   35  H   UNL     1     -41.697  55.869 -58.250  1.00  0.00     0.168 HD
HETATM   36  C   UNL     1     -41.740  57.716 -60.103  1.00  0.00     0.030 A 
HETATM   37  C   UNL     1     -41.885  58.790 -60.984  1.00  0.00     0.002 A 
HETATM   38  C   UNL     1     -42.785  59.820 -60.699  1.00  0.00     0.001 A 
HETATM   39  C   UNL     1     -43.545  59.781 -59.529  1.00  0.00     0.017 A 
HETATM   40  O   UNL     1     -44.974  56.976 -54.533  1.00  0.00    -0.270 OA
ENDBRANCH  24  25
ENDBRANCH  23  24
ENDBRANCH   2  23
TORSDOF 9
ENDMDL
MODEL 9
REMARK VINA RESULT:      -8.6      2.362      3.221
REMARK  9 active torsions:
REMARK  status: ('A' for Active; 'I' for Inactive)
REMARK    1  A    between atoms: O_2  and  C_3 
REMARK    2  A    between atoms: C_6  and  N_7 
REMARK    3  A    between atoms: N_10  and  C_12 
REMARK    4  A    between atoms: C_12  and  C_13 
REMARK    5  A    between atoms: C_13  and  C_14 
REMARK    6  A    between atoms: C_14  and  N_15 
REMARK       I    between atoms: N_15  and  C_16 
REMARK    7  A    between atoms: C_16  and  C_17 
REMARK    8  A    between atoms: C_17  and  C_18 
REMARK    9  A    between atoms: C_18  and  C_19 
ROOT
HETATM    1  N   UNL     1     -43.480  59.868 -55.038  1.00  0.00    -0.361 N 
HETATM    2  C   UNL     1     -42.736  59.265 -56.032  1.00  0.00     0.217 C 
HETATM    3  O   UNL     1     -41.728  59.781 -56.508  1.00  0.00    -0.274 OA
HETATM    4  H   UNL     1     -44.408  59.481 -54.873  1.00  0.00     0.162 HD
ENDROOT
BRANCH   1   5
HETATM    5  C   UNL     1     -43.227  61.240 -54.654  1.00  0.00     0.124 C 
BRANCH   5   6
HETATM    6  C   UNL     1     -44.120  62.247 -55.389  1.00  0.00     0.047 C 
BRANCH   6   7
HETATM    7  C   UNL     1     -43.272  63.184 -56.240  1.00  0.00     0.236 C 
BRANCH   7   8
HETATM    8  N   UNL     1     -43.468  62.898 -57.715  1.00  0.00    -0.068 N 
HETATM    9  C   UNL     1     -42.179  62.400 -58.398  1.00  0.00     0.254 C 
HETATM   10  C   UNL     1     -42.431  62.086 -59.890  1.00  0.00     0.150 C 
HETATM   11  N   UNL     1     -43.563  61.157 -60.064  1.00  0.00    -0.378 N 
HETATM   12  C   UNL     1     -44.818  61.639 -59.448  1.00  0.00     0.150 C 
HETATM   13  C   UNL     1     -44.611  61.897 -57.941  1.00  0.00     0.254 C 
HETATM   14  H   UNL     1     -43.740  63.771 -58.185  1.00  0.00     0.280 HD
BRANCH  11  15
HETATM   15  C   UNL     1     -43.360  59.774 -60.086  1.00  0.00     0.030 A 
HETATM   16  C   UNL     1     -42.090  59.175 -60.067  1.00  0.00     0.032 A 
HETATM   17  C   UNL     1     -41.922  57.780 -60.073  1.00  0.00     0.039 A 
HETATM   18  C   UNL     1     -43.027  56.938 -60.117  1.00  0.00     0.068 A 
HETATM   19  C   UNL     1     -44.294  57.506 -60.179  1.00  0.00     0.039 A 
HETATM   20  C   UNL     1     -44.454  58.898 -60.172  1.00  0.00     0.032 A 
BRANCH  18  21
HETATM   21  O   UNL     1     -43.008  55.573 -60.121  1.00  0.00    -0.356 OA
HETATM   22  C   UNL     1     -44.218  54.906 -59.785  1.00  0.00     0.210 C 
ENDBRANCH  18  21
ENDBRANCH  11  15
ENDBRANCH   7   8
ENDBRANCH   6   7
ENDBRANCH   5   6
ENDBRANCH   1   5
BRANCH   2  23
HETATM   23  C   UNL     1     -43.258  57.922 -56.490  1.00  0.00     0.105 C 
BRANCH  23  24
HETATM   24  C   UNL     1     -42.382  56.744 -56.064  1.00  0.00     0.046 C 
BRANCH  24  25
HETATM   25  C   UNL     1     -43.007  55.816 -55.023  1.00  0.00     0.203 A 
HETATM   26  N   UNL     1     -42.383  54.470 -55.098  1.00  0.00    -0.257 NA
HETATM   27  C   UNL     1     -41.807  54.322 -53.941  1.00  0.00     0.147 A 
HETATM   28  N   UNL     1     -41.943  55.328 -53.025  1.00  0.00    -0.239 N 
HETATM   29  C   UNL     1     -41.020  53.141 -53.568  1.00  0.00     0.037 A 
HETATM   30  C   UNL     1     -41.382  55.310 -51.743  1.00  0.00     0.187 A 
HETATM   31  C   UNL     1     -42.715  56.304 -53.617  1.00  0.00     0.257 A 
HETATM   32  S   UNL     1     -41.503  56.493 -50.567  1.00  0.00    -0.040 SA
HETATM   33  N   UNL     1     -40.650  54.188 -51.423  1.00  0.00    -0.332 N 
HETATM   34  C   UNL     1     -40.454  53.114 -52.296  1.00  0.00     0.048 A 
HETATM   35  H   UNL     1     -40.233  54.165 -50.497  1.00  0.00     0.168 HD
HETATM   36  C   UNL     1     -39.689  52.020 -51.893  1.00  0.00     0.030 A 
HETATM   37  C   UNL     1     -39.493  50.955 -52.775  1.00  0.00     0.002 A 
HETATM   38  C   UNL     1     -40.059  50.984 -54.052  1.00  0.00     0.001 A 
HETATM   39  C   UNL     1     -40.825  52.079 -54.453  1.00  0.00     0.017 A 
HETATM   40  O   UNL     1     -43.133  57.362 -53.173  1.00  0.00    -0.270 OA
ENDBRANCH  24  25
ENDBRANCH  23  24
ENDBRANCH   2  23
TORSDOF 9
ENDMDL
MODEL 10
REMARK VINA RESULT:      -8.4      2.247      5.013
REMARK  9 active torsions:
REMARK  status: ('A' for Active; 'I' for Inactive)
REMARK    1  A    between atoms: O_2  and  C_3 
REMARK    2  A    between atoms: C_6  and  N_7 
REMARK    3  A    between atoms: N_10  and  C_12 
REMARK    4  A    between atoms: C_12  and  C_13 
REMARK    5  A    between atoms: C_13  and  C_14 
REMARK    6  A    between atoms: C_14  and  N_15 
REMARK       I    between atoms: N_15  and  C_16 
REMARK    7  A    between atoms: C_16  and  C_17 
REMARK    8  A    between atoms: C_17  and  C_18 
REMARK    9  A    between atoms: C_18  and  C_19 
ROOT
HETATM    1  N   UNL     1     -42.145  56.250 -56.603  1.00  0.00    -0.361 N 
HETATM    2  C   UNL     1     -42.786  56.907 -55.572  1.00  0.00     0.217 C 
HETATM    3  O   UNL     1     -44.006  56.882 -55.429  1.00  0.00    -0.274 OA
HETATM    4  H   UNL     1     -41.175  56.515 -56.771  1.00  0.00     0.162 HD
ENDROOT
BRANCH   1   5
HETATM    5  C   UNL     1     -42.900  55.672 -57.693  1.00  0.00     0.124 C 
BRANCH   5   6
HETATM    6  C   UNL     1     -43.337  56.704 -58.740  1.00  0.00     0.047 C 
BRANCH   6   7
HETATM    7  C   UNL     1     -42.244  57.745 -58.944  1.00  0.00     0.236 C 
BRANCH   7   8
HETATM    8  N   UNL     1     -42.735  59.126 -58.559  1.00  0.00    -0.068 N 
HETATM    9  C   UNL     1     -44.188  59.114 -58.042  1.00  0.00     0.254 C 
HETATM   10  C   UNL     1     -44.637  60.534 -57.626  1.00  0.00     0.150 C 
HETATM   11  N   UNL     1     -43.695  61.139 -56.666  1.00  0.00    -0.378 N 
HETATM   12  C   UNL     1     -42.304  61.193 -57.162  1.00  0.00     0.150 C 
HETATM   13  C   UNL     1     -41.807  59.778 -57.523  1.00  0.00     0.254 C 
HETATM   14  H   UNL     1     -42.717  59.726 -59.393  1.00  0.00     0.280 HD
BRANCH  11  15
HETATM   15  C   UNL     1     -43.869  60.973 -55.288  1.00  0.00     0.030 A 
HETATM   16  C   UNL     1     -45.050  60.486 -54.708  1.00  0.00     0.032 A 
HETATM   17  C   UNL     1     -45.185  60.315 -53.319  1.00  0.00     0.039 A 
HETATM   18  C   UNL     1     -44.141  60.649 -52.464  1.00  0.00     0.068 A 
HETATM   19  C   UNL     1     -42.977  61.174 -53.011  1.00  0.00     0.039 A 
HETATM   20  C   UNL     1     -42.848  61.340 -54.396  1.00  0.00     0.032 A 
BRANCH  18  21
HETATM   21  O   UNL     1     -44.136  60.528 -51.105  1.00  0.00    -0.356 OA
HETATM   22  C   UNL     1     -43.436  61.523 -50.367  1.00  0.00     0.210 C 
ENDBRANCH  18  21
ENDBRANCH  11  15
ENDBRANCH   7   8
ENDBRANCH   6   7
ENDBRANCH   5   6
ENDBRANCH   1   5
BRANCH   2  23
HETATM   23  C   UNL     1     -41.870  57.661 -54.632  1.00  0.00     0.105 C 
BRANCH  23  24
HETATM   24  C   UNL     1     -41.079  56.755 -53.689  1.00  0.00     0.046 C 
BRANCH  24  25
HETATM   25  C   UNL     1     -41.880  55.614 -53.063  1.00  0.00     0.203 A 
HETATM   26  N   UNL     1     -41.548  54.330 -53.731  1.00  0.00    -0.257 NA
HETATM   27  C   UNL     1     -41.011  53.611 -52.788  1.00  0.00     0.147 A 
HETATM   28  N   UNL     1     -40.936  54.152 -51.536  1.00  0.00    -0.239 N 
HETATM   29  C   UNL     1     -40.485  52.257 -52.997  1.00  0.00     0.037 A 
HETATM   30  C   UNL     1     -40.388  53.500 -50.425  1.00  0.00     0.187 A 
HETATM   31  C   UNL     1     -41.490  55.411 -51.611  1.00  0.00     0.257 A 
HETATM   32  S   UNL     1     -40.259  54.088 -48.865  1.00  0.00    -0.040 SA
HETATM   33  N   UNL     1     -39.903  52.231 -50.653  1.00  0.00    -0.332 N 
HETATM   34  C   UNL     1     -39.934  51.599 -51.900  1.00  0.00     0.048 A 
HETATM   35  H   UNL     1     -39.497  51.749 -49.856  1.00  0.00     0.168 HD
HETATM   36  C   UNL     1     -39.411  50.315 -52.043  1.00  0.00     0.030 A 
HETATM   37  C   UNL     1     -39.441  49.696 -53.295  1.00  0.00     0.002 A 
HETATM   38  C   UNL     1     -39.991  50.357 -54.395  1.00  0.00     0.001 A 
HETATM   39  C   UNL     1     -40.516  51.642 -54.250  1.00  0.00     0.017 A 
HETATM   40  O   UNL     1     -41.680  56.247 -50.742  1.00  0.00    -0.270 OA
ENDBRANCH  24  25
ENDBRANCH  23  24
ENDBRANCH   2  23
TORSDOF 9
ENDMDL
