MODEL 1
REMARK VINA RESULT:      -8.7      0.000      0.000
REMARK  7 active torsions:
REMARK  status: ('A' for Active; 'I' for Inactive)
REMARK    1  A    between atoms: C_4  and  C_5 
REMARK    2  A    between atoms: C_5  and  C_6 
REMARK    3  A    between atoms: C_8  and  C_9 
REMARK    4  A    between atoms: C_9  and  C_10 
REMARK       I    between atoms: C_10  and  N_11 
REMARK    5  A    between atoms: N_11  and  N_12 
REMARK       I    between atoms: N_12  and  C_13 
REMARK       I    between atoms: C_13  and  N_14 
REMARK    6  A    between atoms: N_14  and  C_15 
REMARK    7  A    between atoms: C_17  and  C_18 
ROOT
HETATM    1  C   UNL     1     -45.269  58.745 -51.157  1.00  0.00     0.238 C 
HETATM    2  N   UNL     1     -44.653  57.552 -51.476  1.00  0.00    -0.266 N 
HETATM    3  O   UNL     1     -46.146  58.814 -50.295  1.00  0.00    -0.272 OA
HETATM    4  H   UNL     1     -43.765  57.563 -51.966  1.00  0.00     0.190 HD
ENDROOT
BRANCH   1   5
HETATM    5  C   UNL     1     -44.917  59.952 -52.015  1.00  0.00     0.139 C 
BRANCH   5   6
HETATM    6  C   UNL     1     -43.495  60.509 -51.943  1.00  0.00     0.185 C 
HETATM    7  N   UNL     1     -42.657  59.873 -52.953  1.00  0.00    -0.363 N 
HETATM    8  C   UNL     1     -41.693  58.957 -52.630  1.00  0.00     0.125 C 
HETATM    9  H   UNL     1     -42.762  60.181 -53.916  1.00  0.00     0.161 HD
HETATM   10  N   UNL     1     -41.393  58.631 -51.403  1.00  0.00    -0.159 NA
HETATM   11  N   UNL     1     -41.976  59.348 -50.390  1.00  0.00    -0.244 N 
HETATM   12  C   UNL     1     -42.896  60.367 -50.546  1.00  0.00     0.261 C 
HETATM   13  H   UNL     1     -41.585  59.227 -49.458  1.00  0.00     0.192 HD
HETATM   14  O   UNL     1     -43.273  61.041 -49.591  1.00  0.00    -0.269 OA
BRANCH   8  15
HETATM   15  C   UNL     1     -40.957  58.251 -53.763  1.00  0.00     0.118 C 
BRANCH  15  16
HETATM   16  C   UNL     1     -41.720  57.068 -54.305  1.00  0.00    -0.051 A 
HETATM   17  C   UNL     1     -43.109  56.977 -54.136  1.00  0.00     0.007 A 
HETATM   18  C   UNL     1     -43.820  55.898 -54.664  1.00  0.00     0.001 A 
HETATM   19  C   UNL     1     -43.152  54.905 -55.374  1.00  0.00     0.000 A 
HETATM   20  C   UNL     1     -41.773  54.987 -55.557  1.00  0.00     0.001 A 
HETATM   21  C   UNL     1     -41.059  56.063 -55.027  1.00  0.00     0.007 A 
ENDBRANCH  15  16
ENDBRANCH   8  15
ENDBRANCH   5   6
ENDBRANCH   1   5
BRANCH   2  22
HETATM   22  N   UNL     1     -44.872  56.470 -50.602  1.00  0.00    -0.249 N 
HETATM   23  C   UNL     1     -44.049  55.364 -50.556  1.00  0.00     0.339 C 
HETATM   24  N   UNL     1     -42.754  55.591 -50.963  1.00  0.00    -0.308 N 
HETATM   25  O   UNL     1     -44.507  54.299 -50.154  1.00  0.00    -0.245 OA
HETATM   26  H   UNL     1     -42.461  56.557 -50.976  1.00  0.00     0.170 HD
HETATM   27  H   UNL     1     -45.852  56.289 -50.379  1.00  0.00     0.192 HD
BRANCH  24  28
HETATM   28  C   UNL     1     -41.730  54.634 -51.128  1.00  0.00     0.037 A 
HETATM   29  C   UNL     1     -41.537  53.892 -52.296  1.00  0.00     0.045 A 
HETATM   30  C   UNL     1     -40.486  52.962 -52.399  1.00  0.00     0.050 A 
HETATM   31  C   UNL     1     -39.623  52.784 -51.309  1.00  0.00     0.016 A 
HETATM   32  C   UNL     1     -39.803  53.525 -50.143  1.00  0.00     0.003 A 
HETATM   33  C   UNL     1     -40.852  54.442 -50.054  1.00  0.00     0.029 A 
BRANCH  30  34
HETATM   34  C   UNL     1     -40.310  52.132 -53.648  1.00  0.00     0.417 C 
HETATM   35  F   UNL     1     -39.739  50.917 -53.424  1.00  0.00    -0.166 F 
HETATM   36  F   UNL     1     -41.493  51.873 -54.275  1.00  0.00    -0.166 F 
HETATM   37  F   UNL     1     -39.528  52.752 -54.575  1.00  0.00    -0.166 F 
ENDBRANCH  30  34
ENDBRANCH  24  28
ENDBRANCH   2  22
TORSDOF 7
ENDMDL
MODEL 2
REMARK VINA RESULT:      -8.6      5.547      6.940
REMARK  7 active torsions:
REMARK  status: ('A' for Active; 'I' for Inactive)
REMARK    1  A    between atoms: C_4  and  C_5 
REMARK    2  A    between atoms: C_5  and  C_6 
REMARK    3  A    between atoms: C_8  and  C_9 
REMARK    4  A    between atoms: C_9  and  C_10 
REMARK       I    between atoms: C_10  and  N_11 
REMARK    5  A    between atoms: N_11  and  N_12 
REMARK       I    between atoms: N_12  and  C_13 
REMARK       I    between atoms: C_13  and  N_14 
REMARK    6  A    between atoms: N_14  and  C_15 
REMARK    7  A    between atoms: C_17  and  C_18 
ROOT
HETATM    1  C   UNL     1     -43.226  56.280 -57.849  1.00  0.00     0.238 C 
HETATM    2  N   UNL     1     -43.431  55.263 -56.940  1.00  0.00    -0.266 N 
HETATM    3  O   UNL     1     -43.437  57.460 -57.565  1.00  0.00    -0.272 OA
HETATM    4  H   UNL     1     -42.994  54.361 -57.092  1.00  0.00     0.190 HD
ENDROOT
BRANCH   1   5
HETATM    5  C   UNL     1     -42.860  55.871 -59.269  1.00  0.00     0.139 C 
BRANCH   5   6
HETATM    6  C   UNL     1     -43.922  55.998 -60.361  1.00  0.00     0.185 C 
HETATM    7  N   UNL     1     -44.145  57.403 -60.681  1.00  0.00    -0.363 N 
HETATM    8  C   UNL     1     -45.283  58.065 -60.307  1.00  0.00     0.125 C 
HETATM    9  H   UNL     1     -43.452  57.873 -61.257  1.00  0.00     0.161 HD
HETATM   10  N   UNL     1     -46.286  57.487 -59.705  1.00  0.00    -0.159 NA
HETATM   11  N   UNL     1     -46.251  56.123 -59.570  1.00  0.00    -0.244 N 
HETATM   12  C   UNL     1     -45.222  55.296 -59.978  1.00  0.00     0.261 C 
HETATM   13  H   UNL     1     -47.118  55.667 -59.291  1.00  0.00     0.192 HD
HETATM   14  O   UNL     1     -45.328  54.073 -59.934  1.00  0.00    -0.269 OA
BRANCH   8  15
HETATM   15  C   UNL     1     -45.369  59.564 -60.572  1.00  0.00     0.118 C 
BRANCH  15  16
HETATM   16  C   UNL     1     -44.014  60.223 -60.638  1.00  0.00    -0.051 A 
HETATM   17  C   UNL     1     -43.479  60.632 -61.868  1.00  0.00     0.007 A 
HETATM   18  C   UNL     1     -42.239  61.269 -61.927  1.00  0.00     0.001 A 
HETATM   19  C   UNL     1     -41.524  61.512 -60.757  1.00  0.00     0.000 A 
HETATM   20  C   UNL     1     -42.048  61.117 -59.527  1.00  0.00     0.001 A 
HETATM   21  C   UNL     1     -43.287  60.477 -59.466  1.00  0.00     0.007 A 
ENDBRANCH  15  16
ENDBRANCH   8  15
ENDBRANCH   5   6
ENDBRANCH   1   5
BRANCH   2  22
HETATM   22  N   UNL     1     -43.634  55.642 -55.599  1.00  0.00    -0.249 N 
HETATM   23  C   UNL     1     -43.065  54.971 -54.536  1.00  0.00     0.339 C 
HETATM   24  N   UNL     1     -41.896  54.307 -54.831  1.00  0.00    -0.308 N 
HETATM   25  O   UNL     1     -43.610  55.028 -53.438  1.00  0.00    -0.245 OA
HETATM   26  H   UNL     1     -41.429  54.596 -55.678  1.00  0.00     0.170 HD
HETATM   27  H   UNL     1     -44.542  56.068 -55.405  1.00  0.00     0.192 HD
BRANCH  24  28
HETATM   28  C   UNL     1     -41.161  53.453 -53.982  1.00  0.00     0.037 A 
HETATM   29  C   UNL     1     -40.780  52.152 -54.323  1.00  0.00     0.045 A 
HETATM   30  C   UNL     1     -40.034  51.358 -53.432  1.00  0.00     0.050 A 
HETATM   31  C   UNL     1     -39.671  51.888 -52.186  1.00  0.00     0.016 A 
HETATM   32  C   UNL     1     -40.040  53.186 -51.840  1.00  0.00     0.003 A 
HETATM   33  C   UNL     1     -40.783  53.961 -52.733  1.00  0.00     0.029 A 
BRANCH  30  34
HETATM   34  C   UNL     1     -39.663  49.940 -53.789  1.00  0.00     0.417 C 
HETATM   35  F   UNL     1     -38.417  49.815 -54.325  1.00  0.00    -0.166 F 
HETATM   36  F   UNL     1     -39.684  49.105 -52.711  1.00  0.00    -0.166 F 
HETATM   37  F   UNL     1     -40.520  49.393 -54.696  1.00  0.00    -0.166 F 
ENDBRANCH  30  34
ENDBRANCH  24  28
ENDBRANCH   2  22
TORSDOF 7
ENDMDL
MODEL 3
REMARK VINA RESULT:      -8.4      2.598      3.365
REMARK  7 active torsions:
REMARK  status: ('A' for Active; 'I' for Inactive)
REMARK    1  A    between atoms: C_4  and  C_5 
REMARK    2  A    between atoms: C_5  and  C_6 
REMARK    3  A    between atoms: C_8  and  C_9 
REMARK    4  A    between atoms: C_9  and  C_10 
REMARK       I    between atoms: C_10  and  N_11 
REMARK    5  A    between atoms: N_11  and  N_12 
REMARK       I    between atoms: N_12  and  C_13 
REMARK       I    between atoms: C_13  and  N_14 
REMARK    6  A    between atoms: N_14  and  C_15 
REMARK    7  A    between atoms: C_17  and  C_18 
ROOT
HETATM    1  C   UNL     1     -43.126  58.051 -51.489  1.00  0.00     0.238 C 
HETATM    2  N   UNL     1     -42.259  57.234 -50.793  1.00  0.00    -0.266 N 
HETATM    3  O   UNL     1     -44.245  57.669 -51.833  1.00  0.00    -0.272 OA
HETATM    4  H   UNL     1     -41.483  57.646 -50.286  1.00  0.00     0.190 HD
ENDROOT
BRANCH   1   5
HETATM    5  C   UNL     1     -42.587  59.402 -51.939  1.00  0.00     0.139 C 
BRANCH   5   6
HETATM    6  C   UNL     1     -41.884  59.493 -53.292  1.00  0.00     0.185 C 
HETATM    7  N   UNL     1     -42.766  59.009 -54.348  1.00  0.00    -0.363 N 
HETATM    8  C   UNL     1     -42.563  57.810 -54.976  1.00  0.00     0.125 C 
HETATM    9  H   UNL     1     -43.513  59.624 -54.660  1.00  0.00     0.161 HD
HETATM   10  N   UNL     1     -41.537  57.040 -54.741  1.00  0.00    -0.159 NA
HETATM   11  N   UNL     1     -40.545  57.527 -53.929  1.00  0.00    -0.244 N 
HETATM   12  C   UNL     1     -40.549  58.754 -53.293  1.00  0.00     0.261 C 
HETATM   13  H   UNL     1     -39.666  57.012 -53.919  1.00  0.00     0.192 HD
HETATM   14  O   UNL     1     -39.563  59.163 -52.686  1.00  0.00    -0.269 OA
BRANCH   8  15
HETATM   15  C   UNL     1     -43.610  57.329 -55.974  1.00  0.00     0.118 C 
BRANCH  15  16
HETATM   16  C   UNL     1     -43.070  57.216 -57.378  1.00  0.00    -0.051 A 
HETATM   17  C   UNL     1     -43.244  56.037 -58.117  1.00  0.00     0.007 A 
HETATM   18  C   UNL     1     -42.771  55.944 -59.427  1.00  0.00     0.001 A 
HETATM   19  C   UNL     1     -42.127  57.029 -60.014  1.00  0.00     0.000 A 
HETATM   20  C   UNL     1     -41.953  58.209 -59.293  1.00  0.00     0.001 A 
HETATM   21  C   UNL     1     -42.423  58.304 -57.982  1.00  0.00     0.007 A 
ENDBRANCH  15  16
ENDBRANCH   8  15
ENDBRANCH   5   6
ENDBRANCH   1   5
BRANCH   2  22
HETATM   22  N   UNL     1     -42.795  56.047 -50.260  1.00  0.00    -0.249 N 
HETATM   23  C   UNL     1     -42.501  54.797 -50.766  1.00  0.00     0.339 C 
HETATM   24  N   UNL     1     -41.287  54.706 -51.408  1.00  0.00    -0.308 N 
HETATM   25  O   UNL     1     -43.304  53.884 -50.598  1.00  0.00    -0.245 OA
HETATM   26  H   UNL     1     -40.627  55.443 -51.206  1.00  0.00     0.170 HD
HETATM   27  H   UNL     1     -43.728  56.140 -49.854  1.00  0.00     0.192 HD
BRANCH  24  28
HETATM   28  C   UNL     1     -40.776  53.598 -52.116  1.00  0.00     0.037 A 
HETATM   29  C   UNL     1     -40.439  52.379 -51.519  1.00  0.00     0.045 A 
HETATM   30  C   UNL     1     -39.946  51.308 -52.287  1.00  0.00     0.050 A 
HETATM   31  C   UNL     1     -39.795  51.473 -53.671  1.00  0.00     0.016 A 
HETATM   32  C   UNL     1     -40.136  52.681 -54.276  1.00  0.00     0.003 A 
HETATM   33  C   UNL     1     -40.620  53.737 -53.500  1.00  0.00     0.029 A 
BRANCH  30  34
HETATM   34  C   UNL     1     -39.544  50.010 -51.631  1.00  0.00     0.417 C 
HETATM   35  F   UNL     1     -40.477  49.515 -50.772  1.00  0.00    -0.166 F 
HETATM   36  F   UNL     1     -39.312  49.015 -52.535  1.00  0.00    -0.166 F 
HETATM   37  F   UNL     1     -38.394  50.129 -50.910  1.00  0.00    -0.166 F 
ENDBRANCH  30  34
ENDBRANCH  24  28
ENDBRANCH   2  22
TORSDOF 7
ENDMDL
MODEL 4
REMARK VINA RESULT:      -8.3      3.682      6.412
REMARK  7 active torsions:
REMARK  status: ('A' for Active; 'I' for Inactive)
REMARK    1  A    between atoms: C_4  and  C_5 
REMARK    2  A    between atoms: C_5  and  C_6 
REMARK    3  A    between atoms: C_8  and  C_9 
REMARK    4  A    between atoms: C_9  and  C_10 
REMARK       I    between atoms: C_10  and  N_11 
REMARK    5  A    between atoms: N_11  and  N_12 
REMARK       I    between atoms: N_12  and  C_13 
REMARK       I    between atoms: C_13  and  N_14 
REMARK    6  A    between atoms: N_14  and  C_15 
REMARK    7  A    between atoms: C_17  and  C_18 
ROOT
HETATM    1  C   UNL     1     -41.876  59.653 -52.695  1.00  0.00     0.238 C 
HETATM    2  N   UNL     1     -42.709  60.123 -53.690  1.00  0.00    -0.266 N 
HETATM    3  O   UNL     1     -40.658  59.562 -52.855  1.00  0.00    -0.272 OA
HETATM    4  H   UNL     1     -43.638  60.451 -53.451  1.00  0.00     0.190 HD
ENDROOT
BRANCH   1   5
HETATM    5  C   UNL     1     -42.543  59.119 -51.435  1.00  0.00     0.139 C 
BRANCH   5   6
HETATM    6  C   UNL     1     -42.695  57.607 -51.275  1.00  0.00     0.185 C 
HETATM    7  N   UNL     1     -41.754  56.914 -52.149  1.00  0.00    -0.363 N 
HETATM    8  C   UNL     1     -42.158  56.251 -53.276  1.00  0.00     0.125 C 
HETATM    9  H   UNL     1     -40.780  56.878 -51.861  1.00  0.00     0.161 HD
HETATM   10  N   UNL     1     -43.408  56.119 -53.624  1.00  0.00    -0.159 NA
HETATM   11  N   UNL     1     -44.366  56.545 -52.740  1.00  0.00    -0.244 N 
HETATM   12  C   UNL     1     -44.130  57.148 -51.519  1.00  0.00     0.261 C 
HETATM   13  H   UNL     1     -45.324  56.253 -52.925  1.00  0.00     0.192 HD
HETATM   14  O   UNL     1     -45.044  57.383 -50.734  1.00  0.00    -0.269 OA
BRANCH   8  15
HETATM   15  C   UNL     1     -41.090  55.669 -54.195  1.00  0.00     0.118 C 
BRANCH  15  16
HETATM   16  C   UNL     1     -40.646  54.291 -53.774  1.00  0.00    -0.051 A 
HETATM   17  C   UNL     1     -40.545  53.959 -52.415  1.00  0.00     0.007 A 
HETATM   18  C   UNL     1     -40.164  52.674 -52.025  1.00  0.00     0.001 A 
HETATM   19  C   UNL     1     -39.890  51.706 -52.987  1.00  0.00     0.000 A 
HETATM   20  C   UNL     1     -39.994  52.021 -54.340  1.00  0.00     0.001 A 
HETATM   21  C   UNL     1     -40.372  53.306 -54.733  1.00  0.00     0.007 A 
ENDBRANCH  15  16
ENDBRANCH   8  15
ENDBRANCH   5   6
ENDBRANCH   1   5
BRANCH   2  22
HETATM   22  N   UNL     1     -42.092  60.741 -54.795  1.00  0.00    -0.249 N 
HETATM   23  C   UNL     1     -42.265  60.304 -56.092  1.00  0.00     0.339 C 
HETATM   24  N   UNL     1     -43.447  59.638 -56.323  1.00  0.00    -0.308 N 
HETATM   25  O   UNL     1     -41.395  60.548 -56.922  1.00  0.00    -0.245 OA
HETATM   26  H   UNL     1     -44.173  59.778 -55.635  1.00  0.00     0.170 HD
HETATM   27  H   UNL     1     -41.183  61.164 -54.599  1.00  0.00     0.192 HD
BRANCH  24  28
HETATM   28  C   UNL     1     -43.842  58.987 -57.511  1.00  0.00     0.037 A 
HETATM   29  C   UNL     1     -43.521  57.661 -57.818  1.00  0.00     0.045 A 
HETATM   30  C   UNL     1     -43.960  57.068 -59.016  1.00  0.00     0.050 A 
HETATM   31  C   UNL     1     -44.731  57.825 -59.910  1.00  0.00     0.016 A 
HETATM   32  C   UNL     1     -45.062  59.144 -59.609  1.00  0.00     0.003 A 
HETATM   33  C   UNL     1     -44.617  59.721 -58.418  1.00  0.00     0.029 A 
BRANCH  30  34
HETATM   34  C   UNL     1     -43.574  55.650 -59.361  1.00  0.00     0.417 C 
HETATM   35  F   UNL     1     -44.396  55.063 -60.274  1.00  0.00    -0.166 F 
HETATM   36  F   UNL     1     -42.319  55.563 -59.887  1.00  0.00    -0.166 F 
HETATM   37  F   UNL     1     -43.575  54.834 -58.271  1.00  0.00    -0.166 F 
ENDBRANCH  30  34
ENDBRANCH  24  28
ENDBRANCH   2  22
TORSDOF 7
ENDMDL
MODEL 5
REMARK VINA RESULT:      -8.3      5.997      7.355
REMARK  7 active torsions:
REMARK  status: ('A' for Active; 'I' for Inactive)
REMARK    1  A    between atoms: C_4  and  C_5 
REMARK    2  A    between atoms: C_5  and  C_6 
REMARK    3  A    between atoms: C_8  and  C_9 
REMARK    4  A    between atoms: C_9  and  C_10 
REMARK       I    between atoms: C_10  and  N_11 
REMARK    5  A    between atoms: N_11  and  N_12 
REMARK       I    between atoms: N_12  and  C_13 
REMARK       I    between atoms: C_13  and  N_14 
REMARK    6  A    between atoms: N_14  and  C_15 
REMARK    7  A    between atoms: C_17  and  C_18 
ROOT
HETATM    1  C   UNL     1     -43.416  56.531 -57.841  1.00  0.00     0.238 C 
HETATM    2  N   UNL     1     -43.366  55.486 -56.941  1.00  0.00    -0.266 N 
HETATM    3  O   UNL     1     -43.892  57.627 -57.541  1.00  0.00    -0.272 OA
HETATM    4  H   UNL     1     -42.733  54.712 -57.109  1.00  0.00     0.190 HD
ENDROOT
BRANCH   1   5
HETATM    5  C   UNL     1     -42.984  56.230 -59.270  1.00  0.00     0.139 C 
BRANCH   5   6
HETATM    6  C   UNL     1     -44.047  56.228 -60.368  1.00  0.00     0.185 C 
HETATM    7  N   UNL     1     -44.494  57.591 -60.634  1.00  0.00    -0.363 N 
HETATM    8  C   UNL     1     -45.727  58.043 -60.247  1.00  0.00     0.125 C 
HETATM    9  H   UNL     1     -43.884  58.190 -61.183  1.00  0.00     0.161 HD
HETATM   10  N   UNL     1     -46.625  57.285 -59.680  1.00  0.00    -0.159 NA
HETATM   11  N   UNL     1     -46.369  55.940 -59.599  1.00  0.00    -0.244 N 
HETATM   12  C   UNL     1     -45.217  55.309 -60.028  1.00  0.00     0.261 C 
HETATM   13  H   UNL     1     -47.151  55.339 -59.348  1.00  0.00     0.192 HD
HETATM   14  O   UNL     1     -45.123  54.085 -60.034  1.00  0.00    -0.269 OA
BRANCH   8  15
HETATM   15  C   UNL     1     -46.055  59.517 -60.452  1.00  0.00     0.118 C 
BRANCH  15  16
HETATM   16  C   UNL     1     -47.519  59.756 -60.723  1.00  0.00    -0.051 A 
HETATM   17  C   UNL     1     -48.326  60.394 -59.769  1.00  0.00     0.007 A 
HETATM   18  C   UNL     1     -49.674  60.643 -60.032  1.00  0.00     0.001 A 
HETATM   19  C   UNL     1     -50.227  60.266 -61.252  1.00  0.00     0.000 A 
HETATM   20  C   UNL     1     -49.434  59.640 -62.212  1.00  0.00     0.001 A 
HETATM   21  C   UNL     1     -48.087  59.387 -61.951  1.00  0.00     0.007 A 
ENDBRANCH  15  16
ENDBRANCH   8  15
ENDBRANCH   5   6
ENDBRANCH   1   5
BRANCH   2  22
HETATM   22  N   UNL     1     -43.633  55.795 -55.594  1.00  0.00    -0.249 N 
HETATM   23  C   UNL     1     -43.098  55.083 -54.540  1.00  0.00     0.339 C 
HETATM   24  N   UNL     1     -41.905  54.454 -54.816  1.00  0.00    -0.308 N 
HETATM   25  O   UNL     1     -43.691  55.077 -53.466  1.00  0.00    -0.245 OA
HETATM   26  H   UNL     1     -41.407  54.792 -55.626  1.00  0.00     0.170 HD
HETATM   27  H   UNL     1     -44.557  56.197 -55.420  1.00  0.00     0.192 HD
BRANCH  24  28
HETATM   28  C   UNL     1     -41.191  53.573 -53.977  1.00  0.00     0.037 A 
HETATM   29  C   UNL     1     -40.850  52.264 -54.331  1.00  0.00     0.045 A 
HETATM   30  C   UNL     1     -40.123  51.442 -53.450  1.00  0.00     0.050 A 
HETATM   31  C   UNL     1     -39.738  51.950 -52.201  1.00  0.00     0.016 A 
HETATM   32  C   UNL     1     -40.068  53.256 -51.844  1.00  0.00     0.003 A 
HETATM   33  C   UNL     1     -40.792  54.060 -52.726  1.00  0.00     0.029 A 
BRANCH  30  34
HETATM   34  C   UNL     1     -39.795  50.016 -53.820  1.00  0.00     0.417 C 
HETATM   35  F   UNL     1     -39.683  49.182 -52.750  1.00  0.00    -0.166 F 
HETATM   36  F   UNL     1     -40.741  49.454 -54.627  1.00  0.00    -0.166 F 
HETATM   37  F   UNL     1     -38.621  49.915 -54.503  1.00  0.00    -0.166 F 
ENDBRANCH  30  34
ENDBRANCH  24  28
ENDBRANCH   2  22
TORSDOF 7
ENDMDL
MODEL 6
REMARK VINA RESULT:      -8.1      2.781      6.061
REMARK  7 active torsions:
REMARK  status: ('A' for Active; 'I' for Inactive)
REMARK    1  A    between atoms: C_4  and  C_5 
REMARK    2  A    between atoms: C_5  and  C_6 
REMARK    3  A    between atoms: C_8  and  C_9 
REMARK    4  A    between atoms: C_9  and  C_10 
REMARK       I    between atoms: C_10  and  N_11 
REMARK    5  A    between atoms: N_11  and  N_12 
REMARK       I    between atoms: N_12  and  C_13 
REMARK       I    between atoms: C_13  and  N_14 
REMARK    6  A    between atoms: N_14  and  C_15 
REMARK    7  A    between atoms: C_17  and  C_18 
ROOT
HETATM    1  C   UNL     1     -41.412  57.282 -50.806  1.00  0.00     0.238 C 
HETATM    2  N   UNL     1     -42.201  58.389 -50.567  1.00  0.00    -0.266 N 
HETATM    3  O   UNL     1     -40.711  57.188 -51.814  1.00  0.00    -0.272 OA
HETATM    4  H   UNL     1     -42.537  58.569 -49.627  1.00  0.00     0.190 HD
ENDROOT
BRANCH   1   5
HETATM    5  C   UNL     1     -41.550  56.116 -49.837  1.00  0.00     0.139 C 
BRANCH   5   6
HETATM    6  C   UNL     1     -42.171  54.815 -50.344  1.00  0.00     0.185 C 
HETATM    7  N   UNL     1     -41.297  54.196 -51.335  1.00  0.00    -0.363 N 
HETATM    8  C   UNL     1     -41.600  54.183 -52.669  1.00  0.00     0.125 C 
HETATM    9  H   UNL     1     -40.472  53.708 -50.998  1.00  0.00     0.161 HD
HETATM   10  N   UNL     1     -42.716  54.650 -53.158  1.00  0.00    -0.159 NA
HETATM   11  N   UNL     1     -43.687  55.042 -52.272  1.00  0.00    -0.244 N 
HETATM   12  C   UNL     1     -43.579  55.031 -50.895  1.00  0.00     0.261 C 
HETATM   13  H   UNL     1     -44.617  55.207 -52.654  1.00  0.00     0.192 HD
HETATM   14  O   UNL     1     -44.541  55.279 -50.174  1.00  0.00    -0.269 OA
BRANCH   8  15
HETATM   15  C   UNL     1     -40.565  53.630 -53.642  1.00  0.00     0.118 C 
BRANCH  15  16
HETATM   16  C   UNL     1     -40.236  52.181 -53.381  1.00  0.00    -0.051 A 
HETATM   17  C   UNL     1     -40.362  51.226 -54.400  1.00  0.00     0.007 A 
HETATM   18  C   UNL     1     -40.029  49.891 -54.168  1.00  0.00     0.001 A 
HETATM   19  C   UNL     1     -39.558  49.498 -52.919  1.00  0.00     0.000 A 
HETATM   20  C   UNL     1     -39.420  50.438 -51.899  1.00  0.00     0.001 A 
HETATM   21  C   UNL     1     -39.756  51.773 -52.128  1.00  0.00     0.007 A 
ENDBRANCH  15  16
ENDBRANCH   8  15
ENDBRANCH   5   6
ENDBRANCH   1   5
BRANCH   2  22
HETATM   22  N   UNL     1     -41.976  59.516 -51.379  1.00  0.00    -0.249 N 
HETATM   23  C   UNL     1     -42.317  59.559 -52.715  1.00  0.00     0.339 C 
HETATM   24  N   UNL     1     -43.350  58.722 -53.073  1.00  0.00    -0.308 N 
HETATM   25  O   UNL     1     -41.713  60.325 -53.458  1.00  0.00    -0.245 OA
HETATM   26  H   UNL     1     -43.929  58.388 -52.316  1.00  0.00     0.170 HD
HETATM   27  H   UNL     1     -41.160  60.074 -51.123  1.00  0.00     0.192 HD
BRANCH  24  28
HETATM   28  C   UNL     1     -43.834  58.471 -54.375  1.00  0.00     0.037 A 
HETATM   29  C   UNL     1     -43.226  57.596 -55.279  1.00  0.00     0.045 A 
HETATM   30  C   UNL     1     -43.770  57.382 -56.559  1.00  0.00     0.050 A 
HETATM   31  C   UNL     1     -44.941  58.061 -56.925  1.00  0.00     0.016 A 
HETATM   32  C   UNL     1     -45.558  58.930 -56.028  1.00  0.00     0.003 A 
HETATM   33  C   UNL     1     -45.005  59.135 -54.762  1.00  0.00     0.029 A 
BRANCH  30  34
HETATM   34  C   UNL     1     -43.084  56.468 -57.545  1.00  0.00     0.417 C 
HETATM   35  F   UNL     1     -42.501  55.380 -56.972  1.00  0.00    -0.166 F 
HETATM   36  F   UNL     1     -43.941  55.974 -58.484  1.00  0.00    -0.166 F 
HETATM   37  F   UNL     1     -42.100  57.103 -58.241  1.00  0.00    -0.166 F 
ENDBRANCH  30  34
ENDBRANCH  24  28
ENDBRANCH   2  22
TORSDOF 7
ENDMDL
MODEL 7
REMARK VINA RESULT:      -8.1      5.726      7.107
REMARK  7 active torsions:
REMARK  status: ('A' for Active; 'I' for Inactive)
REMARK    1  A    between atoms: C_4  and  C_5 
REMARK    2  A    between atoms: C_5  and  C_6 
REMARK    3  A    between atoms: C_8  and  C_9 
REMARK    4  A    between atoms: C_9  and  C_10 
REMARK       I    between atoms: C_10  and  N_11 
REMARK    5  A    between atoms: N_11  and  N_12 
REMARK       I    between atoms: N_12  and  C_13 
REMARK       I    between atoms: C_13  and  N_14 
REMARK    6  A    between atoms: N_14  and  C_15 
REMARK    7  A    between atoms: C_17  and  C_18 
ROOT
HETATM    1  C   UNL     1     -43.235  56.364 -57.827  1.00  0.00     0.238 C 
HETATM    2  N   UNL     1     -43.454  55.376 -56.889  1.00  0.00    -0.266 N 
HETATM    3  O   UNL     1     -43.447  57.552 -57.582  1.00  0.00    -0.272 OA
HETATM    4  H   UNL     1     -43.017  54.468 -57.008  1.00  0.00     0.190 HD
ENDROOT
BRANCH   1   5
HETATM    5  C   UNL     1     -42.851  55.910 -59.228  1.00  0.00     0.139 C 
BRANCH   5   6
HETATM    6  C   UNL     1     -43.897  56.007 -60.339  1.00  0.00     0.185 C 
HETATM    7  N   UNL     1     -44.153  57.405 -60.665  1.00  0.00    -0.363 N 
HETATM    8  C   UNL     1     -45.315  58.036 -60.311  1.00  0.00     0.125 C 
HETATM    9  H   UNL     1     -43.463  57.893 -61.230  1.00  0.00     0.161 HD
HETATM   10  N   UNL     1     -46.311  57.432 -59.725  1.00  0.00    -0.159 NA
HETATM   11  N   UNL     1     -46.242  56.069 -59.588  1.00  0.00    -0.244 N 
HETATM   12  C   UNL     1     -45.184  55.270 -59.977  1.00  0.00     0.261 C 
HETATM   13  H   UNL     1     -47.100  55.590 -59.322  1.00  0.00     0.192 HD
HETATM   14  O   UNL     1     -45.257  54.045 -59.932  1.00  0.00    -0.269 OA
BRANCH   8  15
HETATM   15  C   UNL     1     -45.437  59.532 -60.580  1.00  0.00     0.118 C 
BRANCH  15  16
HETATM   16  C   UNL     1     -44.100  60.199 -60.779  1.00  0.00    -0.051 A 
HETATM   17  C   UNL     1     -43.226  60.383 -59.697  1.00  0.00     0.007 A 
HETATM   18  C   UNL     1     -41.975  60.973 -59.886  1.00  0.00     0.001 A 
HETATM   19  C   UNL     1     -41.581  61.377 -61.159  1.00  0.00     0.000 A 
HETATM   20  C   UNL     1     -42.436  61.193 -62.244  1.00  0.00     0.001 A 
HETATM   21  C   UNL     1     -43.689  60.606 -62.057  1.00  0.00     0.007 A 
ENDBRANCH  15  16
ENDBRANCH   8  15
ENDBRANCH   5   6
ENDBRANCH   1   5
BRANCH   2  22
HETATM   22  N   UNL     1     -43.674  55.795 -55.564  1.00  0.00    -0.249 N 
HETATM   23  C   UNL     1     -43.117  55.161 -54.473  1.00  0.00     0.339 C 
HETATM   24  N   UNL     1     -41.943  54.491 -54.733  1.00  0.00    -0.308 N 
HETATM   25  O   UNL     1     -43.676  55.250 -53.384  1.00  0.00    -0.245 OA
HETATM   26  H   UNL     1     -41.466  54.754 -55.583  1.00  0.00     0.170 HD
HETATM   27  H   UNL     1     -44.586  56.225 -55.395  1.00  0.00     0.192 HD
BRANCH  24  28
HETATM   28  C   UNL     1     -41.216  53.666 -53.849  1.00  0.00     0.037 A 
HETATM   29  C   UNL     1     -41.194  53.838 -52.462  1.00  0.00     0.045 A 
HETATM   30  C   UNL     1     -40.457  52.970 -51.635  1.00  0.00     0.050 A 
HETATM   31  C   UNL     1     -39.738  51.918 -52.220  1.00  0.00     0.016 A 
HETATM   32  C   UNL     1     -39.760  51.734 -53.600  1.00  0.00     0.003 A 
HETATM   33  C   UNL     1     -40.492  52.606 -54.409  1.00  0.00     0.029 A 
BRANCH  30  34
HETATM   34  C   UNL     1     -40.403  53.187 -50.142  1.00  0.00     0.417 C 
HETATM   35  F   UNL     1     -40.355  52.034 -49.420  1.00  0.00    -0.166 F 
HETATM   36  F   UNL     1     -39.311  53.908 -49.758  1.00  0.00    -0.166 F 
HETATM   37  F   UNL     1     -41.483  53.877 -49.680  1.00  0.00    -0.166 F 
ENDBRANCH  30  34
ENDBRANCH  24  28
ENDBRANCH   2  22
TORSDOF 7
ENDMDL
MODEL 8
REMARK VINA RESULT:      -7.9      4.910      6.071
REMARK  7 active torsions:
REMARK  status: ('A' for Active; 'I' for Inactive)
REMARK    1  A    between atoms: C_4  and  C_5 
REMARK    2  A    between atoms: C_5  and  C_6 
REMARK    3  A    between atoms: C_8  and  C_9 
REMARK    4  A    between atoms: C_9  and  C_10 
REMARK       I    between atoms: C_10  and  N_11 
REMARK    5  A    between atoms: N_11  and  N_12 
REMARK       I    between atoms: N_12  and  C_13 
REMARK       I    between atoms: C_13  and  N_14 
REMARK    6  A    between atoms: N_14  and  C_15 
REMARK    7  A    between atoms: C_17  and  C_18 
ROOT
HETATM    1  C   UNL     1     -42.944  56.739 -56.440  1.00  0.00     0.238 C 
HETATM    2  N   UNL     1     -43.620  55.642 -55.946  1.00  0.00    -0.266 N 
HETATM    3  O   UNL     1     -42.780  57.759 -55.769  1.00  0.00    -0.272 OA
HETATM    4  H   UNL     1     -43.500  54.739 -56.391  1.00  0.00     0.190 HD
ENDROOT
BRANCH   1   5
HETATM    5  C   UNL     1     -42.528  56.689 -57.904  1.00  0.00     0.139 C 
BRANCH   5   6
HETATM    6  C   UNL     1     -42.984  57.816 -58.831  1.00  0.00     0.185 C 
HETATM    7  N   UNL     1     -42.083  58.957 -58.712  1.00  0.00    -0.363 N 
HETATM    8  C   UNL     1     -42.450  60.114 -58.079  1.00  0.00     0.125 C 
HETATM    9  H   UNL     1     -41.181  58.897 -59.177  1.00  0.00     0.161 HD
HETATM   10  N   UNL     1     -43.644  60.322 -57.598  1.00  0.00    -0.159 NA
HETATM   11  N   UNL     1     -44.614  59.391 -57.867  1.00  0.00    -0.244 N 
HETATM   12  C   UNL     1     -44.434  58.216 -58.572  1.00  0.00     0.261 C 
HETATM   13  H   UNL     1     -45.576  59.660 -57.669  1.00  0.00     0.192 HD
HETATM   14  O   UNL     1     -45.384  57.501 -58.877  1.00  0.00    -0.269 OA
BRANCH   8  15
HETATM   15  C   UNL     1     -41.398  61.201 -57.891  1.00  0.00     0.118 C 
BRANCH  15  16
HETATM   16  C   UNL     1     -40.962  61.822 -59.194  1.00  0.00    -0.051 A 
HETATM   17  C   UNL     1     -39.830  62.648 -59.247  1.00  0.00     0.007 A 
HETATM   18  C   UNL     1     -39.408  63.198 -60.459  1.00  0.00     0.001 A 
HETATM   19  C   UNL     1     -40.107  62.922 -61.630  1.00  0.00     0.000 A 
HETATM   20  C   UNL     1     -41.229  62.095 -61.593  1.00  0.00     0.001 A 
HETATM   21  C   UNL     1     -41.654  61.546 -60.382  1.00  0.00     0.007 A 
ENDBRANCH  15  16
ENDBRANCH   8  15
ENDBRANCH   5   6
ENDBRANCH   1   5
BRANCH   2  22
HETATM   22  N   UNL     1     -43.884  55.629 -54.563  1.00  0.00    -0.249 N 
HETATM   23  C   UNL     1     -43.236  54.787 -53.683  1.00  0.00     0.339 C 
HETATM   24  N   UNL     1     -41.983  54.384 -54.088  1.00  0.00    -0.308 N 
HETATM   25  O   UNL     1     -43.792  54.484 -52.633  1.00  0.00    -0.245 OA
HETATM   26  H   UNL     1     -41.554  54.942 -54.812  1.00  0.00     0.170 HD
HETATM   27  H   UNL     1     -44.844  55.867 -54.306  1.00  0.00     0.192 HD
BRANCH  24  28
HETATM   28  C   UNL     1     -41.143  53.444 -53.455  1.00  0.00     0.037 A 
HETATM   29  C   UNL     1     -40.792  52.211 -54.012  1.00  0.00     0.045 A 
HETATM   30  C   UNL     1     -39.936  51.325 -53.331  1.00  0.00     0.050 A 
HETATM   31  C   UNL     1     -39.432  51.693 -52.076  1.00  0.00     0.016 A 
HETATM   32  C   UNL     1     -39.770  52.924 -51.516  1.00  0.00     0.003 A 
HETATM   33  C   UNL     1     -40.623  53.791 -52.202  1.00  0.00     0.029 A 
BRANCH  30  34
HETATM   34  C   UNL     1     -39.596  49.977 -53.919  1.00  0.00     0.417 C 
HETATM   35  F   UNL     1     -40.588  49.446 -54.685  1.00  0.00    -0.166 F 
HETATM   36  F   UNL     1     -38.494  50.018 -54.720  1.00  0.00    -0.166 F 
HETATM   37  F   UNL     1     -39.322  49.049 -52.960  1.00  0.00    -0.166 F 
ENDBRANCH  30  34
ENDBRANCH  24  28
ENDBRANCH   2  22
TORSDOF 7
ENDMDL
MODEL 9
REMARK VINA RESULT:      -7.8      5.902      7.265
REMARK  7 active torsions:
REMARK  status: ('A' for Active; 'I' for Inactive)
REMARK    1  A    between atoms: C_4  and  C_5 
REMARK    2  A    between atoms: C_5  and  C_6 
REMARK    3  A    between atoms: C_8  and  C_9 
REMARK    4  A    between atoms: C_9  and  C_10 
REMARK       I    between atoms: C_10  and  N_11 
REMARK    5  A    between atoms: N_11  and  N_12 
REMARK       I    between atoms: N_12  and  C_13 
REMARK       I    between atoms: C_13  and  N_14 
REMARK    6  A    between atoms: N_14  and  C_15 
REMARK    7  A    between atoms: C_17  and  C_18 
ROOT
HETATM    1  C   UNL     1     -42.616  57.314 -57.844  1.00  0.00     0.238 C 
HETATM    2  N   UNL     1     -42.627  56.028 -57.342  1.00  0.00    -0.266 N 
HETATM    3  O   UNL     1     -43.451  58.152 -57.503  1.00  0.00    -0.272 OA
HETATM    4  H   UNL     1     -41.791  55.457 -57.412  1.00  0.00     0.190 HD
ENDROOT
BRANCH   1   5
HETATM    5  C   UNL     1     -41.609  57.613 -58.946  1.00  0.00     0.139 C 
BRANCH   5   6
HETATM    6  C   UNL     1     -42.120  57.762 -60.379  1.00  0.00     0.185 C 
HETATM    7  N   UNL     1     -42.070  59.162 -60.785  1.00  0.00    -0.363 N 
HETATM    8  C   UNL     1     -43.200  59.923 -60.921  1.00  0.00     0.125 C 
HETATM    9  H   UNL     1     -41.165  59.550 -61.035  1.00  0.00     0.161 HD
HETATM   10  N   UNL     1     -44.407  59.451 -60.772  1.00  0.00    -0.159 NA
HETATM   11  N   UNL     1     -44.549  58.097 -60.613  1.00  0.00    -0.244 N 
HETATM   12  C   UNL     1     -43.520  57.177 -60.550  1.00  0.00     0.261 C 
HETATM   13  H   UNL     1     -45.490  57.720 -60.705  1.00  0.00     0.192 HD
HETATM   14  O   UNL     1     -43.740  55.969 -60.533  1.00  0.00    -0.269 OA
BRANCH   8  15
HETATM   15  C   UNL     1     -43.039  61.409 -61.222  1.00  0.00     0.118 C 
BRANCH  15  16
HETATM   16  C   UNL     1     -41.755  61.979 -60.675  1.00  0.00    -0.051 A 
HETATM   17  C   UNL     1     -40.769  62.476 -61.540  1.00  0.00     0.007 A 
HETATM   18  C   UNL     1     -39.593  63.032 -61.032  1.00  0.00     0.001 A 
HETATM   19  C   UNL     1     -39.395  63.105 -59.657  1.00  0.00     0.000 A 
HETATM   20  C   UNL     1     -40.370  62.623 -58.786  1.00  0.00     0.001 A 
HETATM   21  C   UNL     1     -41.545  62.064 -59.290  1.00  0.00     0.007 A 
ENDBRANCH  15  16
ENDBRANCH   8  15
ENDBRANCH   5   6
ENDBRANCH   1   5
BRANCH   2  22
HETATM   22  N   UNL     1     -43.459  55.787 -56.233  1.00  0.00    -0.249 N 
HETATM   23  C   UNL     1     -43.113  54.931 -55.207  1.00  0.00     0.339 C 
HETATM   24  N   UNL     1     -41.758  54.768 -55.024  1.00  0.00    -0.308 N 
HETATM   25  O   UNL     1     -44.003  54.410 -54.543  1.00  0.00    -0.245 OA
HETATM   26  H   UNL     1     -41.171  55.476 -55.439  1.00  0.00     0.170 HD
HETATM   27  H   UNL     1     -44.461  55.848 -56.425  1.00  0.00     0.192 HD
BRANCH  24  28
HETATM   28  C   UNL     1     -41.118  53.878 -54.136  1.00  0.00     0.037 A 
HETATM   29  C   UNL     1     -41.036  54.077 -52.755  1.00  0.00     0.045 A 
HETATM   30  C   UNL     1     -40.393  53.140 -51.924  1.00  0.00     0.050 A 
HETATM   31  C   UNL     1     -39.829  51.993 -52.499  1.00  0.00     0.016 A 
HETATM   32  C   UNL     1     -39.912  51.783 -53.874  1.00  0.00     0.003 A 
HETATM   33  C   UNL     1     -40.550  52.722 -54.686  1.00  0.00     0.029 A 
BRANCH  30  34
HETATM   34  C   UNL     1     -40.271  53.382 -50.440  1.00  0.00     0.417 C 
HETATM   35  F   UNL     1     -41.236  54.199 -49.935  1.00  0.00    -0.166 F 
HETATM   36  F   UNL     1     -40.347  52.230 -49.713  1.00  0.00    -0.166 F 
HETATM   37  F   UNL     1     -39.080  53.952 -50.105  1.00  0.00    -0.166 F 
ENDBRANCH  30  34
ENDBRANCH  24  28
ENDBRANCH   2  22
TORSDOF 7
ENDMDL
MODEL 10
REMARK VINA RESULT:      -7.7      2.882      3.308
REMARK  7 active torsions:
REMARK  status: ('A' for Active; 'I' for Inactive)
REMARK    1  A    between atoms: C_4  and  C_5 
REMARK    2  A    between atoms: C_5  and  C_6 
REMARK    3  A    between atoms: C_8  and  C_9 
REMARK    4  A    between atoms: C_9  and  C_10 
REMARK       I    between atoms: C_10  and  N_11 
REMARK    5  A    between atoms: N_11  and  N_12 
REMARK       I    between atoms: N_12  and  C_13 
REMARK       I    between atoms: C_13  and  N_14 
REMARK    6  A    between atoms: N_14  and  C_15 
REMARK    7  A    between atoms: C_17  and  C_18 
ROOT
HETATM    1  C   UNL     1     -44.005  58.489 -52.695  1.00  0.00     0.238 C 
HETATM    2  N   UNL     1     -43.424  58.166 -51.486  1.00  0.00    -0.266 N 
HETATM    3  O   UNL     1     -44.848  57.764 -53.226  1.00  0.00    -0.272 OA
HETATM    4  H   UNL     1     -42.963  58.889 -50.944  1.00  0.00     0.190 HD
ENDROOT
BRANCH   1   5
HETATM    5  C   UNL     1     -43.458  59.713 -53.416  1.00  0.00     0.139 C 
BRANCH   5   6
HETATM    6  C   UNL     1     -43.868  59.947 -54.870  1.00  0.00     0.185 C 
HETATM    7  N   UNL     1     -43.441  58.823 -55.697  1.00  0.00    -0.363 N 
HETATM    8  C   UNL     1     -42.401  58.922 -56.582  1.00  0.00     0.125 C 
HETATM    9  H   UNL     1     -43.985  57.967 -55.649  1.00  0.00     0.161 HD
HETATM   10  N   UNL     1     -41.757  60.033 -56.814  1.00  0.00    -0.159 NA
HETATM   11  N   UNL     1     -42.242  61.184 -56.247  1.00  0.00    -0.244 N 
HETATM   12  C   UNL     1     -43.336  61.273 -55.407  1.00  0.00     0.261 C 
HETATM   13  H   UNL     1     -41.863  62.062 -56.595  1.00  0.00     0.192 HD
HETATM   14  O   UNL     1     -43.778  62.360 -55.045  1.00  0.00    -0.269 OA
BRANCH   8  15
HETATM   15  C   UNL     1     -41.944  57.661 -57.306  1.00  0.00     0.118 C 
BRANCH  15  16
HETATM   16  C   UNL     1     -42.920  57.210 -58.363  1.00  0.00    -0.051 A 
HETATM   17  C   UNL     1     -43.431  58.122 -59.298  1.00  0.00     0.007 A 
HETATM   18  C   UNL     1     -44.310  57.699 -60.296  1.00  0.00     0.001 A 
HETATM   19  C   UNL     1     -44.682  56.360 -60.375  1.00  0.00     0.000 A 
HETATM   20  C   UNL     1     -44.175  55.442 -59.458  1.00  0.00     0.001 A 
HETATM   21  C   UNL     1     -43.298  55.863 -58.457  1.00  0.00     0.007 A 
ENDBRANCH  15  16
ENDBRANCH   8  15
ENDBRANCH   5   6
ENDBRANCH   1   5
BRANCH   2  22
HETATM   22  N   UNL     1     -44.018  57.119 -50.756  1.00  0.00    -0.249 N 
HETATM   23  C   UNL     1     -43.533  55.828 -50.766  1.00  0.00     0.339 C 
HETATM   24  N   UNL     1     -42.188  55.719 -51.041  1.00  0.00    -0.308 N 
HETATM   25  O   UNL     1     -44.300  54.903 -50.520  1.00  0.00    -0.245 OA
HETATM   26  H   UNL     1     -41.646  56.563 -50.925  1.00  0.00     0.170 HD
HETATM   27  H   UNL     1     -45.029  57.200 -50.632  1.00  0.00     0.192 HD
BRANCH  24  28
HETATM   28  C   UNL     1     -41.448  54.533 -51.228  1.00  0.00     0.037 A 
HETATM   29  C   UNL     1     -41.153  53.986 -52.480  1.00  0.00     0.045 A 
HETATM   30  C   UNL     1     -40.396  52.805 -52.596  1.00  0.00     0.050 A 
HETATM   31  C   UNL     1     -39.935  52.173 -51.432  1.00  0.00     0.016 A 
HETATM   32  C   UNL     1     -40.218  52.715 -50.180  1.00  0.00     0.003 A 
HETATM   33  C   UNL     1     -40.972  53.886 -50.080  1.00  0.00     0.029 A 
BRANCH  30  34
HETATM   34  C   UNL     1     -40.118  52.197 -53.949  1.00  0.00     0.417 C 
HETATM   35  F   UNL     1     -39.057  51.345 -53.961  1.00  0.00    -0.166 F 
HETATM   36  F   UNL     1     -41.174  51.476 -54.425  1.00  0.00    -0.166 F 
HETATM   37  F   UNL     1     -39.857  53.140 -54.896  1.00  0.00    -0.166 F 
ENDBRANCH  30  34
ENDBRANCH  24  28
ENDBRANCH   2  22
TORSDOF 7
ENDMDL
