MODEL 1
REMARK VINA RESULT:      -7.9      0.000      0.000
REMARK  7 active torsions:
REMARK  status: ('A' for Active; 'I' for Inactive)
REMARK    1  A    between atoms: N_3  and  C_4 
REMARK    2  A    between atoms: C_12  and  C_13 
REMARK       I    between atoms: C_13  and  N_14 
REMARK    3  A    between atoms: N_14  and  C_15 
REMARK    4  A    between atoms: C_15  and  C_16 
REMARK    5  A    between atoms: C_16  and  O_17 
REMARK    6  A    between atoms: C_16  and  C_18 
REMARK    7  A    between atoms: C_21  and  O_22 
ROOT
HETATM    1  C   UNL     1     -43.710  56.885 -52.634  1.00  0.00     0.255 C 
HETATM    2  N   UNL     1     -42.549  56.320 -52.172  1.00  0.00    -0.350 N 
HETATM    3  O   UNL     1     -44.594  57.287 -51.884  1.00  0.00    -0.268 OA
HETATM    4  H   UNL     1     -41.814  56.066 -52.813  1.00  0.00     0.163 HD
ENDROOT
BRANCH   2   5
HETATM    5  C   UNL     1     -42.266  56.110 -50.751  1.00  0.00     0.114 C 
HETATM    6  C   UNL     1     -40.900  56.726 -50.439  1.00  0.00     0.035 C 
BRANCH   5   7
HETATM    7  C   UNL     1     -42.285  54.603 -50.378  1.00  0.00     0.173 C 
BRANCH   7   8
HETATM    8  O   UNL     1     -41.844  54.421 -49.024  1.00  0.00    -0.389 OA
HETATM    9  H   UNL     1     -41.688  55.312 -48.663  1.00  0.00     0.210 HD
ENDBRANCH   7   8
BRANCH   7  10
HETATM   10  C   UNL     1     -41.475  53.732 -51.319  1.00  0.00    -0.028 A 
HETATM   11  C   UNL     1     -40.351  53.043 -50.844  1.00  0.00     0.012 A 
HETATM   12  C   UNL     1     -39.611  52.218 -51.695  1.00  0.00     0.037 A 
HETATM   13  C   UNL     1     -39.980  52.055 -53.030  1.00  0.00     0.068 A 
HETATM   14  C   UNL     1     -41.092  52.741 -53.516  1.00  0.00     0.037 A 
HETATM   15  C   UNL     1     -41.832  53.573 -52.666  1.00  0.00     0.012 A 
BRANCH  13  16
HETATM   16  O   UNL     1     -39.177  51.213 -53.750  1.00  0.00    -0.356 OA
HETATM   17  C   UNL     1     -39.803  50.074 -54.327  1.00  0.00     0.210 C 
ENDBRANCH  13  16
ENDBRANCH   7  10
ENDBRANCH   5   7
ENDBRANCH   2   5
BRANCH   1  18
HETATM   18  C   UNL     1     -43.820  57.039 -54.078  1.00  0.00     0.075 C 
HETATM   19  C   UNL     1     -42.957  56.716 -55.124  1.00  0.00     0.051 C 
HETATM   20  C   UNL     1     -41.657  55.989 -55.142  1.00  0.00     0.071 C 
HETATM   21  N   UNL     1     -43.559  57.201 -56.290  1.00  0.00    -0.220 N 
HETATM   22  N   UNL     1     -44.831  57.624 -56.049  1.00  0.00    -0.177 NA
HETATM   23  C   UNL     1     -44.962  57.553 -54.728  1.00  0.00     0.158 C 
BRANCH  21  24
HETATM   24  C   UNL     1     -43.004  57.303 -57.614  1.00  0.00     0.150 A 
HETATM   25  N   UNL     1     -42.357  58.444 -57.978  1.00  0.00    -0.241 NA
HETATM   26  C   UNL     1     -41.877  58.513 -59.239  1.00  0.00     0.119 A 
HETATM   27  C   UNL     1     -42.002  57.497 -60.170  1.00  0.00     0.019 A 
HETATM   28  C   UNL     1     -42.662  56.337 -59.789  1.00  0.00     0.005 A 
HETATM   29  C   UNL     1     -43.175  56.235 -58.497  1.00  0.00     0.052 A 
ENDBRANCH  21  24
ENDBRANCH   1  18
TORSDOF 7
ENDMDL
MODEL 2
REMARK VINA RESULT:      -7.9      4.019      6.565
REMARK  7 active torsions:
REMARK  status: ('A' for Active; 'I' for Inactive)
REMARK    1  A    between atoms: N_3  and  C_4 
REMARK    2  A    between atoms: C_12  and  C_13 
REMARK       I    between atoms: C_13  and  N_14 
REMARK    3  A    between atoms: N_14  and  C_15 
REMARK    4  A    between atoms: C_15  and  C_16 
REMARK    5  A    between atoms: C_16  and  O_17 
REMARK    6  A    between atoms: C_16  and  C_18 
REMARK    7  A    between atoms: C_21  and  O_22 
ROOT
HETATM    1  C   UNL     1     -42.846  57.717 -52.053  1.00  0.00     0.255 C 
HETATM    2  N   UNL     1     -43.218  57.106 -53.223  1.00  0.00    -0.350 N 
HETATM    3  O   UNL     1     -41.697  57.680 -51.624  1.00  0.00    -0.268 OA
HETATM    4  H   UNL     1     -44.154  57.217 -53.582  1.00  0.00     0.163 HD
ENDROOT
BRANCH   2   5
HETATM    5  C   UNL     1     -42.296  56.328 -54.053  1.00  0.00     0.114 C 
HETATM    6  C   UNL     1     -42.244  56.969 -55.442  1.00  0.00     0.035 C 
BRANCH   5   7
HETATM    7  C   UNL     1     -42.731  54.840 -54.153  1.00  0.00     0.173 C 
BRANCH   7   8
HETATM    8  O   UNL     1     -44.018  54.657 -53.545  1.00  0.00    -0.389 OA
HETATM    9  H   UNL     1     -44.372  53.821 -53.896  1.00  0.00     0.210 HD
ENDBRANCH   7   8
BRANCH   7  10
HETATM   10  C   UNL     1     -41.724  53.871 -53.562  1.00  0.00    -0.028 A 
HETATM   11  C   UNL     1     -41.461  53.887 -52.185  1.00  0.00     0.012 A 
HETATM   12  C   UNL     1     -40.555  52.983 -51.624  1.00  0.00     0.037 A 
HETATM   13  C   UNL     1     -39.902  52.041 -52.420  1.00  0.00     0.068 A 
HETATM   14  C   UNL     1     -40.150  52.021 -53.791  1.00  0.00     0.037 A 
HETATM   15  C   UNL     1     -41.054  52.930 -54.355  1.00  0.00     0.012 A 
BRANCH  13  16
HETATM   16  O   UNL     1     -39.049  51.211 -51.745  1.00  0.00    -0.356 OA
HETATM   17  C   UNL     1     -39.645  50.161 -50.993  1.00  0.00     0.210 C 
ENDBRANCH  13  16
ENDBRANCH   7  10
ENDBRANCH   5   7
ENDBRANCH   2   5
BRANCH   1  18
HETATM   18  C   UNL     1     -43.885  58.470 -51.362  1.00  0.00     0.075 C 
HETATM   19  C   UNL     1     -43.944  59.785 -50.905  1.00  0.00     0.051 C 
HETATM   20  C   UNL     1     -43.002  60.928 -51.065  1.00  0.00     0.071 C 
HETATM   21  N   UNL     1     -45.157  59.906 -50.220  1.00  0.00    -0.220 N 
HETATM   22  N   UNL     1     -45.937  58.803 -50.399  1.00  0.00    -0.177 NA
HETATM   23  C   UNL     1     -45.158  57.946 -51.051  1.00  0.00     0.158 C 
BRANCH  21  24
HETATM   24  C   UNL     1     -45.621  60.989 -49.394  1.00  0.00     0.150 A 
HETATM   25  N   UNL     1     -46.510  61.883 -49.906  1.00  0.00    -0.241 NA
HETATM   26  C   UNL     1     -46.897  62.904 -49.109  1.00  0.00     0.119 A 
HETATM   27  C   UNL     1     -46.449  63.084 -47.812  1.00  0.00     0.019 A 
HETATM   28  C   UNL     1     -45.544  62.166 -47.298  1.00  0.00     0.005 A 
HETATM   29  C   UNL     1     -45.118  61.105 -48.096  1.00  0.00     0.052 A 
ENDBRANCH  21  24
ENDBRANCH   1  18
TORSDOF 7
ENDMDL
MODEL 3
REMARK VINA RESULT:      -7.7      3.341      5.866
REMARK  7 active torsions:
REMARK  status: ('A' for Active; 'I' for Inactive)
REMARK    1  A    between atoms: N_3  and  C_4 
REMARK    2  A    between atoms: C_12  and  C_13 
REMARK       I    between atoms: C_13  and  N_14 
REMARK    3  A    between atoms: N_14  and  C_15 
REMARK    4  A    between atoms: C_15  and  C_16 
REMARK    5  A    between atoms: C_16  and  O_17 
REMARK    6  A    between atoms: C_16  and  C_18 
REMARK    7  A    between atoms: C_21  and  O_22 
ROOT
HETATM    1  C   UNL     1     -41.770  57.306 -54.096  1.00  0.00     0.255 C 
HETATM    2  N   UNL     1     -42.675  56.750 -54.964  1.00  0.00    -0.350 N 
HETATM    3  O   UNL     1     -40.628  56.876 -53.967  1.00  0.00    -0.268 OA
HETATM    4  H   UNL     1     -43.582  57.172 -55.096  1.00  0.00     0.163 HD
ENDROOT
BRANCH   2   5
HETATM    5  C   UNL     1     -42.382  55.578 -55.791  1.00  0.00     0.114 C 
HETATM    6  C   UNL     1     -42.988  55.808 -57.178  1.00  0.00     0.035 C 
BRANCH   5   7
HETATM    7  C   UNL     1     -42.942  54.274 -55.159  1.00  0.00     0.173 C 
BRANCH   7   8
HETATM    8  O   UNL     1     -44.203  54.532 -54.524  1.00  0.00    -0.389 OA
HETATM    9  H   UNL     1     -44.009  55.074 -53.738  1.00  0.00     0.210 HD
ENDBRANCH   7   8
BRANCH   7  10
HETATM   10  C   UNL     1     -41.986  53.611 -54.185  1.00  0.00    -0.028 A 
HETATM   11  C   UNL     1     -40.980  52.759 -54.661  1.00  0.00     0.012 A 
HETATM   12  C   UNL     1     -40.078  52.161 -53.776  1.00  0.00     0.037 A 
HETATM   13  C   UNL     1     -40.153  52.407 -52.406  1.00  0.00     0.068 A 
HETATM   14  C   UNL     1     -41.153  53.247 -51.921  1.00  0.00     0.037 A 
HETATM   15  C   UNL     1     -42.062  53.843 -52.804  1.00  0.00     0.012 A 
BRANCH  13  16
HETATM   16  O   UNL     1     -39.205  51.768 -51.655  1.00  0.00    -0.356 OA
HETATM   17  C   UNL     1     -39.474  50.418 -51.302  1.00  0.00     0.210 C 
ENDBRANCH  13  16
ENDBRANCH   7  10
ENDBRANCH   5   7
ENDBRANCH   2   5
BRANCH   1  18
HETATM   18  C   UNL     1     -42.219  58.483 -53.364  1.00  0.00     0.075 C 
HETATM   19  C   UNL     1     -43.007  58.635 -52.225  1.00  0.00     0.051 C 
HETATM   20  C   UNL     1     -43.577  57.635 -51.279  1.00  0.00     0.071 C 
HETATM   21  N   UNL     1     -43.190  60.011 -52.058  1.00  0.00    -0.220 N 
HETATM   22  N   UNL     1     -42.397  60.720 -52.909  1.00  0.00    -0.177 NA
HETATM   23  C   UNL     1     -41.852  59.803 -53.700  1.00  0.00     0.158 C 
BRANCH  21  24
HETATM   24  C   UNL     1     -44.076  60.699 -51.157  1.00  0.00     0.150 A 
HETATM   25  N   UNL     1     -45.345  60.983 -51.558  1.00  0.00    -0.241 NA
HETATM   26  C   UNL     1     -46.136  61.657 -50.694  1.00  0.00     0.119 A 
HETATM   27  C   UNL     1     -45.733  62.065 -49.435  1.00  0.00     0.019 A 
HETATM   28  C   UNL     1     -44.437  61.769 -49.034  1.00  0.00     0.005 A 
HETATM   29  C   UNL     1     -43.592  61.081 -49.903  1.00  0.00     0.052 A 
ENDBRANCH  21  24
ENDBRANCH   1  18
TORSDOF 7
ENDMDL
MODEL 4
REMARK VINA RESULT:      -7.7      2.992      7.460
REMARK  7 active torsions:
REMARK  status: ('A' for Active; 'I' for Inactive)
REMARK    1  A    between atoms: N_3  and  C_4 
REMARK    2  A    between atoms: C_12  and  C_13 
REMARK       I    between atoms: C_13  and  N_14 
REMARK    3  A    between atoms: N_14  and  C_15 
REMARK    4  A    between atoms: C_15  and  C_16 
REMARK    5  A    between atoms: C_16  and  O_17 
REMARK    6  A    between atoms: C_16  and  C_18 
REMARK    7  A    between atoms: C_21  and  O_22 
ROOT
HETATM    1  C   UNL     1     -41.615  57.140 -53.846  1.00  0.00     0.255 C 
HETATM    2  N   UNL     1     -42.775  57.160 -54.578  1.00  0.00    -0.350 N 
HETATM    3  O   UNL     1     -40.952  58.150 -53.630  1.00  0.00    -0.268 OA
HETATM    4  H   UNL     1     -43.332  56.325 -54.675  1.00  0.00     0.163 HD
ENDROOT
BRANCH   2   5
HETATM    5  C   UNL     1     -43.315  58.372 -55.197  1.00  0.00     0.114 C 
HETATM    6  C   UNL     1     -44.789  58.125 -55.526  1.00  0.00     0.035 C 
BRANCH   5   7
HETATM    7  C   UNL     1     -42.526  58.762 -56.477  1.00  0.00     0.173 C 
BRANCH   7   8
HETATM    8  O   UNL     1     -42.646  60.171 -56.724  1.00  0.00    -0.389 OA
HETATM    9  H   UNL     1     -43.514  60.302 -57.148  1.00  0.00     0.210 HD
ENDBRANCH   7   8
BRANCH   7  10
HETATM   10  C   UNL     1     -42.933  57.973 -57.708  1.00  0.00    -0.028 A 
HETATM   11  C   UNL     1     -42.653  56.602 -57.785  1.00  0.00     0.012 A 
HETATM   12  C   UNL     1     -43.044  55.859 -58.903  1.00  0.00     0.037 A 
HETATM   13  C   UNL     1     -43.729  56.463 -59.957  1.00  0.00     0.068 A 
HETATM   14  C   UNL     1     -44.006  57.828 -59.894  1.00  0.00     0.037 A 
HETATM   15  C   UNL     1     -43.610  58.575 -58.778  1.00  0.00     0.012 A 
BRANCH  13  16
HETATM   16  O   UNL     1     -44.062  55.622 -60.983  1.00  0.00    -0.356 OA
HETATM   17  C   UNL     1     -45.444  55.327 -61.143  1.00  0.00     0.210 C 
ENDBRANCH  13  16
ENDBRANCH   7  10
ENDBRANCH   5   7
ENDBRANCH   2   5
BRANCH   1  18
HETATM   18  C   UNL     1     -41.233  55.852 -53.282  1.00  0.00     0.075 C 
HETATM   19  C   UNL     1     -40.635  54.724 -53.840  1.00  0.00     0.051 C 
HETATM   20  C   UNL     1     -40.066  54.477 -55.194  1.00  0.00     0.071 C 
HETATM   21  N   UNL     1     -40.617  53.753 -52.833  1.00  0.00    -0.220 N 
HETATM   22  N   UNL     1     -40.986  54.281 -51.633  1.00  0.00    -0.177 NA
HETATM   23  C   UNL     1     -41.380  55.518 -51.919  1.00  0.00     0.158 C 
BRANCH  21  24
HETATM   24  C   UNL     1     -40.289  52.356 -52.935  1.00  0.00     0.150 A 
HETATM   25  N   UNL     1     -39.769  51.713 -51.854  1.00  0.00    -0.241 NA
HETATM   26  C   UNL     1     -39.445  50.409 -52.000  1.00  0.00     0.119 A 
HETATM   27  C   UNL     1     -39.618  49.697 -53.174  1.00  0.00     0.019 A 
HETATM   28  C   UNL     1     -40.152  50.361 -54.270  1.00  0.00     0.005 A 
HETATM   29  C   UNL     1     -40.490  51.708 -54.156  1.00  0.00     0.052 A 
ENDBRANCH  21  24
ENDBRANCH   1  18
TORSDOF 7
ENDMDL
MODEL 5
REMARK VINA RESULT:      -7.7      4.309      6.615
REMARK  7 active torsions:
REMARK  status: ('A' for Active; 'I' for Inactive)
REMARK    1  A    between atoms: N_3  and  C_4 
REMARK    2  A    between atoms: C_12  and  C_13 
REMARK       I    between atoms: C_13  and  N_14 
REMARK    3  A    between atoms: N_14  and  C_15 
REMARK    4  A    between atoms: C_15  and  C_16 
REMARK    5  A    between atoms: C_16  and  O_17 
REMARK    6  A    between atoms: C_16  and  C_18 
REMARK    7  A    between atoms: C_21  and  O_22 
ROOT
HETATM    1  C   UNL     1     -44.048  57.807 -51.891  1.00  0.00     0.255 C 
HETATM    2  N   UNL     1     -43.697  56.769 -51.066  1.00  0.00    -0.350 N 
HETATM    3  O   UNL     1     -43.967  57.735 -53.114  1.00  0.00    -0.268 OA
HETATM    4  H   UNL     1     -43.843  56.837 -50.070  1.00  0.00     0.163 HD
ENDROOT
BRANCH   2   5
HETATM    5  C   UNL     1     -43.166  55.496 -51.555  1.00  0.00     0.114 C 
HETATM    6  C   UNL     1     -43.655  54.383 -50.624  1.00  0.00     0.035 C 
BRANCH   5   7
HETATM    7  C   UNL     1     -41.614  55.509 -51.623  1.00  0.00     0.173 C 
BRANCH   7   8
HETATM    8  O   UNL     1     -41.166  56.543 -52.512  1.00  0.00    -0.389 OA
HETATM    9  H   UNL     1     -41.668  56.431 -53.339  1.00  0.00     0.210 HD
ENDBRANCH   7   8
BRANCH   7  10
HETATM   10  C   UNL     1     -41.010  54.174 -52.017  1.00  0.00    -0.028 A 
HETATM   11  C   UNL     1     -41.224  53.661 -53.303  1.00  0.00     0.012 A 
HETATM   12  C   UNL     1     -40.652  52.444 -53.686  1.00  0.00     0.037 A 
HETATM   13  C   UNL     1     -39.850  51.723 -52.802  1.00  0.00     0.068 A 
HETATM   14  C   UNL     1     -39.637  52.221 -51.518  1.00  0.00     0.037 A 
HETATM   15  C   UNL     1     -40.213  53.436 -51.130  1.00  0.00     0.012 A 
BRANCH  13  16
HETATM   16  O   UNL     1     -39.346  50.555 -53.306  1.00  0.00    -0.356 OA
HETATM   17  C   UNL     1     -39.934  50.073 -54.508  1.00  0.00     0.210 C 
ENDBRANCH  13  16
ENDBRANCH   7  10
ENDBRANCH   5   7
ENDBRANCH   2   5
BRANCH   1  18
HETATM   18  C   UNL     1     -44.580  58.996 -51.240  1.00  0.00     0.075 C 
HETATM   19  C   UNL     1     -43.964  60.080 -50.618  1.00  0.00     0.051 C 
HETATM   20  C   UNL     1     -42.529  60.466 -50.502  1.00  0.00     0.071 C 
HETATM   21  N   UNL     1     -44.994  60.858 -50.079  1.00  0.00    -0.220 N 
HETATM   22  N   UNL     1     -46.213  60.423 -50.503  1.00  0.00    -0.177 NA
HETATM   23  C   UNL     1     -45.956  59.299 -51.163  1.00  0.00     0.158 C 
BRANCH  21  24
HETATM   24  C   UNL     1     -44.900  61.975 -49.177  1.00  0.00     0.150 A 
HETATM   25  N   UNL     1     -44.585  63.204 -49.670  1.00  0.00    -0.241 NA
HETATM   26  C   UNL     1     -44.476  64.221 -48.787  1.00  0.00     0.119 A 
HETATM   27  C   UNL     1     -44.673  64.085 -47.424  1.00  0.00     0.019 A 
HETATM   28  C   UNL     1     -44.997  62.828 -46.931  1.00  0.00     0.005 A 
HETATM   29  C   UNL     1     -45.109  61.756 -47.814  1.00  0.00     0.052 A 
ENDBRANCH  21  24
ENDBRANCH   1  18
TORSDOF 7
ENDMDL
MODEL 6
REMARK VINA RESULT:      -7.7      4.824      8.638
REMARK  7 active torsions:
REMARK  status: ('A' for Active; 'I' for Inactive)
REMARK    1  A    between atoms: N_3  and  C_4 
REMARK    2  A    between atoms: C_12  and  C_13 
REMARK       I    between atoms: C_13  and  N_14 
REMARK    3  A    between atoms: N_14  and  C_15 
REMARK    4  A    between atoms: C_15  and  C_16 
REMARK    5  A    between atoms: C_16  and  O_17 
REMARK    6  A    between atoms: C_16  and  C_18 
REMARK    7  A    between atoms: C_21  and  O_22 
ROOT
HETATM    1  C   UNL     1     -43.968  57.283 -51.258  1.00  0.00     0.255 C 
HETATM    2  N   UNL     1     -43.789  58.632 -51.429  1.00  0.00    -0.350 N 
HETATM    3  O   UNL     1     -44.900  56.817 -50.610  1.00  0.00    -0.268 OA
HETATM    4  H   UNL     1     -43.053  58.978 -52.026  1.00  0.00     0.163 HD
ENDROOT
BRANCH   2   5
HETATM    5  C   UNL     1     -44.665  59.642 -50.834  1.00  0.00     0.114 C 
HETATM    6  C   UNL     1     -45.613  60.155 -51.921  1.00  0.00     0.035 C 
BRANCH   5   7
HETATM    7  C   UNL     1     -43.854  60.815 -50.218  1.00  0.00     0.173 C 
BRANCH   7   8
HETATM    8  O   UNL     1     -42.567  60.353 -49.782  1.00  0.00    -0.389 OA
HETATM    9  H   UNL     1     -42.397  60.780 -48.924  1.00  0.00     0.210 HD
ENDBRANCH   7   8
BRANCH   7  10
HETATM   10  C   UNL     1     -44.572  61.523 -49.084  1.00  0.00    -0.028 A 
HETATM   11  C   UNL     1     -45.415  60.800 -48.229  1.00  0.00     0.012 A 
HETATM   12  C   UNL     1     -46.063  61.437 -47.166  1.00  0.00     0.037 A 
HETATM   13  C   UNL     1     -45.877  62.798 -46.929  1.00  0.00     0.068 A 
HETATM   14  C   UNL     1     -45.047  63.528 -47.778  1.00  0.00     0.037 A 
HETATM   15  C   UNL     1     -44.401  62.894 -48.846  1.00  0.00     0.012 A 
BRANCH  13  16
HETATM   16  O   UNL     1     -46.561  63.293 -45.852  1.00  0.00    -0.356 OA
HETATM   17  C   UNL     1     -46.697  64.706 -45.778  1.00  0.00     0.210 C 
ENDBRANCH  13  16
ENDBRANCH   7  10
ENDBRANCH   5   7
ENDBRANCH   2   5
BRANCH   1  18
HETATM   18  C   UNL     1     -43.015  56.416 -51.938  1.00  0.00     0.075 C 
HETATM   19  C   UNL     1     -42.847  55.033 -51.950  1.00  0.00     0.051 C 
HETATM   20  C   UNL     1     -43.661  53.935 -51.356  1.00  0.00     0.071 C 
HETATM   21  N   UNL     1     -41.693  54.786 -52.700  1.00  0.00    -0.220 N 
HETATM   22  N   UNL     1     -41.255  55.919 -53.318  1.00  0.00    -0.177 NA
HETATM   23  C   UNL     1     -42.028  56.884 -52.831  1.00  0.00     0.158 C 
BRANCH  21  24
HETATM   24  C   UNL     1     -40.969  53.553 -52.860  1.00  0.00     0.150 A 
HETATM   25  N   UNL     1     -40.229  53.076 -51.822  1.00  0.00    -0.241 NA
HETATM   26  C   UNL     1     -39.539  51.931 -52.022  1.00  0.00     0.119 A 
HETATM   27  C   UNL     1     -39.549  51.221 -53.209  1.00  0.00     0.019 A 
HETATM   28  C   UNL     1     -40.309  51.714 -54.261  1.00  0.00     0.005 A 
HETATM   29  C   UNL     1     -41.027  52.897 -54.091  1.00  0.00     0.052 A 
ENDBRANCH  21  24
ENDBRANCH   1  18
TORSDOF 7
ENDMDL
MODEL 7
REMARK VINA RESULT:      -7.6      2.384      3.603
REMARK  7 active torsions:
REMARK  status: ('A' for Active; 'I' for Inactive)
REMARK    1  A    between atoms: N_3  and  C_4 
REMARK    2  A    between atoms: C_12  and  C_13 
REMARK       I    between atoms: C_13  and  N_14 
REMARK    3  A    between atoms: N_14  and  C_15 
REMARK    4  A    between atoms: C_15  and  C_16 
REMARK    5  A    between atoms: C_16  and  O_17 
REMARK    6  A    between atoms: C_16  and  C_18 
REMARK    7  A    between atoms: C_21  and  O_22 
ROOT
HETATM    1  C   UNL     1     -42.982  55.433 -56.460  1.00  0.00     0.255 C 
HETATM    2  N   UNL     1     -42.755  56.217 -55.357  1.00  0.00    -0.350 N 
HETATM    3  O   UNL     1     -43.230  54.234 -56.379  1.00  0.00    -0.268 OA
HETATM    4  H   UNL     1     -42.625  57.212 -55.456  1.00  0.00     0.163 HD
ENDROOT
BRANCH   2   5
HETATM    5  C   UNL     1     -42.755  55.699 -53.988  1.00  0.00     0.114 C 
HETATM    6  C   UNL     1     -43.672  56.584 -53.140  1.00  0.00     0.035 C 
BRANCH   5   7
HETATM    7  C   UNL     1     -41.323  55.663 -53.388  1.00  0.00     0.173 C 
BRANCH   7   8
HETATM    8  O   UNL     1     -40.401  56.327 -54.265  1.00  0.00    -0.389 OA
HETATM    9  H   UNL     1     -39.674  55.699 -54.428  1.00  0.00     0.210 HD
ENDBRANCH   7   8
BRANCH   7  10
HETATM   10  C   UNL     1     -40.831  54.263 -53.068  1.00  0.00    -0.028 A 
HETATM   11  C   UNL     1     -40.536  53.370 -54.107  1.00  0.00     0.012 A 
HETATM   12  C   UNL     1     -40.060  52.086 -53.825  1.00  0.00     0.037 A 
HETATM   13  C   UNL     1     -39.859  51.672 -52.509  1.00  0.00     0.068 A 
HETATM   14  C   UNL     1     -40.156  52.550 -51.468  1.00  0.00     0.037 A 
HETATM   15  C   UNL     1     -40.638  53.834 -51.747  1.00  0.00     0.012 A 
BRANCH  13  16
HETATM   16  O   UNL     1     -39.380  50.398 -52.374  1.00  0.00    -0.356 OA
HETATM   17  C   UNL     1     -39.418  49.837 -51.068  1.00  0.00     0.210 C 
ENDBRANCH  13  16
ENDBRANCH   7  10
ENDBRANCH   5   7
ENDBRANCH   2   5
BRANCH   1  18
HETATM   18  C   UNL     1     -42.967  56.115 -57.747  1.00  0.00     0.075 C 
HETATM   19  C   UNL     1     -42.758  57.447 -58.101  1.00  0.00     0.051 C 
HETATM   20  C   UNL     1     -42.357  58.631 -57.291  1.00  0.00     0.071 C 
HETATM   21  N   UNL     1     -42.975  57.523 -59.480  1.00  0.00    -0.220 N 
HETATM   22  N   UNL     1     -43.110  56.282 -60.027  1.00  0.00    -0.177 NA
HETATM   23  C   UNL     1     -43.136  55.459 -58.984  1.00  0.00     0.158 C 
BRANCH  21  24
HETATM   24  C   UNL     1     -43.079  58.692 -60.312  1.00  0.00     0.150 A 
HETATM   25  N   UNL     1     -44.310  59.184 -60.618  1.00  0.00    -0.241 NA
HETATM   26  C   UNL     1     -44.366  60.265 -61.428  1.00  0.00     0.119 A 
HETATM   27  C   UNL     1     -43.252  60.896 -61.952  1.00  0.00     0.019 A 
HETATM   28  C   UNL     1     -42.000  60.388 -61.632  1.00  0.00     0.005 A 
HETATM   29  C   UNL     1     -41.907  59.269 -60.806  1.00  0.00     0.052 A 
ENDBRANCH  21  24
ENDBRANCH   1  18
TORSDOF 7
ENDMDL
MODEL 8
REMARK VINA RESULT:      -7.4      3.290      8.315
REMARK  7 active torsions:
REMARK  status: ('A' for Active; 'I' for Inactive)
REMARK    1  A    between atoms: N_3  and  C_4 
REMARK    2  A    between atoms: C_12  and  C_13 
REMARK       I    between atoms: C_13  and  N_14 
REMARK    3  A    between atoms: N_14  and  C_15 
REMARK    4  A    between atoms: C_15  and  C_16 
REMARK    5  A    between atoms: C_16  and  O_17 
REMARK    6  A    between atoms: C_16  and  C_18 
REMARK    7  A    between atoms: C_21  and  O_22 
ROOT
HETATM    1  C   UNL     1     -42.293  56.905 -54.187  1.00  0.00     0.255 C 
HETATM    2  N   UNL     1     -42.828  56.823 -55.447  1.00  0.00    -0.350 N 
HETATM    3  O   UNL     1     -42.187  57.967 -53.581  1.00  0.00    -0.268 OA
HETATM    4  H   UNL     1     -42.965  55.926 -55.886  1.00  0.00     0.163 HD
ENDROOT
BRANCH   2   5
HETATM    5  C   UNL     1     -43.293  57.988 -56.201  1.00  0.00     0.114 C 
HETATM    6  C   UNL     1     -44.806  58.113 -56.007  1.00  0.00     0.035 C 
BRANCH   5   7
HETATM    7  C   UNL     1     -42.943  57.872 -57.710  1.00  0.00     0.173 C 
BRANCH   7   8
HETATM    8  O   UNL     1     -42.056  56.765 -57.930  1.00  0.00    -0.389 OA
HETATM    9  H   UNL     1     -41.489  57.011 -58.683  1.00  0.00     0.210 HD
ENDBRANCH   7   8
BRANCH   7  10
HETATM   10  C   UNL     1     -42.358  59.142 -58.299  1.00  0.00    -0.028 A 
HETATM   11  C   UNL     1     -42.343  59.328 -59.688  1.00  0.00     0.012 A 
HETATM   12  C   UNL     1     -41.830  60.504 -60.242  1.00  0.00     0.037 A 
HETATM   13  C   UNL     1     -41.331  61.519 -59.426  1.00  0.00     0.068 A 
HETATM   14  C   UNL     1     -41.334  61.342 -58.044  1.00  0.00     0.037 A 
HETATM   15  C   UNL     1     -41.843  60.162 -57.487  1.00  0.00     0.012 A 
BRANCH  13  16
HETATM   16  O   UNL     1     -40.869  62.619 -60.094  1.00  0.00    -0.356 OA
HETATM   17  C   UNL     1     -39.537  63.026 -59.808  1.00  0.00     0.210 C 
ENDBRANCH  13  16
ENDBRANCH   7  10
ENDBRANCH   5   7
ENDBRANCH   2   5
BRANCH   1  18
HETATM   18  C   UNL     1     -41.901  55.644 -53.571  1.00  0.00     0.075 C 
HETATM   19  C   UNL     1     -41.001  54.652 -53.957  1.00  0.00     0.051 C 
HETATM   20  C   UNL     1     -40.030  54.585 -55.085  1.00  0.00     0.071 C 
HETATM   21  N   UNL     1     -41.131  53.622 -53.019  1.00  0.00    -0.220 N 
HETATM   22  N   UNL     1     -41.910  54.006 -51.970  1.00  0.00    -0.177 NA
HETATM   23  C   UNL     1     -42.387  55.194 -52.326  1.00  0.00     0.158 C 
BRANCH  21  24
HETATM   24  C   UNL     1     -40.578  52.294 -53.059  1.00  0.00     0.150 A 
HETATM   25  N   UNL     1     -39.904  51.821 -51.975  1.00  0.00    -0.241 NA
HETATM   26  C   UNL     1     -39.373  50.581 -52.063  1.00  0.00     0.119 A 
HETATM   27  C   UNL     1     -39.482  49.772 -53.181  1.00  0.00     0.019 A 
HETATM   28  C   UNL     1     -40.174  50.263 -54.280  1.00  0.00     0.005 A 
HETATM   29  C   UNL     1     -40.727  51.541 -54.225  1.00  0.00     0.052 A 
ENDBRANCH  21  24
ENDBRANCH   1  18
TORSDOF 7
ENDMDL
MODEL 9
REMARK VINA RESULT:      -7.3      3.291      8.812
REMARK  7 active torsions:
REMARK  status: ('A' for Active; 'I' for Inactive)
REMARK    1  A    between atoms: N_3  and  C_4 
REMARK    2  A    between atoms: C_12  and  C_13 
REMARK       I    between atoms: C_13  and  N_14 
REMARK    3  A    between atoms: N_14  and  C_15 
REMARK    4  A    between atoms: C_15  and  C_16 
REMARK    5  A    between atoms: C_16  and  O_17 
REMARK    6  A    between atoms: C_16  and  C_18 
REMARK    7  A    between atoms: C_21  and  O_22 
ROOT
HETATM    1  C   UNL     1     -43.174  56.690 -56.706  1.00  0.00     0.255 C 
HETATM    2  N   UNL     1     -42.686  56.322 -57.934  1.00  0.00    -0.350 N 
HETATM    3  O   UNL     1     -44.232  57.295 -56.570  1.00  0.00    -0.268 OA
HETATM    4  H   UNL     1     -41.849  55.764 -58.005  1.00  0.00     0.163 HD
ENDROOT
BRANCH   2   5
HETATM    5  C   UNL     1     -43.358  56.641 -59.195  1.00  0.00     0.114 C 
HETATM    6  C   UNL     1     -44.016  55.364 -59.724  1.00  0.00     0.035 C 
BRANCH   5   7
HETATM    7  C   UNL     1     -42.368  57.220 -60.242  1.00  0.00     0.173 C 
BRANCH   7   8
HETATM    8  O   UNL     1     -41.143  56.472 -60.234  1.00  0.00    -0.389 OA
HETATM    9  H   UNL     1     -41.072  56.070 -59.349  1.00  0.00     0.210 HD
ENDBRANCH   7   8
BRANCH   7  10
HETATM   10  C   UNL     1     -42.085  58.700 -60.060  1.00  0.00    -0.028 A 
HETATM   11  C   UNL     1     -41.935  59.527 -61.181  1.00  0.00     0.012 A 
HETATM   12  C   UNL     1     -41.699  60.896 -61.026  1.00  0.00     0.037 A 
HETATM   13  C   UNL     1     -41.618  61.468 -59.757  1.00  0.00     0.068 A 
HETATM   14  C   UNL     1     -41.758  60.653 -58.635  1.00  0.00     0.037 A 
HETATM   15  C   UNL     1     -41.989  59.280 -58.788  1.00  0.00     0.012 A 
BRANCH  13  16
HETATM   16  O   UNL     1     -41.394  62.817 -59.747  1.00  0.00    -0.356 OA
HETATM   17  C   UNL     1     -40.729  63.361 -60.880  1.00  0.00     0.210 C 
ENDBRANCH  13  16
ENDBRANCH   7  10
ENDBRANCH   5   7
ENDBRANCH   2   5
BRANCH   1  18
HETATM   18  C   UNL     1     -42.389  56.272 -55.552  1.00  0.00     0.075 C 
HETATM   19  C   UNL     1     -42.291  55.059 -54.873  1.00  0.00     0.051 C 
HETATM   20  C   UNL     1     -42.872  53.718 -55.162  1.00  0.00     0.071 C 
HETATM   21  N   UNL     1     -41.459  55.293 -53.774  1.00  0.00    -0.220 N 
HETATM   22  N   UNL     1     -40.880  56.524 -53.847  1.00  0.00    -0.177 NA
HETATM   23  C   UNL     1     -41.465  57.106 -54.888  1.00  0.00     0.158 C 
BRANCH  21  24
HETATM   24  C   UNL     1     -41.188  54.435 -52.651  1.00  0.00     0.150 A 
HETATM   25  N   UNL     1     -41.763  54.710 -51.448  1.00  0.00    -0.241 NA
HETATM   26  C   UNL     1     -41.458  53.898 -50.411  1.00  0.00     0.119 A 
HETATM   27  C   UNL     1     -40.608  52.810 -50.506  1.00  0.00     0.019 A 
HETATM   28  C   UNL     1     -40.029  52.536 -51.737  1.00  0.00     0.005 A 
HETATM   29  C   UNL     1     -40.316  53.358 -52.826  1.00  0.00     0.052 A 
ENDBRANCH  21  24
ENDBRANCH   1  18
TORSDOF 7
ENDMDL
MODEL 10
REMARK VINA RESULT:      -7.3      2.836      7.079
REMARK  7 active torsions:
REMARK  status: ('A' for Active; 'I' for Inactive)
REMARK    1  A    between atoms: N_3  and  C_4 
REMARK    2  A    between atoms: C_12  and  C_13 
REMARK       I    between atoms: C_13  and  N_14 
REMARK    3  A    between atoms: N_14  and  C_15 
REMARK    4  A    between atoms: C_15  and  C_16 
REMARK    5  A    between atoms: C_16  and  O_17 
REMARK    6  A    between atoms: C_16  and  C_18 
REMARK    7  A    between atoms: C_21  and  O_22 
ROOT
HETATM    1  C   UNL     1     -41.678  56.991 -53.298  1.00  0.00     0.255 C 
HETATM    2  N   UNL     1     -41.025  58.037 -53.898  1.00  0.00    -0.350 N 
HETATM    3  O   UNL     1     -42.663  57.149 -52.584  1.00  0.00    -0.268 OA
HETATM    4  H   UNL     1     -40.261  57.865 -54.534  1.00  0.00     0.163 HD
ENDROOT
BRANCH   2   5
HETATM    5  C   UNL     1     -41.416  59.437 -53.723  1.00  0.00     0.114 C 
HETATM    6  C   UNL     1     -41.690  59.675 -52.236  1.00  0.00     0.035 C 
BRANCH   5   7
HETATM    7  C   UNL     1     -42.664  59.795 -54.574  1.00  0.00     0.173 C 
BRANCH   7   8
HETATM    8  O   UNL     1     -43.863  59.420 -53.879  1.00  0.00    -0.389 OA
HETATM    9  H   UNL     1     -43.615  58.699 -53.273  1.00  0.00     0.210 HD
ENDBRANCH   7   8
BRANCH   7  10
HETATM   10  C   UNL     1     -42.648  59.187 -55.965  1.00  0.00    -0.028 A 
HETATM   11  C   UNL     1     -43.421  58.052 -56.242  1.00  0.00     0.012 A 
HETATM   12  C   UNL     1     -43.434  57.497 -57.525  1.00  0.00     0.037 A 
HETATM   13  C   UNL     1     -42.688  58.067 -58.556  1.00  0.00     0.068 A 
HETATM   14  C   UNL     1     -41.910  59.192 -58.290  1.00  0.00     0.037 A 
HETATM   15  C   UNL     1     -41.891  59.746 -57.004  1.00  0.00     0.012 A 
BRANCH  13  16
HETATM   16  O   UNL     1     -42.797  57.432 -59.763  1.00  0.00    -0.356 OA
HETATM   17  C   UNL     1     -43.151  56.056 -59.730  1.00  0.00     0.210 C 
ENDBRANCH  13  16
ENDBRANCH   7  10
ENDBRANCH   5   7
ENDBRANCH   2   5
BRANCH   1  18
HETATM   18  C   UNL     1     -41.169  55.659 -53.597  1.00  0.00     0.075 C 
HETATM   19  C   UNL     1     -41.360  54.422 -52.984  1.00  0.00     0.051 C 
HETATM   20  C   UNL     1     -42.251  54.003 -51.865  1.00  0.00     0.071 C 
HETATM   21  N   UNL     1     -40.526  53.522 -53.653  1.00  0.00    -0.220 N 
HETATM   22  N   UNL     1     -39.984  54.087 -54.768  1.00  0.00    -0.177 NA
HETATM   23  C   UNL     1     -40.347  55.363 -54.705  1.00  0.00     0.158 C 
BRANCH  21  24
HETATM   24  C   UNL     1     -40.196  52.166 -53.299  1.00  0.00     0.150 A 
HETATM   25  N   UNL     1     -39.794  51.889 -52.029  1.00  0.00    -0.241 NA
HETATM   26  C   UNL     1     -39.463  50.610 -51.745  1.00  0.00     0.119 A 
HETATM   27  C   UNL     1     -39.516  49.576 -52.663  1.00  0.00     0.019 A 
HETATM   28  C   UNL     1     -39.929  49.869 -53.956  1.00  0.00     0.005 A 
HETATM   29  C   UNL     1     -40.271  51.179 -54.285  1.00  0.00     0.052 A 
ENDBRANCH  21  24
ENDBRANCH   1  18
TORSDOF 7
ENDMDL
