MODEL 1
REMARK VINA RESULT:      -7.9      0.000      0.000
REMARK  3 active torsions:
REMARK  status: ('A' for Active; 'I' for Inactive)
REMARK    1  A    between atoms: C_5  and  C_6 
REMARK    2  A    between atoms: C_10  and  N_11 
REMARK    3  A    between atoms: C_18  and  C_19 
ROOT
HETATM    1  C   UNL     1     -42.328  58.021 -53.091  1.00  0.00     0.106 A 
HETATM    2  C   UNL     1     -43.047  59.088 -53.924  1.00  0.00     0.081 A 
HETATM    3  C   UNL     1     -42.298  59.682 -54.981  1.00  0.00     0.100 C 
HETATM    4  N   UNL     1     -41.689  60.164 -55.844  1.00  0.00    -0.191 NA
HETATM    5  C   UNL     1     -44.347  59.436 -53.720  1.00  0.00     0.140 A 
HETATM    6  O   UNL     1     -45.128  58.832 -52.720  1.00  0.00    -0.279 OA
HETATM    7  C   UNL     1     -44.559  57.844 -52.042  1.00  0.00     0.175 A 
HETATM    8  C   UNL     1     -43.273  57.375 -52.137  1.00  0.00     0.040 A 
HETATM    9  N   UNL     1     -45.186  57.097 -51.104  1.00  0.00    -0.256 N 
HETATM   10  H   UNL     1     -46.143  57.170 -50.779  1.00  0.00     0.191 HD
HETATM   11  N   UNL     1     -44.391  56.151 -50.577  1.00  0.00    -0.172 NA
HETATM   12  C   UNL     1     -43.212  56.285 -51.220  1.00  0.00     0.099 A 
ENDROOT
BRANCH   1  13
HETATM   13  C   UNL     1     -41.185  58.612 -52.274  1.00  0.00    -0.044 A 
HETATM   14  C   UNL     1     -39.843  58.556 -52.690  1.00  0.00     0.009 A 
HETATM   15  C   UNL     1     -38.818  59.043 -51.875  1.00  0.00     0.007 A 
HETATM   16  C   UNL     1     -39.105  59.590 -50.621  1.00  0.00    -0.062 A 
HETATM   17  C   UNL     1     -37.995  60.058 -49.726  1.00  0.00     0.048 C 
HETATM   18  C   UNL     1     -40.433  59.631 -50.188  1.00  0.00     0.007 A 
HETATM   19  C   UNL     1     -41.462  59.153 -51.006  1.00  0.00     0.009 A 
ENDBRANCH   1  13
BRANCH   5  20
HETATM   20  N   UNL     1     -45.043  60.383 -54.437  1.00  0.00    -0.282 NA
HETATM   21  H   UNL     1     -44.535  60.807 -55.210  1.00  0.00     0.126 HD
HETATM   22  H   UNL     1     -45.490  61.068 -53.833  1.00  0.00     0.126 HD
ENDBRANCH   5  20
BRANCH  12  23
HETATM   23  C   UNL     1     -42.101  55.379 -50.918  1.00  0.00    -0.005 A 
HETATM   24  C   UNL     1     -41.213  55.635 -49.866  1.00  0.00     0.014 A 
HETATM   25  C   UNL     1     -40.151  54.764 -49.606  1.00  0.00     0.001 A 
HETATM   26  C   UNL     1     -39.961  53.634 -50.399  1.00  0.00     0.000 A 
HETATM   27  C   UNL     1     -40.830  53.375 -51.456  1.00  0.00     0.001 A 
HETATM   28  C   UNL     1     -41.893  54.244 -51.714  1.00  0.00     0.014 A 
ENDBRANCH  12  23
TORSDOF 3
ENDMDL
MODEL 2
REMARK VINA RESULT:      -7.7      3.626      5.983
REMARK  3 active torsions:
REMARK  status: ('A' for Active; 'I' for Inactive)
REMARK    1  A    between atoms: C_5  and  C_6 
REMARK    2  A    between atoms: C_10  and  N_11 
REMARK    3  A    between atoms: C_18  and  C_19 
ROOT
HETATM    1  C   UNL     1     -43.348  56.320 -56.639  1.00  0.00     0.106 A 
HETATM    2  C   UNL     1     -43.212  56.215 -58.162  1.00  0.00     0.081 A 
HETATM    3  C   UNL     1     -43.792  55.066 -58.775  1.00  0.00     0.100 C 
HETATM    4  N   UNL     1     -44.268  54.133 -59.276  1.00  0.00    -0.191 NA
HETATM    5  C   UNL     1     -42.615  57.175 -58.921  1.00  0.00     0.140 A 
HETATM    6  O   UNL     1     -42.079  58.343 -58.353  1.00  0.00    -0.279 OA
HETATM    7  C   UNL     1     -42.261  58.502 -57.048  1.00  0.00     0.175 A 
HETATM    8  C   UNL     1     -42.845  57.638 -56.157  1.00  0.00     0.040 A 
HETATM    9  N   UNL     1     -41.886  59.599 -56.350  1.00  0.00    -0.256 N 
HETATM   10  H   UNL     1     -41.425  60.434 -56.692  1.00  0.00     0.191 HD
HETATM   11  N   UNL     1     -42.198  59.517 -55.046  1.00  0.00    -0.172 NA
HETATM   12  C   UNL     1     -42.816  58.324 -54.908  1.00  0.00     0.099 A 
ENDROOT
BRANCH   1  13
HETATM   13  C   UNL     1     -42.554  55.236 -55.920  1.00  0.00    -0.044 A 
HETATM   14  C   UNL     1     -43.166  54.165 -55.244  1.00  0.00     0.009 A 
HETATM   15  C   UNL     1     -42.404  53.234 -54.535  1.00  0.00     0.007 A 
HETATM   16  C   UNL     1     -41.012  53.353 -54.474  1.00  0.00    -0.062 A 
HETATM   17  C   UNL     1     -40.204  52.384 -53.661  1.00  0.00     0.048 C 
HETATM   18  C   UNL     1     -40.395  54.425 -55.123  1.00  0.00     0.007 A 
HETATM   19  C   UNL     1     -41.155  55.353 -55.842  1.00  0.00     0.009 A 
ENDBRANCH   1  13
BRANCH   5  20
HETATM   20  N   UNL     1     -42.467  57.134 -60.289  1.00  0.00    -0.282 NA
HETATM   21  H   UNL     1     -41.513  57.024 -60.623  1.00  0.00     0.126 HD
HETATM   22  H   UNL     1     -42.965  57.892 -60.750  1.00  0.00     0.126 HD
ENDBRANCH   5  20
BRANCH  12  23
HETATM   23  C   UNL     1     -43.331  57.909 -53.601  1.00  0.00    -0.005 A 
HETATM   24  C   UNL     1     -42.655  56.971 -52.811  1.00  0.00     0.014 A 
HETATM   25  C   UNL     1     -43.173  56.579 -51.574  1.00  0.00     0.001 A 
HETATM   26  C   UNL     1     -44.377  57.113 -51.117  1.00  0.00     0.000 A 
HETATM   27  C   UNL     1     -45.066  58.037 -51.899  1.00  0.00     0.001 A 
HETATM   28  C   UNL     1     -44.547  58.431 -53.134  1.00  0.00     0.014 A 
ENDBRANCH  12  23
TORSDOF 3
ENDMDL
MODEL 3
REMARK VINA RESULT:      -7.7      3.168      6.020
REMARK  3 active torsions:
REMARK  status: ('A' for Active; 'I' for Inactive)
REMARK    1  A    between atoms: C_5  and  C_6 
REMARK    2  A    between atoms: C_10  and  N_11 
REMARK    3  A    between atoms: C_18  and  C_19 
ROOT
HETATM    1  C   UNL     1     -42.389  57.760 -54.234  1.00  0.00     0.106 A 
HETATM    2  C   UNL     1     -42.532  58.197 -52.772  1.00  0.00     0.081 A 
HETATM    3  C   UNL     1     -41.336  58.224 -51.996  1.00  0.00     0.100 C 
HETATM    4  N   UNL     1     -40.363  58.250 -51.364  1.00  0.00    -0.191 NA
HETATM    5  C   UNL     1     -43.716  58.589 -52.228  1.00  0.00     0.140 A 
HETATM    6  O   UNL     1     -44.903  58.623 -52.980  1.00  0.00    -0.279 OA
HETATM    7  C   UNL     1     -44.792  58.335 -54.271  1.00  0.00     0.175 A 
HETATM    8  C   UNL     1     -43.677  57.934 -54.963  1.00  0.00     0.040 A 
HETATM    9  N   UNL     1     -45.810  58.397 -55.160  1.00  0.00    -0.256 N 
HETATM   10  H   UNL     1     -46.776  58.656 -54.994  1.00  0.00     0.191 HD
HETATM   11  N   UNL     1     -45.431  58.070 -56.407  1.00  0.00    -0.172 NA
HETATM   12  C   UNL     1     -44.110  57.807 -56.314  1.00  0.00     0.099 A 
ENDROOT
BRANCH   1  13
HETATM   13  C   UNL     1     -41.990  56.294 -54.354  1.00  0.00    -0.044 A 
HETATM   14  C   UNL     1     -42.814  55.242 -53.916  1.00  0.00     0.009 A 
HETATM   15  C   UNL     1     -42.379  53.916 -53.975  1.00  0.00     0.007 A 
HETATM   16  C   UNL     1     -41.106  53.606 -54.464  1.00  0.00    -0.062 A 
HETATM   17  C   UNL     1     -40.622  52.186 -54.469  1.00  0.00     0.048 C 
HETATM   18  C   UNL     1     -40.270  54.645 -54.881  1.00  0.00     0.007 A 
HETATM   19  C   UNL     1     -40.708  55.972 -54.832  1.00  0.00     0.009 A 
ENDBRANCH   1  13
BRANCH   5  20
HETATM   20  N   UNL     1     -43.902  58.992 -50.925  1.00  0.00    -0.282 NA
HETATM   21  H   UNL     1     -43.468  59.878 -50.675  1.00  0.00     0.126 HD
HETATM   22  H   UNL     1     -43.699  58.249 -50.262  1.00  0.00     0.126 HD
ENDBRANCH   5  20
BRANCH  12  23
HETATM   23  C   UNL     1     -43.347  57.443 -57.511  1.00  0.00    -0.005 A 
HETATM   24  C   UNL     1     -42.479  58.351 -58.129  1.00  0.00     0.014 A 
HETATM   25  C   UNL     1     -41.772  57.987 -59.279  1.00  0.00     0.001 A 
HETATM   26  C   UNL     1     -41.934  56.716 -59.828  1.00  0.00     0.000 A 
HETATM   27  C   UNL     1     -42.805  55.809 -59.230  1.00  0.00     0.001 A 
HETATM   28  C   UNL     1     -43.508  56.171 -58.079  1.00  0.00     0.014 A 
ENDBRANCH  12  23
TORSDOF 3
ENDMDL
MODEL 4
REMARK VINA RESULT:      -7.4      3.790      5.161
REMARK  3 active torsions:
REMARK  status: ('A' for Active; 'I' for Inactive)
REMARK    1  A    between atoms: C_5  and  C_6 
REMARK    2  A    between atoms: C_10  and  N_11 
REMARK    3  A    between atoms: C_18  and  C_19 
ROOT
HETATM    1  C   UNL     1     -42.206  57.781 -56.862  1.00  0.00     0.106 A 
HETATM    2  C   UNL     1     -42.346  58.805 -57.993  1.00  0.00     0.081 A 
HETATM    3  C   UNL     1     -41.660  60.043 -57.821  1.00  0.00     0.100 C 
HETATM    4  N   UNL     1     -41.098  61.050 -57.683  1.00  0.00    -0.191 NA
HETATM    5  C   UNL     1     -43.043  58.557 -59.136  1.00  0.00     0.140 A 
HETATM    6  O   UNL     1     -43.688  57.328 -59.359  1.00  0.00    -0.279 OA
HETATM    7  C   UNL     1     -43.510  56.392 -58.436  1.00  0.00     0.175 A 
HETATM    8  C   UNL     1     -42.834  56.485 -57.246  1.00  0.00     0.040 A 
HETATM    9  N   UNL     1     -43.986  55.128 -58.525  1.00  0.00    -0.256 N 
HETATM   10  H   UNL     1     -44.531  54.712 -59.270  1.00  0.00     0.191 HD
HETATM   11  N   UNL     1     -43.654  54.373 -57.464  1.00  0.00    -0.172 NA
HETATM   12  C   UNL     1     -42.918  55.183 -56.673  1.00  0.00     0.099 A 
ENDROOT
BRANCH   1  13
HETATM   13  C   UNL     1     -42.880  58.254 -55.580  1.00  0.00    -0.044 A 
HETATM   14  C   UNL     1     -42.214  58.303 -54.342  1.00  0.00     0.009 A 
HETATM   15  C   UNL     1     -42.890  58.672 -53.177  1.00  0.00     0.007 A 
HETATM   16  C   UNL     1     -44.250  58.992 -53.214  1.00  0.00    -0.062 A 
HETATM   17  C   UNL     1     -44.985  59.329 -51.950  1.00  0.00     0.048 C 
HETATM   18  C   UNL     1     -44.928  58.925 -54.435  1.00  0.00     0.007 A 
HETATM   19  C   UNL     1     -44.251  58.566 -55.604  1.00  0.00     0.009 A 
ENDBRANCH   1  13
BRANCH   5  20
HETATM   20  N   UNL     1     -43.200  59.436 -60.184  1.00  0.00    -0.282 NA
HETATM   21  H   UNL     1     -43.031  59.049 -61.109  1.00  0.00     0.126 HD
HETATM   22  H   UNL     1     -42.709  60.313 -60.024  1.00  0.00     0.126 HD
ENDBRANCH   5  20
BRANCH  12  23
HETATM   23  C   UNL     1     -42.351  54.673 -55.422  1.00  0.00    -0.005 A 
HETATM   24  C   UNL     1     -43.112  54.602 -54.249  1.00  0.00     0.014 A 
HETATM   25  C   UNL     1     -42.545  54.127 -53.063  1.00  0.00     0.001 A 
HETATM   26  C   UNL     1     -41.210  53.726 -53.035  1.00  0.00     0.000 A 
HETATM   27  C   UNL     1     -40.439  53.803 -54.193  1.00  0.00     0.001 A 
HETATM   28  C   UNL     1     -41.007  54.276 -55.379  1.00  0.00     0.014 A 
ENDBRANCH  12  23
TORSDOF 3
ENDMDL
MODEL 5
REMARK VINA RESULT:      -7.3      2.669      5.314
REMARK  3 active torsions:
REMARK  status: ('A' for Active; 'I' for Inactive)
REMARK    1  A    between atoms: C_5  and  C_6 
REMARK    2  A    between atoms: C_10  and  N_11 
REMARK    3  A    between atoms: C_18  and  C_19 
ROOT
HETATM    1  C   UNL     1     -42.710  55.539 -52.384  1.00  0.00     0.106 A 
HETATM    2  C   UNL     1     -41.982  54.234 -52.723  1.00  0.00     0.081 A 
HETATM    3  C   UNL     1     -41.419  53.515 -51.628  1.00  0.00     0.100 C 
HETATM    4  N   UNL     1     -40.963  52.928 -50.736  1.00  0.00    -0.191 NA
HETATM    5  C   UNL     1     -41.903  53.737 -53.988  1.00  0.00     0.140 A 
HETATM    6  O   UNL     1     -42.492  54.393 -55.082  1.00  0.00    -0.279 OA
HETATM    7  C   UNL     1     -43.203  55.479 -54.805  1.00  0.00     0.175 A 
HETATM    8  C   UNL     1     -43.383  56.094 -53.592  1.00  0.00     0.040 A 
HETATM    9  N   UNL     1     -43.904  56.189 -55.719  1.00  0.00    -0.256 N 
HETATM   10  H   UNL     1     -43.994  56.019 -56.714  1.00  0.00     0.191 HD
HETATM   11  N   UNL     1     -44.550  57.236 -55.179  1.00  0.00    -0.172 NA
HETATM   12  C   UNL     1     -44.265  57.182 -53.860  1.00  0.00     0.099 A 
ENDROOT
BRANCH   1  13
HETATM   13  C   UNL     1     -41.753  56.605 -51.863  1.00  0.00    -0.044 A 
HETATM   14  C   UNL     1     -41.582  56.871 -50.493  1.00  0.00     0.009 A 
HETATM   15  C   UNL     1     -40.751  57.908 -50.061  1.00  0.00     0.007 A 
HETATM   16  C   UNL     1     -40.076  58.711 -50.986  1.00  0.00    -0.062 A 
HETATM   17  C   UNL     1     -39.232  59.860 -50.517  1.00  0.00     0.048 C 
HETATM   18  C   UNL     1     -40.256  58.470 -52.350  1.00  0.00     0.007 A 
HETATM   19  C   UNL     1     -41.080  57.427 -52.784  1.00  0.00     0.009 A 
ENDBRANCH   1  13
BRANCH   5  20
HETATM   20  N   UNL     1     -41.266  52.570 -54.349  1.00  0.00    -0.282 NA
HETATM   21  H   UNL     1     -40.958  51.983 -53.578  1.00  0.00     0.126 HD
HETATM   22  H   UNL     1     -40.539  52.731 -55.042  1.00  0.00     0.126 HD
ENDBRANCH   5  20
BRANCH  12  23
HETATM   23  C   UNL     1     -44.839  58.168 -52.942  1.00  0.00    -0.005 A 
HETATM   24  C   UNL     1     -45.172  59.459 -53.369  1.00  0.00     0.014 A 
HETATM   25  C   UNL     1     -45.705  60.389 -52.472  1.00  0.00     0.001 A 
HETATM   26  C   UNL     1     -45.900  60.041 -51.136  1.00  0.00     0.000 A 
HETATM   27  C   UNL     1     -45.560  58.765 -50.695  1.00  0.00     0.001 A 
HETATM   28  C   UNL     1     -45.031  57.835 -51.593  1.00  0.00     0.014 A 
ENDBRANCH  12  23
TORSDOF 3
ENDMDL
MODEL 6
REMARK VINA RESULT:      -7.3      3.147      4.300
REMARK  3 active torsions:
REMARK  status: ('A' for Active; 'I' for Inactive)
REMARK    1  A    between atoms: C_5  and  C_6 
REMARK    2  A    between atoms: C_10  and  N_11 
REMARK    3  A    between atoms: C_18  and  C_19 
ROOT
HETATM    1  C   UNL     1     -42.319  57.285 -55.362  1.00  0.00     0.106 A 
HETATM    2  C   UNL     1     -42.497  58.173 -56.598  1.00  0.00     0.081 A 
HETATM    3  C   UNL     1     -41.999  59.506 -56.503  1.00  0.00     0.100 C 
HETATM    4  N   UNL     1     -41.590  60.590 -56.426  1.00  0.00    -0.191 NA
HETATM    5  C   UNL     1     -43.054  57.727 -57.758  1.00  0.00     0.140 A 
HETATM    6  O   UNL     1     -43.508  56.405 -57.902  1.00  0.00    -0.279 OA
HETATM    7  C   UNL     1     -43.286  55.590 -56.878  1.00  0.00     0.175 A 
HETATM    8  C   UNL     1     -42.734  55.884 -55.658  1.00  0.00     0.040 A 
HETATM    9  N   UNL     1     -43.581  54.269 -56.873  1.00  0.00    -0.256 N 
HETATM   10  H   UNL     1     -44.000  53.715 -57.611  1.00  0.00     0.191 HD
HETATM   11  N   UNL     1     -43.244  53.667 -55.720  1.00  0.00    -0.172 NA
HETATM   12  C   UNL     1     -42.693  54.640 -54.964  1.00  0.00     0.099 A 
ENDROOT
BRANCH   1  13
HETATM   13  C   UNL     1     -43.158  57.772 -54.186  1.00  0.00    -0.044 A 
HETATM   14  C   UNL     1     -44.524  58.084 -54.304  1.00  0.00     0.009 A 
HETATM   15  C   UNL     1     -45.238  58.600 -53.219  1.00  0.00     0.007 A 
HETATM   16  C   UNL     1     -44.605  58.825 -51.993  1.00  0.00    -0.062 A 
HETATM   17  C   UNL     1     -45.363  59.434 -50.850  1.00  0.00     0.048 C 
HETATM   18  C   UNL     1     -43.243  58.539 -51.872  1.00  0.00     0.007 A 
HETATM   19  C   UNL     1     -42.529  58.015 -52.953  1.00  0.00     0.009 A 
ENDBRANCH   1  13
BRANCH   5  20
HETATM   20  N   UNL     1     -43.236  58.478 -58.897  1.00  0.00    -0.282 NA
HETATM   21  H   UNL     1     -44.181  58.824 -59.048  1.00  0.00     0.126 HD
HETATM   22  H   UNL     1     -42.843  58.026 -59.720  1.00  0.00     0.126 HD
ENDBRANCH   5  20
BRANCH  12  23
HETATM   23  C   UNL     1     -42.173  54.330 -53.630  1.00  0.00    -0.005 A 
HETATM   24  C   UNL     1     -40.841  53.944 -53.435  1.00  0.00     0.014 A 
HETATM   25  C   UNL     1     -40.370  53.638 -52.155  1.00  0.00     0.001 A 
HETATM   26  C   UNL     1     -41.228  53.705 -51.058  1.00  0.00     0.000 A 
HETATM   27  C   UNL     1     -42.559  54.074 -51.241  1.00  0.00     0.001 A 
HETATM   28  C   UNL     1     -43.028  54.383 -52.520  1.00  0.00     0.014 A 
ENDBRANCH  12  23
TORSDOF 3
ENDMDL
MODEL 7
REMARK VINA RESULT:      -7.1      3.072      5.156
REMARK  3 active torsions:
REMARK  status: ('A' for Active; 'I' for Inactive)
REMARK    1  A    between atoms: C_5  and  C_6 
REMARK    2  A    between atoms: C_10  and  N_11 
REMARK    3  A    between atoms: C_18  and  C_19 
ROOT
HETATM    1  C   UNL     1     -43.232  58.487 -54.764  1.00  0.00     0.106 A 
HETATM    2  C   UNL     1     -43.785  59.917 -54.730  1.00  0.00     0.081 A 
HETATM    3  C   UNL     1     -45.048  60.127 -55.356  1.00  0.00     0.100 C 
HETATM    4  N   UNL     1     -46.078  60.298 -55.863  1.00  0.00    -0.191 NA
HETATM    5  C   UNL     1     -43.148  60.942 -54.100  1.00  0.00     0.140 A 
HETATM    6  O   UNL     1     -41.927  60.757 -53.429  1.00  0.00    -0.279 OA
HETATM    7  C   UNL     1     -41.470  59.513 -53.367  1.00  0.00     0.175 A 
HETATM    8  C   UNL     1     -41.997  58.382 -53.937  1.00  0.00     0.040 A 
HETATM    9  N   UNL     1     -40.357  59.138 -52.695  1.00  0.00    -0.256 N 
HETATM   10  H   UNL     1     -39.722  59.716 -52.158  1.00  0.00     0.191 HD
HETATM   11  N   UNL     1     -40.121  57.817 -52.777  1.00  0.00    -0.172 NA
HETATM   12  C   UNL     1     -41.137  57.325 -53.518  1.00  0.00     0.099 A 
ENDROOT
BRANCH   1  13
HETATM   13  C   UNL     1     -42.875  58.050 -56.180  1.00  0.00    -0.044 A 
HETATM   14  C   UNL     1     -42.221  58.893 -57.095  1.00  0.00     0.009 A 
HETATM   15  C   UNL     1     -41.980  58.478 -58.407  1.00  0.00     0.007 A 
HETATM   16  C   UNL     1     -42.393  57.215 -58.842  1.00  0.00    -0.062 A 
HETATM   17  C   UNL     1     -42.183  56.798 -60.268  1.00  0.00     0.048 C 
HETATM   18  C   UNL     1     -43.063  56.377 -57.946  1.00  0.00     0.007 A 
HETATM   19  C   UNL     1     -43.297  56.786 -56.630  1.00  0.00     0.009 A 
ENDBRANCH   1  13
BRANCH   5  20
HETATM   20  N   UNL     1     -43.597  62.242 -54.035  1.00  0.00    -0.282 NA
HETATM   21  H   UNL     1     -43.568  62.670 -53.112  1.00  0.00     0.126 HD
HETATM   22  H   UNL     1     -44.495  62.360 -54.498  1.00  0.00     0.126 HD
ENDBRANCH   5  20
BRANCH  12  23
HETATM   23  C   UNL     1     -41.222  55.888 -53.787  1.00  0.00    -0.005 A 
HETATM   24  C   UNL     1     -42.100  55.060 -53.077  1.00  0.00     0.014 A 
HETATM   25  C   UNL     1     -42.152  53.689 -53.340  1.00  0.00     0.001 A 
HETATM   26  C   UNL     1     -41.321  53.128 -54.309  1.00  0.00     0.000 A 
HETATM   27  C   UNL     1     -40.434  53.939 -55.014  1.00  0.00     0.001 A 
HETATM   28  C   UNL     1     -40.384  55.310 -54.753  1.00  0.00     0.014 A 
ENDBRANCH  12  23
TORSDOF 3
ENDMDL
MODEL 8
REMARK VINA RESULT:      -6.9      2.474      4.897
REMARK  3 active torsions:
REMARK  status: ('A' for Active; 'I' for Inactive)
REMARK    1  A    between atoms: C_5  and  C_6 
REMARK    2  A    between atoms: C_10  and  N_11 
REMARK    3  A    between atoms: C_18  and  C_19 
ROOT
HETATM    1  C   UNL     1     -43.606  57.374 -52.281  1.00  0.00     0.106 A 
HETATM    2  C   UNL     1     -43.481  56.139 -53.180  1.00  0.00     0.081 A 
HETATM    3  C   UNL     1     -42.856  54.994 -52.606  1.00  0.00     0.100 C 
HETATM    4  N   UNL     1     -42.350  54.059 -52.138  1.00  0.00    -0.191 NA
HETATM    5  C   UNL     1     -43.974  56.094 -54.448  1.00  0.00     0.140 A 
HETATM    6  O   UNL     1     -44.641  57.188 -55.025  1.00  0.00    -0.279 OA
HETATM    7  C   UNL     1     -44.841  58.238 -54.240  1.00  0.00     0.175 A 
HETATM    8  C   UNL     1     -44.417  58.431 -52.949  1.00  0.00     0.040 A 
HETATM    9  N   UNL     1     -45.533  59.344 -54.599  1.00  0.00    -0.256 N 
HETATM   10  H   UNL     1     -45.987  59.541 -55.484  1.00  0.00     0.191 HD
HETATM   11  N   UNL     1     -45.603  60.256 -53.615  1.00  0.00    -0.172 NA
HETATM   12  C   UNL     1     -44.943  59.702 -52.576  1.00  0.00     0.099 A 
ENDROOT
BRANCH   1  13
HETATM   13  C   UNL     1     -42.246  57.980 -51.954  1.00  0.00    -0.044 A 
HETATM   14  C   UNL     1     -41.276  58.249 -52.936  1.00  0.00     0.009 A 
HETATM   15  C   UNL     1     -40.014  58.734 -52.585  1.00  0.00     0.007 A 
HETATM   16  C   UNL     1     -39.684  58.954 -51.245  1.00  0.00    -0.062 A 
HETATM   17  C   UNL     1     -38.307  59.419 -50.870  1.00  0.00     0.048 C 
HETATM   18  C   UNL     1     -40.632  58.669 -50.259  1.00  0.00     0.007 A 
HETATM   19  C   UNL     1     -41.899  58.192 -50.608  1.00  0.00     0.009 A 
ENDBRANCH   1  13
BRANCH   5  20
HETATM   20  N   UNL     1     -43.893  55.013 -55.298  1.00  0.00    -0.282 NA
HETATM   21  H   UNL     1     -43.510  54.164 -54.891  1.00  0.00     0.126 HD
HETATM   22  H   UNL     1     -43.461  55.257 -56.186  1.00  0.00     0.126 HD
ENDBRANCH   5  20
BRANCH  12  23
HETATM   23  C   UNL     1     -44.847  60.416 -51.301  1.00  0.00    -0.005 A 
HETATM   24  C   UNL     1     -45.624  60.049 -50.195  1.00  0.00     0.014 A 
HETATM   25  C   UNL     1     -45.527  60.755 -48.993  1.00  0.00     0.001 A 
HETATM   26  C   UNL     1     -44.659  61.841 -48.886  1.00  0.00     0.000 A 
HETATM   27  C   UNL     1     -43.890  62.224 -49.982  1.00  0.00     0.001 A 
HETATM   28  C   UNL     1     -43.985  61.517 -51.183  1.00  0.00     0.014 A 
ENDBRANCH  12  23
TORSDOF 3
ENDMDL
MODEL 9
REMARK VINA RESULT:      -6.9      3.618      6.762
REMARK  3 active torsions:
REMARK  status: ('A' for Active; 'I' for Inactive)
REMARK    1  A    between atoms: C_5  and  C_6 
REMARK    2  A    between atoms: C_10  and  N_11 
REMARK    3  A    between atoms: C_18  and  C_19 
ROOT
HETATM    1  C   UNL     1     -40.029  53.715 -51.979  1.00  0.00     0.106 A 
HETATM    2  C   UNL     1     -39.839  52.211 -51.755  1.00  0.00     0.081 A 
HETATM    3  C   UNL     1     -39.184  51.490 -52.797  1.00  0.00     0.100 C 
HETATM    4  N   UNL     1     -38.649  50.903 -53.643  1.00  0.00    -0.191 NA
HETATM    5  C   UNL     1     -40.221  51.578 -50.613  1.00  0.00     0.140 A 
HETATM    6  O   UNL     1     -40.821  52.268 -49.546  1.00  0.00    -0.279 OA
HETATM    7  C   UNL     1     -40.918  53.585 -49.676  1.00  0.00     0.175 A 
HETATM    8  C   UNL     1     -40.573  54.364 -50.752  1.00  0.00     0.040 A 
HETATM    9  N   UNL     1     -41.392  54.417 -48.720  1.00  0.00    -0.256 N 
HETATM   10  H   UNL     1     -41.736  54.182 -47.796  1.00  0.00     0.191 HD
HETATM   11  N   UNL     1     -41.371  55.707 -49.096  1.00  0.00    -0.172 NA
HETATM   12  C   UNL     1     -40.843  55.701 -50.339  1.00  0.00     0.099 A 
ENDROOT
BRANCH   1  13
HETATM   13  C   UNL     1     -41.000  54.003 -53.118  1.00  0.00    -0.044 A 
HETATM   14  C   UNL     1     -42.391  53.833 -52.994  1.00  0.00     0.009 A 
HETATM   15  C   UNL     1     -43.239  54.036 -54.086  1.00  0.00     0.007 A 
HETATM   16  C   UNL     1     -42.720  54.403 -55.331  1.00  0.00    -0.062 A 
HETATM   17  C   UNL     1     -43.629  54.561 -56.514  1.00  0.00     0.048 C 
HETATM   18  C   UNL     1     -41.338  54.552 -55.471  1.00  0.00     0.007 A 
HETATM   19  C   UNL     1     -40.488  54.360 -54.378  1.00  0.00     0.009 A 
ENDBRANCH   1  13
BRANCH   5  20
HETATM   20  N   UNL     1     -40.072  50.233 -50.357  1.00  0.00    -0.282 NA
HETATM   21  H   UNL     1     -40.540  49.609 -51.010  1.00  0.00     0.126 HD
HETATM   22  H   UNL     1     -40.264  50.005 -49.384  1.00  0.00     0.126 HD
ENDBRANCH   5  20
BRANCH  12  23
HETATM   23  C   UNL     1     -40.638  56.961 -51.057  1.00  0.00    -0.005 A 
HETATM   24  C   UNL     1     -39.896  58.009 -50.499  1.00  0.00     0.014 A 
HETATM   25  C   UNL     1     -39.726  59.209 -51.196  1.00  0.00     0.001 A 
HETATM   26  C   UNL     1     -40.303  59.377 -52.454  1.00  0.00     0.000 A 
HETATM   27  C   UNL     1     -41.055  58.347 -53.014  1.00  0.00     0.001 A 
HETATM   28  C   UNL     1     -41.222  57.147 -52.319  1.00  0.00     0.014 A 
ENDBRANCH  12  23
TORSDOF 3
ENDMDL
MODEL 10
REMARK VINA RESULT:      -6.8      2.650      4.497
REMARK  3 active torsions:
REMARK  status: ('A' for Active; 'I' for Inactive)
REMARK    1  A    between atoms: C_5  and  C_6 
REMARK    2  A    between atoms: C_10  and  N_11 
REMARK    3  A    between atoms: C_18  and  C_19 
ROOT
HETATM    1  C   UNL     1     -43.637  58.755 -51.414  1.00  0.00     0.106 A 
HETATM    2  C   UNL     1     -44.286  60.107 -51.098  1.00  0.00     0.081 A 
HETATM    3  C   UNL     1     -45.703  60.182 -51.235  1.00  0.00     0.100 C 
HETATM    4  N   UNL     1     -46.858  60.242 -51.343  1.00  0.00    -0.191 NA
HETATM    5  C   UNL     1     -43.578  61.185 -50.663  1.00  0.00     0.140 A 
HETATM    6  O   UNL     1     -42.187  61.130 -50.468  1.00  0.00    -0.279 OA
HETATM    7  C   UNL     1     -41.612  59.948 -50.649  1.00  0.00     0.175 A 
HETATM    8  C   UNL     1     -42.187  58.776 -51.074  1.00  0.00     0.040 A 
HETATM    9  N   UNL     1     -40.303  59.690 -50.428  1.00  0.00    -0.256 N 
HETATM   10  H   UNL     1     -39.582  60.327 -50.108  1.00  0.00     0.191 HD
HETATM   11  N   UNL     1     -39.976  58.410 -50.672  1.00  0.00    -0.172 NA
HETATM   12  C   UNL     1     -41.131  57.819 -51.047  1.00  0.00     0.099 A 
ENDROOT
BRANCH   1  13
HETATM   13  C   UNL     1     -43.756  58.398 -52.891  1.00  0.00    -0.044 A 
HETATM   14  C   UNL     1     -44.478  57.281 -53.349  1.00  0.00     0.009 A 
HETATM   15  C   UNL     1     -44.499  56.947 -54.706  1.00  0.00     0.007 A 
HETATM   16  C   UNL     1     -43.794  57.714 -55.638  1.00  0.00    -0.062 A 
HETATM   17  C   UNL     1     -43.772  57.316 -57.085  1.00  0.00     0.048 C 
HETATM   18  C   UNL     1     -43.055  58.813 -55.191  1.00  0.00     0.007 A 
HETATM   19  C   UNL     1     -43.040  59.155 -53.836  1.00  0.00     0.009 A 
ENDBRANCH   1  13
BRANCH   5  20
HETATM   20  N   UNL     1     -44.107  62.420 -50.362  1.00  0.00    -0.282 NA
HETATM   21  H   UNL     1     -43.640  62.926 -49.613  1.00  0.00     0.126 HD
HETATM   22  H   UNL     1     -45.117  62.386 -50.248  1.00  0.00     0.126 HD
ENDBRANCH   5  20
BRANCH  12  23
HETATM   23  C   UNL     1     -41.157  56.389 -51.363  1.00  0.00    -0.005 A 
HETATM   24  C   UNL     1     -41.110  55.416 -50.358  1.00  0.00     0.014 A 
HETATM   25  C   UNL     1     -41.120  54.057 -50.684  1.00  0.00     0.001 A 
HETATM   26  C   UNL     1     -41.167  53.656 -52.018  1.00  0.00     0.000 A 
HETATM   27  C   UNL     1     -41.201  54.615 -53.028  1.00  0.00     0.001 A 
HETATM   28  C   UNL     1     -41.194  55.973 -52.702  1.00  0.00     0.014 A 
ENDBRANCH  12  23
TORSDOF 3
ENDMDL
