MODEL 1
REMARK VINA RESULT:      -8.5      0.000      0.000
REMARK  7 active torsions:
REMARK  status: ('A' for Active; 'I' for Inactive)
REMARK    1  A    between atoms: C_8  and  C_9 
REMARK    2  A    between atoms: C_9  and  N_10 
REMARK    3  A    between atoms: C_9  and  C_14 
REMARK       I    between atoms: C_14  and  N_15 
REMARK    4  A    between atoms: N_15  and  C_16 
REMARK    5  A    between atoms: C_16  and  C_17 
REMARK    6  A    between atoms: C_17  and  C_18 
REMARK    7  A    between atoms: C_17  and  C_24 
ROOT
HETATM    1  C   UNL     1     -42.980  56.163 -56.058  1.00  0.00     0.253 C 
HETATM    2  N   UNL     1     -42.271  54.988 -56.179  1.00  0.00    -0.358 N 
HETATM    3  O   UNL     1     -43.786  56.378 -55.155  1.00  0.00    -0.271 OA
HETATM    4  H   UNL     1     -41.460  54.965 -56.788  1.00  0.00     0.162 HD
ENDROOT
BRANCH   2   5
HETATM    5  C   UNL     1     -42.333  53.901 -55.190  1.00  0.00     0.141 C 
BRANCH   5   6
HETATM    6  C   UNL     1     -41.192  53.934 -54.090  1.00  0.00     0.026 C 
HETATM    7  C   UNL     1     -40.020  54.745 -54.729  1.00  0.00     0.027 C 
BRANCH   6   8
HETATM    8  C   UNL     1     -41.788  54.649 -52.848  1.00  0.00    -0.044 A 
HETATM    9  C   UNL     1     -42.884  54.078 -52.169  1.00  0.00     0.008 A 
HETATM   10  C   UNL     1     -43.462  54.703 -51.061  1.00  0.00     0.001 A 
HETATM   11  C   UNL     1     -42.957  55.914 -50.601  1.00  0.00     0.000 A 
HETATM   12  C   UNL     1     -41.872  56.496 -51.248  1.00  0.00     0.001 A 
HETATM   13  C   UNL     1     -41.295  55.872 -52.359  1.00  0.00     0.008 A 
ENDBRANCH   6   8
BRANCH   6  14
HETATM   14  C   UNL     1     -40.648  52.536 -53.681  1.00  0.00    -0.044 A 
HETATM   15  C   UNL     1     -40.723  51.448 -54.575  1.00  0.00     0.008 A 
HETATM   16  C   UNL     1     -40.212  50.187 -54.245  1.00  0.00     0.001 A 
HETATM   17  C   UNL     1     -39.591  49.985 -53.020  1.00  0.00     0.000 A 
HETATM   18  C   UNL     1     -39.466  51.048 -52.133  1.00  0.00     0.001 A 
HETATM   19  C   UNL     1     -39.979  52.307 -52.466  1.00  0.00     0.008 A 
ENDBRANCH   6  14
ENDBRANCH   5   6
ENDBRANCH   2   5
BRANCH   1  20
HETATM   20  C   UNL     1     -42.926  57.142 -57.253  1.00  0.00     0.311 C 
BRANCH  20  21
HETATM   21  C   UNL     1     -44.195  57.240 -58.037  1.00  0.00     0.031 A 
HETATM   22  C   UNL     1     -45.320  58.041 -57.868  1.00  0.00     0.035 A 
HETATM   23  C   UNL     1     -45.714  59.075 -56.881  1.00  0.00     0.070 C 
HETATM   24  N   UNL     1     -46.173  57.713 -58.893  1.00  0.00    -0.282 N 
HETATM   25  H   UNL     1     -47.096  58.088 -59.099  1.00  0.00     0.189 HD
HETATM   26  N   UNL     1     -45.687  56.771 -59.700  1.00  0.00    -0.179 NA
HETATM   27  C   UNL     1     -44.489  56.470 -59.204  1.00  0.00     0.061 A 
HETATM   28  C   UNL     1     -43.649  55.448 -59.888  1.00  0.00     0.073 C 
ENDBRANCH  20  21
BRANCH  20  29
HETATM   29  N   UNL     1     -42.426  58.465 -56.770  1.00  0.00    -0.062 N 
HETATM   30  H   UNL     1     -41.919  58.361 -55.886  1.00  0.00     0.275 HD
HETATM   31  H   UNL     1     -41.755  58.838 -57.455  1.00  0.00     0.275 HD
HETATM   32  H   UNL     1     -43.196  59.131 -56.651  1.00  0.00     0.275 HD
ENDBRANCH  20  29
ENDBRANCH   1  20
TORSDOF 7
ENDMDL
MODEL 2
REMARK VINA RESULT:      -8.5      1.404      2.781
REMARK  7 active torsions:
REMARK  status: ('A' for Active; 'I' for Inactive)
REMARK    1  A    between atoms: C_8  and  C_9 
REMARK    2  A    between atoms: C_9  and  N_10 
REMARK    3  A    between atoms: C_9  and  C_14 
REMARK       I    between atoms: C_14  and  N_15 
REMARK    4  A    between atoms: N_15  and  C_16 
REMARK    5  A    between atoms: C_16  and  C_17 
REMARK    6  A    between atoms: C_17  and  C_18 
REMARK    7  A    between atoms: C_17  and  C_24 
ROOT
HETATM    1  C   UNL     1     -43.297  55.848 -56.736  1.00  0.00     0.253 C 
HETATM    2  N   UNL     1     -43.198  55.281 -55.485  1.00  0.00    -0.358 N 
HETATM    3  O   UNL     1     -42.761  55.376 -57.737  1.00  0.00    -0.271 OA
HETATM    4  H   UNL     1     -43.848  55.571 -54.762  1.00  0.00     0.162 HD
ENDROOT
BRANCH   2   5
HETATM    5  C   UNL     1     -42.517  54.003 -55.227  1.00  0.00     0.141 C 
BRANCH   5   6
HETATM    6  C   UNL     1     -41.357  54.069 -54.149  1.00  0.00     0.026 C 
HETATM    7  C   UNL     1     -40.222  54.914 -54.810  1.00  0.00     0.027 C 
BRANCH   6   8
HETATM    8  C   UNL     1     -41.951  54.767 -52.896  1.00  0.00    -0.044 A 
HETATM    9  C   UNL     1     -41.413  55.994 -52.457  1.00  0.00     0.008 A 
HETATM   10  C   UNL     1     -41.906  56.641 -51.320  1.00  0.00     0.001 A 
HETATM   11  C   UNL     1     -42.951  56.080 -50.596  1.00  0.00     0.000 A 
HETATM   12  C   UNL     1     -43.504  54.873 -51.010  1.00  0.00     0.001 A 
HETATM   13  C   UNL     1     -43.010  54.223 -52.146  1.00  0.00     0.008 A 
ENDBRANCH   6   8
BRANCH   6  14
HETATM   14  C   UNL     1     -40.766  52.688 -53.750  1.00  0.00    -0.044 A 
HETATM   15  C   UNL     1     -40.880  51.581 -54.617  1.00  0.00     0.008 A 
HETATM   16  C   UNL     1     -40.329  50.335 -54.298  1.00  0.00     0.001 A 
HETATM   17  C   UNL     1     -39.627  50.166 -53.112  1.00  0.00     0.000 A 
HETATM   18  C   UNL     1     -39.462  51.249 -52.255  1.00  0.00     0.001 A 
HETATM   19  C   UNL     1     -40.016  52.493 -52.577  1.00  0.00     0.008 A 
ENDBRANCH   6  14
ENDBRANCH   5   6
ENDBRANCH   2   5
BRANCH   1  20
HETATM   20  C   UNL     1     -43.910  57.264 -56.820  1.00  0.00     0.311 C 
BRANCH  20  21
HETATM   21  C   UNL     1     -42.921  58.358 -57.064  1.00  0.00     0.031 A 
HETATM   22  C   UNL     1     -42.310  58.800 -58.234  1.00  0.00     0.035 A 
HETATM   23  C   UNL     1     -42.377  58.384 -59.656  1.00  0.00     0.070 C 
HETATM   24  N   UNL     1     -41.501  59.846 -57.864  1.00  0.00    -0.282 N 
HETATM   25  H   UNL     1     -40.895  60.420 -58.446  1.00  0.00     0.189 HD
HETATM   26  N   UNL     1     -41.543  60.106 -56.558  1.00  0.00    -0.179 NA
HETATM   27  C   UNL     1     -42.398  59.221 -56.053  1.00  0.00     0.061 A 
HETATM   28  C   UNL     1     -42.700  59.244 -54.595  1.00  0.00     0.073 C 
ENDBRANCH  20  21
BRANCH  20  29
HETATM   29  N   UNL     1     -45.029  57.247 -57.810  1.00  0.00    -0.062 N 
HETATM   30  H   UNL     1     -44.693  56.962 -58.734  1.00  0.00     0.275 HD
HETATM   31  H   UNL     1     -45.722  56.544 -57.516  1.00  0.00     0.275 HD
HETATM   32  H   UNL     1     -45.482  58.164 -57.874  1.00  0.00     0.275 HD
ENDBRANCH  20  29
ENDBRANCH   1  20
TORSDOF 7
ENDMDL
MODEL 3
REMARK VINA RESULT:      -8.4      2.317      3.773
REMARK  7 active torsions:
REMARK  status: ('A' for Active; 'I' for Inactive)
REMARK    1  A    between atoms: C_8  and  C_9 
REMARK    2  A    between atoms: C_9  and  N_10 
REMARK    3  A    between atoms: C_9  and  C_14 
REMARK       I    between atoms: C_14  and  N_15 
REMARK    4  A    between atoms: N_15  and  C_16 
REMARK    5  A    between atoms: C_16  and  C_17 
REMARK    6  A    between atoms: C_17  and  C_18 
REMARK    7  A    between atoms: C_17  and  C_24 
ROOT
HETATM    1  C   UNL     1     -43.779  55.983 -54.973  1.00  0.00     0.253 C 
HETATM    2  N   UNL     1     -43.504  54.896 -54.173  1.00  0.00    -0.358 N 
HETATM    3  O   UNL     1     -43.221  56.189 -56.049  1.00  0.00    -0.271 OA
HETATM    4  H   UNL     1     -44.155  54.653 -53.434  1.00  0.00     0.162 HD
ENDROOT
BRANCH   2   5
HETATM    5  C   UNL     1     -42.581  53.819 -54.561  1.00  0.00     0.141 C 
BRANCH   5   6
HETATM    6  C   UNL     1     -41.207  53.799 -53.771  1.00  0.00     0.026 C 
HETATM    7  C   UNL     1     -40.196  54.576 -54.674  1.00  0.00     0.027 C 
BRANCH   6   8
HETATM    8  C   UNL     1     -41.458  54.520 -52.420  1.00  0.00    -0.044 A 
HETATM    9  C   UNL     1     -40.945  55.818 -52.213  1.00  0.00     0.008 A 
HETATM   10  C   UNL     1     -41.131  56.490 -51.002  1.00  0.00     0.001 A 
HETATM   11  C   UNL     1     -41.836  55.885 -49.969  1.00  0.00     0.000 A 
HETATM   12  C   UNL     1     -42.358  54.608 -50.148  1.00  0.00     0.001 A 
HETATM   13  C   UNL     1     -42.170  53.933 -51.359  1.00  0.00     0.008 A 
ENDBRANCH   6   8
BRANCH   6  14
HETATM   14  C   UNL     1     -40.632  52.378 -53.510  1.00  0.00    -0.044 A 
HETATM   15  C   UNL     1     -40.749  51.367 -54.485  1.00  0.00     0.008 A 
HETATM   16  C   UNL     1     -40.212  50.089 -54.289  1.00  0.00     0.001 A 
HETATM   17  C   UNL     1     -39.523  49.794 -53.120  1.00  0.00     0.000 A 
HETATM   18  C   UNL     1     -39.356  50.782 -52.157  1.00  0.00     0.001 A 
HETATM   19  C   UNL     1     -39.896  52.058 -52.356  1.00  0.00     0.008 A 
ENDBRANCH   6  14
ENDBRANCH   5   6
ENDBRANCH   2   5
BRANCH   1  20
HETATM   20  C   UNL     1     -44.652  57.102 -54.362  1.00  0.00     0.311 C 
BRANCH  20  21
HETATM   21  C   UNL     1     -43.900  58.103 -53.545  1.00  0.00     0.031 A 
HETATM   22  C   UNL     1     -42.945  59.050 -53.903  1.00  0.00     0.035 A 
HETATM   23  C   UNL     1     -42.300  59.437 -55.182  1.00  0.00     0.070 C 
HETATM   24  N   UNL     1     -42.608  59.702 -52.743  1.00  0.00    -0.282 N 
HETATM   25  H   UNL     1     -41.940  60.458 -52.607  1.00  0.00     0.189 HD
HETATM   26  N   UNL     1     -43.266  59.250 -51.676  1.00  0.00    -0.179 NA
HETATM   27  C   UNL     1     -44.057  58.284 -52.137  1.00  0.00     0.061 A 
HETATM   28  C   UNL     1     -44.960  57.566 -51.196  1.00  0.00     0.073 C 
ENDBRANCH  20  21
BRANCH  20  29
HETATM   29  N   UNL     1     -45.471  57.721 -55.448  1.00  0.00    -0.062 N 
HETATM   30  H   UNL     1     -46.321  58.147 -55.065  1.00  0.00     0.275 HD
HETATM   31  H   UNL     1     -44.929  58.480 -55.883  1.00  0.00     0.275 HD
HETATM   32  H   UNL     1     -45.723  57.031 -56.162  1.00  0.00     0.275 HD
ENDBRANCH  20  29
ENDBRANCH   1  20
TORSDOF 7
ENDMDL
MODEL 4
REMARK VINA RESULT:      -8.3      1.495      2.707
REMARK  7 active torsions:
REMARK  status: ('A' for Active; 'I' for Inactive)
REMARK    1  A    between atoms: C_8  and  C_9 
REMARK    2  A    between atoms: C_9  and  N_10 
REMARK    3  A    between atoms: C_9  and  C_14 
REMARK       I    between atoms: C_14  and  N_15 
REMARK    4  A    between atoms: N_15  and  C_16 
REMARK    5  A    between atoms: C_16  and  C_17 
REMARK    6  A    between atoms: C_17  and  C_18 
REMARK    7  A    between atoms: C_17  and  C_24 
ROOT
HETATM    1  C   UNL     1     -43.333  55.849 -56.416  1.00  0.00     0.253 C 
HETATM    2  N   UNL     1     -43.245  55.131 -55.244  1.00  0.00    -0.358 N 
HETATM    3  O   UNL     1     -42.715  55.556 -57.438  1.00  0.00    -0.271 OA
HETATM    4  H   UNL     1     -43.950  55.273 -54.527  1.00  0.00     0.162 HD
ENDROOT
BRANCH   2   5
HETATM    5  C   UNL     1     -42.474  53.885 -55.115  1.00  0.00     0.141 C 
BRANCH   5   6
HETATM    6  C   UNL     1     -41.275  53.945 -54.080  1.00  0.00     0.026 C 
HETATM    7  C   UNL     1     -40.176  54.818 -54.767  1.00  0.00     0.027 C 
BRANCH   6   8
HETATM    8  C   UNL     1     -41.829  54.611 -52.792  1.00  0.00    -0.044 A 
HETATM    9  C   UNL     1     -42.933  54.038 -52.126  1.00  0.00     0.008 A 
HETATM   10  C   UNL     1     -43.474  54.621 -50.977  1.00  0.00     0.001 A 
HETATM   11  C   UNL     1     -42.923  55.789 -50.462  1.00  0.00     0.000 A 
HETATM   12  C   UNL     1     -41.830  56.371 -51.095  1.00  0.00     0.001 A 
HETATM   13  C   UNL     1     -41.290  55.791 -52.247  1.00  0.00     0.008 A 
ENDBRANCH   6   8
BRANCH   6  14
HETATM   14  C   UNL     1     -40.652  52.564 -53.732  1.00  0.00    -0.044 A 
HETATM   15  C   UNL     1     -40.002  52.361 -52.497  1.00  0.00     0.008 A 
HETATM   16  C   UNL     1     -39.460  51.120 -52.145  1.00  0.00     0.001 A 
HETATM   17  C   UNL     1     -39.574  50.039 -53.009  1.00  0.00     0.000 A 
HETATM   18  C   UNL     1     -40.245  50.197 -54.216  1.00  0.00     0.001 A 
HETATM   19  C   UNL     1     -40.783  51.440 -54.566  1.00  0.00     0.008 A 
ENDBRANCH   6  14
ENDBRANCH   5   6
ENDBRANCH   2   5
BRANCH   1  20
HETATM   20  C   UNL     1     -44.056  57.214 -56.351  1.00  0.00     0.311 C 
BRANCH  20  21
HETATM   21  C   UNL     1     -43.215  58.341 -55.844  1.00  0.00     0.031 A 
HETATM   22  C   UNL     1     -43.106  58.908 -54.577  1.00  0.00     0.035 A 
HETATM   23  C   UNL     1     -43.753  58.648 -53.269  1.00  0.00     0.070 C 
HETATM   24  N   UNL     1     -42.169  59.905 -54.691  1.00  0.00    -0.282 N 
HETATM   25  H   UNL     1     -41.825  60.541 -53.975  1.00  0.00     0.189 HD
HETATM   26  N   UNL     1     -41.674  60.023 -55.922  1.00  0.00    -0.179 NA
HETATM   27  C   UNL     1     -42.290  59.085 -56.638  1.00  0.00     0.061 A 
HETATM   28  C   UNL     1     -41.951  58.923 -58.079  1.00  0.00     0.073 C 
ENDBRANCH  20  21
BRANCH  20  29
HETATM   29  N   UNL     1     -44.679  57.493 -57.680  1.00  0.00    -0.062 N 
HETATM   30  H   UNL     1     -45.669  57.231 -57.680  1.00  0.00     0.275 HD
HETATM   31  H   UNL     1     -44.640  58.506 -57.861  1.00  0.00     0.275 HD
HETATM   32  H   UNL     1     -44.190  56.996 -58.431  1.00  0.00     0.275 HD
ENDBRANCH  20  29
ENDBRANCH   1  20
TORSDOF 7
ENDMDL
MODEL 5
REMARK VINA RESULT:      -8.0      1.721      4.669
REMARK  7 active torsions:
REMARK  status: ('A' for Active; 'I' for Inactive)
REMARK    1  A    between atoms: C_8  and  C_9 
REMARK    2  A    between atoms: C_9  and  N_10 
REMARK    3  A    between atoms: C_9  and  C_14 
REMARK       I    between atoms: C_14  and  N_15 
REMARK    4  A    between atoms: N_15  and  C_16 
REMARK    5  A    between atoms: C_16  and  C_17 
REMARK    6  A    between atoms: C_17  and  C_18 
REMARK    7  A    between atoms: C_17  and  C_24 
ROOT
HETATM    1  C   UNL     1     -43.493  56.091 -56.529  1.00  0.00     0.253 C 
HETATM    2  N   UNL     1     -43.622  55.704 -55.213  1.00  0.00    -0.358 N 
HETATM    3  O   UNL     1     -42.797  55.490 -57.346  1.00  0.00    -0.271 OA
HETATM    4  H   UNL     1     -44.385  56.085 -54.662  1.00  0.00     0.162 HD
ENDROOT
BRANCH   2   5
HETATM    5  C   UNL     1     -43.015  54.482 -54.666  1.00  0.00     0.141 C 
BRANCH   5   6
HETATM    6  C   UNL     1     -42.437  54.622 -53.197  1.00  0.00     0.026 C 
HETATM    7  C   UNL     1     -43.652  54.371 -52.246  1.00  0.00     0.027 C 
BRANCH   6   8
HETATM    8  C   UNL     1     -41.340  53.535 -53.042  1.00  0.00    -0.044 A 
HETATM    9  C   UNL     1     -40.980  52.740 -54.149  1.00  0.00     0.008 A 
HETATM   10  C   UNL     1     -40.012  51.737 -54.043  1.00  0.00     0.001 A 
HETATM   11  C   UNL     1     -39.378  51.505 -52.828  1.00  0.00     0.000 A 
HETATM   12  C   UNL     1     -39.709  52.279 -51.721  1.00  0.00     0.001 A 
HETATM   13  C   UNL     1     -40.680  53.282 -51.826  1.00  0.00     0.008 A 
ENDBRANCH   6   8
BRANCH   6  14
HETATM   14  C   UNL     1     -41.843  56.020 -52.867  1.00  0.00    -0.044 A 
HETATM   15  C   UNL     1     -42.112  56.639 -51.629  1.00  0.00     0.008 A 
HETATM   16  C   UNL     1     -41.564  57.883 -51.293  1.00  0.00     0.001 A 
HETATM   17  C   UNL     1     -40.713  58.532 -52.177  1.00  0.00     0.000 A 
HETATM   18  C   UNL     1     -40.396  57.928 -53.388  1.00  0.00     0.001 A 
HETATM   19  C   UNL     1     -40.947  56.685 -53.722  1.00  0.00     0.008 A 
ENDBRANCH   6  14
ENDBRANCH   5   6
ENDBRANCH   2   5
BRANCH   1  20
HETATM   20  C   UNL     1     -44.062  57.475 -56.914  1.00  0.00     0.311 C 
BRANCH  20  21
HETATM   21  C   UNL     1     -43.031  58.540 -57.112  1.00  0.00     0.031 A 
HETATM   22  C   UNL     1     -42.236  58.856 -58.209  1.00  0.00     0.035 A 
HETATM   23  C   UNL     1     -42.082  58.290 -59.572  1.00  0.00     0.070 C 
HETATM   24  N   UNL     1     -41.481  59.937 -57.828  1.00  0.00    -0.282 N 
HETATM   25  H   UNL     1     -40.782  60.448 -58.364  1.00  0.00     0.189 HD
HETATM   26  N   UNL     1     -41.727  60.336 -56.581  1.00  0.00    -0.179 NA
HETATM   27  C   UNL     1     -42.664  59.508 -56.127  1.00  0.00     0.061 A 
HETATM   28  C   UNL     1     -43.193  59.686 -54.747  1.00  0.00     0.073 C 
ENDBRANCH  20  21
BRANCH  20  29
HETATM   29  N   UNL     1     -44.976  57.312 -58.084  1.00  0.00    -0.062 N 
HETATM   30  H   UNL     1     -44.723  57.960 -58.837  1.00  0.00     0.275 HD
HETATM   31  H   UNL     1     -44.867  56.361 -58.462  1.00  0.00     0.275 HD
HETATM   32  H   UNL     1     -45.954  57.460 -57.815  1.00  0.00     0.275 HD
ENDBRANCH  20  29
ENDBRANCH   1  20
TORSDOF 7
ENDMDL
MODEL 6
REMARK VINA RESULT:      -7.9      1.522      4.238
REMARK  7 active torsions:
REMARK  status: ('A' for Active; 'I' for Inactive)
REMARK    1  A    between atoms: C_8  and  C_9 
REMARK    2  A    between atoms: C_9  and  N_10 
REMARK    3  A    between atoms: C_9  and  C_14 
REMARK       I    between atoms: C_14  and  N_15 
REMARK    4  A    between atoms: N_15  and  C_16 
REMARK    5  A    between atoms: C_16  and  C_17 
REMARK    6  A    between atoms: C_17  and  C_18 
REMARK    7  A    between atoms: C_17  and  C_24 
ROOT
HETATM    1  C   UNL     1     -42.128  56.946 -55.775  1.00  0.00     0.253 C 
HETATM    2  N   UNL     1     -41.807  55.622 -55.980  1.00  0.00    -0.358 N 
HETATM    3  O   UNL     1     -41.816  57.569 -54.762  1.00  0.00    -0.271 OA
HETATM    4  H   UNL     1     -41.875  55.240 -56.918  1.00  0.00     0.162 HD
ENDROOT
BRANCH   2   5
HETATM    5  C   UNL     1     -40.977  54.838 -55.053  1.00  0.00     0.141 C 
BRANCH   5   6
HETATM    6  C   UNL     1     -41.787  53.923 -54.043  1.00  0.00     0.026 C 
HETATM    7  C   UNL     1     -43.112  53.555 -54.785  1.00  0.00     0.027 C 
BRANCH   6   8
HETATM    8  C   UNL     1     -40.907  52.676 -53.765  1.00  0.00    -0.044 A 
HETATM    9  C   UNL     1     -40.893  51.608 -54.687  1.00  0.00     0.008 A 
HETATM   10  C   UNL     1     -40.131  50.459 -54.461  1.00  0.00     0.001 A 
HETATM   11  C   UNL     1     -39.360  50.348 -53.309  1.00  0.00     0.000 A 
HETATM   12  C   UNL     1     -39.350  51.389 -52.387  1.00  0.00     0.001 A 
HETATM   13  C   UNL     1     -40.115  52.538 -52.610  1.00  0.00     0.008 A 
ENDBRANCH   6   8
BRANCH   6  14
HETATM   14  C   UNL     1     -42.158  54.614 -52.700  1.00  0.00    -0.044 A 
HETATM   15  C   UNL     1     -41.422  55.724 -52.237  1.00  0.00     0.008 A 
HETATM   16  C   UNL     1     -41.755  56.384 -51.048  1.00  0.00     0.001 A 
HETATM   17  C   UNL     1     -42.848  55.967 -50.301  1.00  0.00     0.000 A 
HETATM   18  C   UNL     1     -43.617  54.901 -50.752  1.00  0.00     0.001 A 
HETATM   19  C   UNL     1     -43.281  54.242 -51.940  1.00  0.00     0.008 A 
ENDBRANCH   6  14
ENDBRANCH   5   6
ENDBRANCH   2   5
BRANCH   1  20
HETATM   20  C   UNL     1     -43.131  57.587 -56.761  1.00  0.00     0.311 C 
BRANCH  20  21
HETATM   21  C   UNL     1     -42.699  57.561 -58.193  1.00  0.00     0.031 A 
HETATM   22  C   UNL     1     -42.865  56.600 -59.185  1.00  0.00     0.035 A 
HETATM   23  C   UNL     1     -43.501  55.261 -59.232  1.00  0.00     0.070 C 
HETATM   24  N   UNL     1     -42.276  57.117 -60.312  1.00  0.00    -0.282 N 
HETATM   25  H   UNL     1     -42.196  56.702 -61.238  1.00  0.00     0.189 HD
HETATM   26  N   UNL     1     -41.747  58.325 -60.122  1.00  0.00    -0.179 NA
HETATM   27  C   UNL     1     -41.993  58.617 -58.847  1.00  0.00     0.061 A 
HETATM   28  C   UNL     1     -41.548  59.927 -58.296  1.00  0.00     0.073 C 
ENDBRANCH  20  21
BRANCH  20  29
HETATM   29  N   UNL     1     -44.479  56.982 -56.539  1.00  0.00    -0.062 N 
HETATM   30  H   UNL     1     -44.441  56.266 -55.808  1.00  0.00     0.275 HD
HETATM   31  H   UNL     1     -45.121  57.714 -56.204  1.00  0.00     0.275 HD
HETATM   32  H   UNL     1     -44.850  56.575 -57.403  1.00  0.00     0.275 HD
ENDBRANCH  20  29
ENDBRANCH   1  20
TORSDOF 7
ENDMDL
MODEL 7
REMARK VINA RESULT:      -7.9      1.585      4.058
REMARK  7 active torsions:
REMARK  status: ('A' for Active; 'I' for Inactive)
REMARK    1  A    between atoms: C_8  and  C_9 
REMARK    2  A    between atoms: C_9  and  N_10 
REMARK    3  A    between atoms: C_9  and  C_14 
REMARK       I    between atoms: C_14  and  N_15 
REMARK    4  A    between atoms: N_15  and  C_16 
REMARK    5  A    between atoms: C_16  and  C_17 
REMARK    6  A    between atoms: C_17  and  C_18 
REMARK    7  A    between atoms: C_17  and  C_24 
ROOT
HETATM    1  C   UNL     1     -42.998  56.153 -57.289  1.00  0.00     0.253 C 
HETATM    2  N   UNL     1     -42.150  56.322 -56.217  1.00  0.00    -0.358 N 
HETATM    3  O   UNL     1     -43.222  55.062 -57.809  1.00  0.00    -0.271 OA
HETATM    4  H   UNL     1     -42.194  57.187 -55.687  1.00  0.00     0.162 HD
ENDROOT
BRANCH   2   5
HETATM    5  C   UNL     1     -41.492  55.205 -55.522  1.00  0.00     0.141 C 
BRANCH   5   6
HETATM    6  C   UNL     1     -42.030  54.919 -54.058  1.00  0.00     0.026 C 
HETATM    7  C   UNL     1     -43.516  54.471 -54.241  1.00  0.00     0.027 C 
BRANCH   6   8
HETATM    8  C   UNL     1     -41.147  53.787 -53.470  1.00  0.00    -0.044 A 
HETATM    9  C   UNL     1     -40.628  52.790 -54.321  1.00  0.00     0.008 A 
HETATM   10  C   UNL     1     -39.847  51.741 -53.825  1.00  0.00     0.001 A 
HETATM   11  C   UNL     1     -39.563  51.666 -52.467  1.00  0.00     0.000 A 
HETATM   12  C   UNL     1     -40.056  52.640 -51.606  1.00  0.00     0.001 A 
HETATM   13  C   UNL     1     -40.840  53.687 -52.101  1.00  0.00     0.008 A 
ENDBRANCH   6   8
BRANCH   6  14
HETATM   14  C   UNL     1     -42.007  56.150 -53.110  1.00  0.00    -0.044 A 
HETATM   15  C   UNL     1     -40.936  57.066 -53.148  1.00  0.00     0.008 A 
HETATM   16  C   UNL     1     -40.906  58.200 -52.327  1.00  0.00     0.001 A 
HETATM   17  C   UNL     1     -41.959  58.462 -51.462  1.00  0.00     0.000 A 
HETATM   18  C   UNL     1     -43.049  57.600 -51.430  1.00  0.00     0.001 A 
HETATM   19  C   UNL     1     -43.074  56.466 -52.250  1.00  0.00     0.008 A 
ENDBRANCH   6  14
ENDBRANCH   5   6
ENDBRANCH   2   5
BRANCH   1  20
HETATM   20  C   UNL     1     -43.491  57.432 -58.004  1.00  0.00     0.311 C 
BRANCH  20  21
HETATM   21  C   UNL     1     -44.894  57.828 -57.675  1.00  0.00     0.031 A 
HETATM   22  C   UNL     1     -45.486  58.200 -56.472  1.00  0.00     0.035 A 
HETATM   23  C   UNL     1     -44.996  58.343 -55.079  1.00  0.00     0.070 C 
HETATM   24  N   UNL     1     -46.800  58.469 -56.766  1.00  0.00    -0.282 N 
HETATM   25  H   UNL     1     -47.545  58.769 -56.140  1.00  0.00     0.189 HD
HETATM   26  N   UNL     1     -47.096  58.299 -58.054  1.00  0.00    -0.179 NA
HETATM   27  C   UNL     1     -45.957  57.914 -58.626  1.00  0.00     0.061 A 
HETATM   28  C   UNL     1     -45.926  57.652 -60.091  1.00  0.00     0.073 C 
ENDBRANCH  20  21
BRANCH  20  29
HETATM   29  N   UNL     1     -42.498  58.525 -57.774  1.00  0.00    -0.062 N 
HETATM   30  H   UNL     1     -42.107  58.854 -58.662  1.00  0.00     0.275 HD
HETATM   31  H   UNL     1     -42.980  59.328 -57.346  1.00  0.00     0.275 HD
HETATM   32  H   UNL     1     -41.742  58.216 -57.156  1.00  0.00     0.275 HD
ENDBRANCH  20  29
ENDBRANCH   1  20
TORSDOF 7
ENDMDL
MODEL 8
REMARK VINA RESULT:      -7.8      1.928      4.212
REMARK  7 active torsions:
REMARK  status: ('A' for Active; 'I' for Inactive)
REMARK    1  A    between atoms: C_8  and  C_9 
REMARK    2  A    between atoms: C_9  and  N_10 
REMARK    3  A    between atoms: C_9  and  C_14 
REMARK       I    between atoms: C_14  and  N_15 
REMARK    4  A    between atoms: N_15  and  C_16 
REMARK    5  A    between atoms: C_16  and  C_17 
REMARK    6  A    between atoms: C_17  and  C_18 
REMARK    7  A    between atoms: C_17  and  C_24 
ROOT
HETATM    1  C   UNL     1     -41.112  57.590 -54.332  1.00  0.00     0.253 C 
HETATM    2  N   UNL     1     -41.216  56.331 -54.883  1.00  0.00    -0.358 N 
HETATM    3  O   UNL     1     -40.540  57.817 -53.268  1.00  0.00    -0.271 OA
HETATM    4  H   UNL     1     -41.478  56.244 -55.860  1.00  0.00     0.162 HD
ENDROOT
BRANCH   2   5
HETATM    5  C   UNL     1     -40.577  55.140 -54.306  1.00  0.00     0.141 C 
BRANCH   5   6
HETATM    6  C   UNL     1     -41.579  54.073 -53.696  1.00  0.00     0.026 C 
HETATM    7  C   UNL     1     -42.720  53.923 -54.753  1.00  0.00     0.027 C 
BRANCH   6   8
HETATM    8  C   UNL     1     -40.776  52.758 -53.513  1.00  0.00    -0.044 A 
HETATM    9  C   UNL     1     -40.792  51.780 -54.529  1.00  0.00     0.008 A 
HETATM   10  C   UNL     1     -40.099  50.574 -54.390  1.00  0.00     0.001 A 
HETATM   11  C   UNL     1     -39.370  50.316 -53.235  1.00  0.00     0.000 A 
HETATM   12  C   UNL     1     -39.332  51.267 -52.220  1.00  0.00     0.001 A 
HETATM   13  C   UNL     1     -40.028  52.473 -52.356  1.00  0.00     0.008 A 
ENDBRANCH   6   8
BRANCH   6  14
HETATM   14  C   UNL     1     -42.222  54.490 -52.343  1.00  0.00    -0.044 A 
HETATM   15  C   UNL     1     -43.469  53.962 -51.949  1.00  0.00     0.008 A 
HETATM   16  C   UNL     1     -44.055  54.295 -50.723  1.00  0.00     0.001 A 
HETATM   17  C   UNL     1     -43.399  55.147 -49.845  1.00  0.00     0.000 A 
HETATM   18  C   UNL     1     -42.150  55.652 -50.187  1.00  0.00     0.001 A 
HETATM   19  C   UNL     1     -41.568  55.318 -51.415  1.00  0.00     0.008 A 
ENDBRANCH   6  14
ENDBRANCH   5   6
ENDBRANCH   2   5
BRANCH   1  20
HETATM   20  C   UNL     1     -41.963  58.710 -54.972  1.00  0.00     0.311 C 
BRANCH  20  21
HETATM   21  C   UNL     1     -43.358  58.306 -55.331  1.00  0.00     0.031 A 
HETATM   22  C   UNL     1     -44.385  57.770 -54.561  1.00  0.00     0.035 A 
HETATM   23  C   UNL     1     -44.517  57.386 -53.134  1.00  0.00     0.070 C 
HETATM   24  N   UNL     1     -45.449  57.609 -55.413  1.00  0.00    -0.282 N 
HETATM   25  H   UNL     1     -46.377  57.241 -55.213  1.00  0.00     0.189 HD
HETATM   26  N   UNL     1     -45.186  57.995 -56.661  1.00  0.00    -0.179 NA
HETATM   27  C   UNL     1     -43.927  58.424 -56.636  1.00  0.00     0.061 A 
HETATM   28  C   UNL     1     -43.309  58.955 -57.882  1.00  0.00     0.073 C 
ENDBRANCH  20  21
BRANCH  20  29
HETATM   29  N   UNL     1     -41.905  59.919 -54.096  1.00  0.00    -0.062 N 
HETATM   30  H   UNL     1     -42.845  60.289 -53.924  1.00  0.00     0.275 HD
HETATM   31  H   UNL     1     -41.520  59.649 -53.180  1.00  0.00     0.275 HD
HETATM   32  H   UNL     1     -41.317  60.649 -54.510  1.00  0.00     0.275 HD
ENDBRANCH  20  29
ENDBRANCH   1  20
TORSDOF 7
ENDMDL
MODEL 9
REMARK VINA RESULT:      -7.7      3.079      6.537
REMARK  7 active torsions:
REMARK  status: ('A' for Active; 'I' for Inactive)
REMARK    1  A    between atoms: C_8  and  C_9 
REMARK    2  A    between atoms: C_9  and  N_10 
REMARK    3  A    between atoms: C_9  and  C_14 
REMARK       I    between atoms: C_14  and  N_15 
REMARK    4  A    between atoms: N_15  and  C_16 
REMARK    5  A    between atoms: C_16  and  C_17 
REMARK    6  A    between atoms: C_17  and  C_18 
REMARK    7  A    between atoms: C_17  and  C_24 
ROOT
HETATM    1  C   UNL     1     -41.657  59.300 -53.189  1.00  0.00     0.253 C 
HETATM    2  N   UNL     1     -42.558  58.903 -54.153  1.00  0.00    -0.358 N 
HETATM    3  O   UNL     1     -40.438  59.278 -53.353  1.00  0.00    -0.271 OA
HETATM    4  H   UNL     1     -43.532  59.170 -54.053  1.00  0.00     0.162 HD
ENDROOT
BRANCH   2   5
HETATM    5  C   UNL     1     -42.164  58.497 -55.510  1.00  0.00     0.141 C 
BRANCH   5   6
HETATM    6  C   UNL     1     -42.833  57.155 -56.026  1.00  0.00     0.026 C 
HETATM    7  C   UNL     1     -44.337  57.255 -55.613  1.00  0.00     0.027 C 
BRANCH   6   8
HETATM    8  C   UNL     1     -42.651  57.129 -57.567  1.00  0.00    -0.044 A 
HETATM    9  C   UNL     1     -43.055  55.994 -58.301  1.00  0.00     0.008 A 
HETATM   10  C   UNL     1     -42.886  55.924 -59.687  1.00  0.00     0.001 A 
HETATM   11  C   UNL     1     -42.314  56.988 -60.374  1.00  0.00     0.000 A 
HETATM   12  C   UNL     1     -41.913  58.122 -59.676  1.00  0.00     0.001 A 
HETATM   13  C   UNL     1     -42.078  58.192 -58.289  1.00  0.00     0.008 A 
ENDBRANCH   6   8
BRANCH   6  14
HETATM   14  C   UNL     1     -42.244  55.858 -55.404  1.00  0.00    -0.044 A 
HETATM   15  C   UNL     1     -40.880  55.787 -55.054  1.00  0.00     0.008 A 
HETATM   16  C   UNL     1     -40.330  54.642 -54.464  1.00  0.00     0.001 A 
HETATM   17  C   UNL     1     -41.135  53.546 -54.185  1.00  0.00     0.000 A 
HETATM   18  C   UNL     1     -42.492  53.602 -54.482  1.00  0.00     0.001 A 
HETATM   19  C   UNL     1     -43.038  54.746 -55.074  1.00  0.00     0.008 A 
ENDBRANCH   6  14
ENDBRANCH   5   6
ENDBRANCH   2   5
BRANCH   1  20
HETATM   20  C   UNL     1     -42.211  59.552 -51.769  1.00  0.00     0.311 C 
BRANCH  20  21
HETATM   21  C   UNL     1     -43.318  58.634 -51.360  1.00  0.00     0.031 A 
HETATM   22  C   UNL     1     -43.364  57.249 -51.235  1.00  0.00     0.035 A 
HETATM   23  C   UNL     1     -42.384  56.158 -51.453  1.00  0.00     0.070 C 
HETATM   24  N   UNL     1     -44.637  56.952 -50.813  1.00  0.00    -0.282 N 
HETATM   25  H   UNL     1     -45.046  56.041 -50.614  1.00  0.00     0.189 HD
HETATM   26  N   UNL     1     -45.405  58.029 -50.660  1.00  0.00    -0.179 NA
HETATM   27  C   UNL     1     -44.628  59.061 -50.982  1.00  0.00     0.061 A 
HETATM   28  C   UNL     1     -45.175  60.443 -50.900  1.00  0.00     0.073 C 
ENDBRANCH  20  21
BRANCH  20  29
HETATM   29  N   UNL     1     -41.071  59.570 -50.803  1.00  0.00    -0.062 N 
HETATM   30  H   UNL     1     -41.305  60.126 -49.975  1.00  0.00     0.275 HD
HETATM   31  H   UNL     1     -40.897  58.610 -50.476  1.00  0.00     0.275 HD
HETATM   32  H   UNL     1     -40.221  59.940 -51.239  1.00  0.00     0.275 HD
ENDBRANCH  20  29
ENDBRANCH   1  20
TORSDOF 7
ENDMDL
MODEL 10
REMARK VINA RESULT:      -7.7      2.181      5.057
REMARK  7 active torsions:
REMARK  status: ('A' for Active; 'I' for Inactive)
REMARK    1  A    between atoms: C_8  and  C_9 
REMARK    2  A    between atoms: C_9  and  N_10 
REMARK    3  A    between atoms: C_9  and  C_14 
REMARK       I    between atoms: C_14  and  N_15 
REMARK    4  A    between atoms: N_15  and  C_16 
REMARK    5  A    between atoms: C_16  and  C_17 
REMARK    6  A    between atoms: C_17  and  C_18 
REMARK    7  A    between atoms: C_17  and  C_24 
ROOT
HETATM    1  C   UNL     1     -44.530  57.221 -53.379  1.00  0.00     0.253 C 
HETATM    2  N   UNL     1     -43.983  56.012 -53.748  1.00  0.00    -0.358 N 
HETATM    3  O   UNL     1     -44.950  57.457 -52.248  1.00  0.00    -0.271 OA
HETATM    4  H   UNL     1     -43.441  55.960 -54.605  1.00  0.00     0.162 HD
ENDROOT
BRANCH   2   5
HETATM    5  C   UNL     1     -43.758  54.905 -52.807  1.00  0.00     0.141 C 
BRANCH   5   6
HETATM    6  C   UNL     1     -42.407  54.994 -51.982  1.00  0.00     0.026 C 
HETATM    7  C   UNL     1     -42.816  54.783 -50.489  1.00  0.00     0.027 C 
BRANCH   6   8
HETATM    8  C   UNL     1     -41.489  53.856 -52.502  1.00  0.00    -0.044 A 
HETATM    9  C   UNL     1     -40.551  53.260 -51.634  1.00  0.00     0.008 A 
HETATM   10  C   UNL     1     -39.692  52.249 -52.073  1.00  0.00     0.001 A 
HETATM   11  C   UNL     1     -39.751  51.805 -53.389  1.00  0.00     0.000 A 
HETATM   12  C   UNL     1     -40.672  52.370 -54.264  1.00  0.00     0.001 A 
HETATM   13  C   UNL     1     -41.530  53.385 -53.827  1.00  0.00     0.008 A 
ENDBRANCH   6   8
BRANCH   6  14
HETATM   14  C   UNL     1     -41.669  56.358 -52.094  1.00  0.00    -0.044 A 
HETATM   15  C   UNL     1     -41.577  57.218 -50.980  1.00  0.00     0.008 A 
HETATM   16  C   UNL     1     -40.891  58.437 -51.045  1.00  0.00     0.001 A 
HETATM   17  C   UNL     1     -40.258  58.819 -52.220  1.00  0.00     0.000 A 
HETATM   18  C   UNL     1     -40.296  57.974 -53.323  1.00  0.00     0.001 A 
HETATM   19  C   UNL     1     -40.984  56.757 -53.255  1.00  0.00     0.008 A 
ENDBRANCH   6  14
ENDBRANCH   5   6
ENDBRANCH   2   5
BRANCH   1  20
HETATM   20  C   UNL     1     -44.841  58.227 -54.511  1.00  0.00     0.311 C 
BRANCH  20  21
HETATM   21  C   UNL     1     -43.638  58.745 -55.233  1.00  0.00     0.031 A 
HETATM   22  C   UNL     1     -42.956  58.262 -56.345  1.00  0.00     0.035 A 
HETATM   23  C   UNL     1     -43.124  57.085 -57.231  1.00  0.00     0.070 C 
HETATM   24  N   UNL     1     -41.933  59.150 -56.574  1.00  0.00    -0.282 N 
HETATM   25  H   UNL     1     -41.222  59.129 -57.301  1.00  0.00     0.189 HD
HETATM   26  N   UNL     1     -41.906  60.156 -55.701  1.00  0.00    -0.179 NA
HETATM   27  C   UNL     1     -42.930  59.935 -54.880  1.00  0.00     0.061 A 
HETATM   28  C   UNL     1     -43.207  60.897 -53.778  1.00  0.00     0.073 C 
ENDBRANCH  20  21
BRANCH  20  29
HETATM   29  N   UNL     1     -45.863  57.627 -55.421  1.00  0.00    -0.062 N 
HETATM   30  H   UNL     1     -46.372  56.873 -54.950  1.00  0.00     0.275 HD
HETATM   31  H   UNL     1     -46.557  58.348 -55.663  1.00  0.00     0.275 HD
HETATM   32  H   UNL     1     -45.432  57.270 -56.280  1.00  0.00     0.275 HD
ENDBRANCH  20  29
ENDBRANCH   1  20
TORSDOF 7
ENDMDL
