MODEL 1
REMARK VINA RESULT:      -8.2      0.000      0.000
REMARK  5 active torsions:
REMARK  status: ('A' for Active; 'I' for Inactive)
REMARK    1  A    between atoms: C_2  and  C_3 
REMARK    2  A    between atoms: C_7  and  N_8 
REMARK    3  A    between atoms: C_13  and  N_14 
REMARK       I    between atoms: N_14  and  C_15 
REMARK    4  A    between atoms: C_15  and  C_16 
REMARK       I    between atoms: C_16  and  N_17 
REMARK    5  A    between atoms: N_17  and  C_18 
ROOT
HETATM    1  N   UNL     1     -41.662  55.918 -50.732  1.00  0.00    -0.045 N 
HETATM    2  N   UNL     1     -41.536  55.645 -49.401  1.00  0.00    -0.156 NA
HETATM    3  C   UNL     1     -40.792  54.535 -49.361  1.00  0.00     0.055 A 
HETATM    4  C   UNL     1     -40.437  53.906 -48.063  1.00  0.00     0.072 C 
HETATM    5  C   UNL     1     -40.430  54.096 -50.655  1.00  0.00     0.079 A 
HETATM    6  C   UNL     1     -41.000  54.995 -51.527  1.00  0.00     0.152 A 
ENDROOT
BRANCH   6   7
HETATM    7  N   UNL     1     -40.955  55.004 -52.919  1.00  0.00    -0.303 N 
HETATM    8  C   UNL     1     -42.074  54.708 -53.761  1.00  0.00     0.315 C 
HETATM    9  O   UNL     1     -43.162  54.358 -53.331  1.00  0.00    -0.262 OA
HETATM   10  H   UNL     1     -40.065  55.237 -53.375  1.00  0.00     0.171 HD
BRANCH   8  11
HETATM   11  C   UNL     1     -41.826  54.860 -55.273  1.00  0.00     0.310 C 
HETATM   12  N   UNL     1     -42.745  55.668 -55.910  1.00  0.00    -0.348 N 
HETATM   13  H   UNL     1     -43.529  56.007 -55.355  1.00  0.00     0.163 HD
HETATM   14  O   UNL     1     -40.869  54.290 -55.775  1.00  0.00    -0.262 OA
BRANCH  12  15
HETATM   15  C   UNL     1     -42.726  55.968 -57.337  1.00  0.00     0.085 C 
HETATM   16  C   UNL     1     -43.075  57.450 -57.541  1.00  0.00     0.034 C 
HETATM   17  C   UNL     1     -43.191  57.874 -59.021  1.00  0.00    -0.045 C 
HETATM   18  C   UNL     1     -41.803  57.900 -59.687  1.00  0.00     0.015 C 
HETATM   19  C   UNL     1     -43.774  59.299 -59.085  1.00  0.00     0.015 C 
HETATM   20  C   UNL     1     -44.141  56.911 -59.769  1.00  0.00     0.013 C 
HETATM   21  C   UNL     1     -43.780  55.429 -59.587  1.00  0.00    -0.016 C 
HETATM   22  C   UNL     1     -44.798  54.542 -60.304  1.00  0.00     0.010 C 
HETATM   23  C   UNL     1     -43.699  55.062 -58.098  1.00  0.00     0.029 C 
ENDBRANCH  12  15
ENDBRANCH   8  11
ENDBRANCH   6   7
BRANCH   1  24
HETATM   24  C   UNL     1     -42.391  57.037 -51.154  1.00  0.00     0.732 A 
HETATM   25  N   UNL     1     -43.700  56.955 -50.786  1.00  0.00    -0.152 N 
HETATM   26  C   UNL     1     -44.582  57.944 -51.076  1.00  0.00     0.268 A 
HETATM   27  H   UNL     1     -44.032  56.147 -50.268  1.00  0.00     0.188 HD
HETATM   28  C   UNL     1     -44.017  59.098 -51.833  1.00  0.00     0.035 A 
HETATM   29  O   UNL     1     -45.755  57.885 -50.733  1.00  0.00    -0.267 OA
HETATM   30  C   UNL     1     -42.703  59.057 -52.152  1.00  0.00     0.061 A 
HETATM   31  N   UNL     1     -41.855  58.016 -51.809  1.00  0.00    -0.067 NA
HETATM   32  C   UNL     1     -42.008  60.167 -52.900  1.00  0.00     0.072 C 
BRANCH  28  33
HETATM   33  C   UNL     1     -45.003  60.177 -52.200  1.00  0.00     0.042 C 
HETATM   34  C   UNL     1     -45.528  60.012 -53.620  1.00  0.00     0.010 C 
ENDBRANCH  28  33
ENDBRANCH   1  24
TORSDOF 5
ENDMDL
MODEL 2
REMARK VINA RESULT:      -8.1      2.489      3.655
REMARK  5 active torsions:
REMARK  status: ('A' for Active; 'I' for Inactive)
REMARK    1  A    between atoms: C_2  and  C_3 
REMARK    2  A    between atoms: C_7  and  N_8 
REMARK    3  A    between atoms: C_13  and  N_14 
REMARK       I    between atoms: N_14  and  C_15 
REMARK    4  A    between atoms: C_15  and  C_16 
REMARK       I    between atoms: C_16  and  N_17 
REMARK    5  A    between atoms: N_17  and  C_18 
ROOT
HETATM    1  N   UNL     1     -40.988  54.785 -53.408  1.00  0.00    -0.045 N 
HETATM    2  N   UNL     1     -40.483  53.891 -52.510  1.00  0.00    -0.156 NA
HETATM    3  C   UNL     1     -40.111  52.847 -53.258  1.00  0.00     0.055 A 
HETATM    4  C   UNL     1     -39.511  51.641 -52.633  1.00  0.00     0.072 C 
HETATM    5  C   UNL     1     -40.364  53.066 -54.631  1.00  0.00     0.079 A 
HETATM    6  C   UNL     1     -40.932  54.317 -54.712  1.00  0.00     0.152 A 
ENDROOT
BRANCH   6   7
HETATM    7  N   UNL     1     -41.379  54.999 -55.841  1.00  0.00    -0.303 N 
HETATM    8  C   UNL     1     -42.732  54.982 -56.306  1.00  0.00     0.315 C 
HETATM    9  O   UNL     1     -43.611  54.313 -55.785  1.00  0.00    -0.262 OA
HETATM   10  H   UNL     1     -40.698  55.549 -56.377  1.00  0.00     0.171 HD
BRANCH   8  11
HETATM   11  C   UNL     1     -43.027  55.874 -57.526  1.00  0.00     0.310 C 
HETATM   12  N   UNL     1     -42.845  57.221 -57.288  1.00  0.00    -0.348 N 
HETATM   13  H   UNL     1     -42.626  57.498 -56.334  1.00  0.00     0.163 HD
HETATM   14  O   UNL     1     -43.373  55.348 -58.573  1.00  0.00    -0.262 OA
BRANCH  12  15
HETATM   15  C   UNL     1     -43.058  58.266 -58.282  1.00  0.00     0.085 C 
HETATM   16  C   UNL     1     -41.935  59.307 -58.161  1.00  0.00     0.034 C 
HETATM   17  C   UNL     1     -42.101  60.527 -59.092  1.00  0.00    -0.045 C 
HETATM   18  C   UNL     1     -41.850  60.127 -60.559  1.00  0.00     0.015 C 
HETATM   19  C   UNL     1     -41.056  61.592 -58.707  1.00  0.00     0.015 C 
HETATM   20  C   UNL     1     -43.514  61.128 -58.921  1.00  0.00     0.013 C 
HETATM   21  C   UNL     1     -44.642  60.095 -59.065  1.00  0.00    -0.016 C 
HETATM   22  C   UNL     1     -46.000  60.753 -58.823  1.00  0.00     0.010 C 
HETATM   23  C   UNL     1     -44.434  58.918 -58.102  1.00  0.00     0.029 C 
ENDBRANCH  12  15
ENDBRANCH   8  11
ENDBRANCH   6   7
BRANCH   1  24
HETATM   24  C   UNL     1     -41.479  56.022 -52.968  1.00  0.00     0.732 A 
HETATM   25  N   UNL     1     -40.644  57.044 -53.304  1.00  0.00    -0.152 N 
HETATM   26  C   UNL     1     -40.938  58.331 -52.993  1.00  0.00     0.268 A 
HETATM   27  H   UNL     1     -39.786  56.853 -53.813  1.00  0.00     0.188 HD
HETATM   28  C   UNL     1     -42.216  58.531 -52.251  1.00  0.00     0.035 A 
HETATM   29  O   UNL     1     -40.201  59.257 -53.307  1.00  0.00    -0.267 OA
HETATM   30  C   UNL     1     -42.953  57.433 -51.965  1.00  0.00     0.061 A 
HETATM   31  N   UNL     1     -42.597  56.145 -52.328  1.00  0.00    -0.067 NA
HETATM   32  C   UNL     1     -44.272  57.501 -51.236  1.00  0.00     0.072 C 
BRANCH  28  33
HETATM   33  C   UNL     1     -42.524  59.954 -51.861  1.00  0.00     0.042 C 
HETATM   34  C   UNL     1     -41.944  60.310 -50.499  1.00  0.00     0.010 C 
ENDBRANCH  28  33
ENDBRANCH   1  24
TORSDOF 5
ENDMDL
MODEL 3
REMARK VINA RESULT:      -7.9      2.327      4.684
REMARK  5 active torsions:
REMARK  status: ('A' for Active; 'I' for Inactive)
REMARK    1  A    between atoms: C_2  and  C_3 
REMARK    2  A    between atoms: C_7  and  N_8 
REMARK    3  A    between atoms: C_13  and  N_14 
REMARK       I    between atoms: N_14  and  C_15 
REMARK    4  A    between atoms: C_15  and  C_16 
REMARK       I    between atoms: C_16  and  N_17 
REMARK    5  A    between atoms: N_17  and  C_18 
ROOT
HETATM    1  N   UNL     1     -44.075  58.796 -51.694  1.00  0.00    -0.045 N 
HETATM    2  N   UNL     1     -44.570  59.212 -50.493  1.00  0.00    -0.156 NA
HETATM    3  C   UNL     1     -44.969  60.469 -50.718  1.00  0.00     0.055 A 
HETATM    4  C   UNL     1     -45.567  61.282 -49.630  1.00  0.00     0.072 C 
HETATM    5  C   UNL     1     -44.742  60.860 -52.057  1.00  0.00     0.079 A 
HETATM    6  C   UNL     1     -44.164  59.774 -52.672  1.00  0.00     0.152 A 
ENDROOT
BRANCH   6   7
HETATM    7  N   UNL     1     -43.733  59.647 -53.991  1.00  0.00    -0.303 N 
HETATM    8  C   UNL     1     -42.365  59.738 -54.401  1.00  0.00     0.315 C 
HETATM    9  O   UNL     1     -41.451  59.997 -53.635  1.00  0.00    -0.262 OA
HETATM   10  H   UNL     1     -44.438  59.478 -54.718  1.00  0.00     0.171 HD
BRANCH   8  11
HETATM   11  C   UNL     1     -42.103  59.482 -55.897  1.00  0.00     0.310 C 
HETATM   12  N   UNL     1     -42.747  58.368 -56.394  1.00  0.00    -0.348 N 
HETATM   13  H   UNL     1     -43.249  57.786 -55.727  1.00  0.00     0.163 HD
HETATM   14  O   UNL     1     -41.385  60.257 -56.512  1.00  0.00    -0.262 OA
BRANCH  12  15
HETATM   15  C   UNL     1     -42.658  57.916 -57.778  1.00  0.00     0.085 C 
HETATM   16  C   UNL     1     -43.283  58.981 -58.692  1.00  0.00     0.034 C 
HETATM   17  C   UNL     1     -43.346  58.577 -60.180  1.00  0.00    -0.045 C 
HETATM   18  C   UNL     1     -41.937  58.579 -60.802  1.00  0.00     0.015 C 
HETATM   19  C   UNL     1     -44.200  59.611 -60.940  1.00  0.00     0.015 C 
HETATM   20  C   UNL     1     -44.005  57.186 -60.319  1.00  0.00     0.013 C 
HETATM   21  C   UNL     1     -43.366  56.113 -59.424  1.00  0.00    -0.016 C 
HETATM   22  C   UNL     1     -44.111  54.786 -59.572  1.00  0.00     0.010 C 
HETATM   23  C   UNL     1     -43.350  56.561 -57.956  1.00  0.00     0.029 C 
ENDBRANCH  12  15
ENDBRANCH   8  11
ENDBRANCH   6   7
BRANCH   1  24
HETATM   24  C   UNL     1     -43.563  57.498 -51.831  1.00  0.00     0.732 A 
HETATM   25  N   UNL     1     -42.886  57.103 -50.718  1.00  0.00    -0.152 N 
HETATM   26  C   UNL     1     -42.325  55.871 -50.629  1.00  0.00     0.268 A 
HETATM   27  H   UNL     1     -42.805  57.730 -49.923  1.00  0.00     0.188 HD
HETATM   28  C   UNL     1     -42.490  55.008 -51.834  1.00  0.00     0.035 A 
HETATM   29  O   UNL     1     -41.730  55.503 -49.625  1.00  0.00    -0.267 OA
HETATM   30  C   UNL     1     -43.174  55.520 -52.883  1.00  0.00     0.061 A 
HETATM   31  N   UNL     1     -43.734  56.787 -52.898  1.00  0.00    -0.067 NA
HETATM   32  C   UNL     1     -43.425  54.744 -54.152  1.00  0.00     0.072 C 
BRANCH  28  33
HETATM   33  C   UNL     1     -41.828  53.656 -51.758  1.00  0.00     0.042 C 
HETATM   34  C   UNL     1     -40.443  53.664 -52.392  1.00  0.00     0.010 C 
ENDBRANCH  28  33
ENDBRANCH   1  24
TORSDOF 5
ENDMDL
MODEL 4
REMARK VINA RESULT:      -7.9      2.504      3.499
REMARK  5 active torsions:
REMARK  status: ('A' for Active; 'I' for Inactive)
REMARK    1  A    between atoms: C_2  and  C_3 
REMARK    2  A    between atoms: C_7  and  N_8 
REMARK    3  A    between atoms: C_13  and  N_14 
REMARK       I    between atoms: N_14  and  C_15 
REMARK    4  A    between atoms: C_15  and  C_16 
REMARK       I    between atoms: C_16  and  N_17 
REMARK    5  A    between atoms: N_17  and  C_18 
ROOT
HETATM    1  N   UNL     1     -40.987  54.808 -53.474  1.00  0.00    -0.045 N 
HETATM    2  N   UNL     1     -40.516  53.848 -52.628  1.00  0.00    -0.156 NA
HETATM    3  C   UNL     1     -40.174  52.837 -53.435  1.00  0.00     0.055 A 
HETATM    4  C   UNL     1     -39.618  51.578 -52.880  1.00  0.00     0.072 C 
HETATM    5  C   UNL     1     -40.413  53.144 -54.794  1.00  0.00     0.079 A 
HETATM    6  C   UNL     1     -40.939  54.416 -54.803  1.00  0.00     0.152 A 
ENDROOT
BRANCH   6   7
HETATM    7  N   UNL     1     -41.358  55.176 -55.892  1.00  0.00    -0.303 N 
HETATM    8  C   UNL     1     -42.718  55.281 -56.323  1.00  0.00     0.315 C 
HETATM    9  O   UNL     1     -43.634  54.659 -55.808  1.00  0.00    -0.262 OA
HETATM   10  H   UNL     1     -40.649  55.696 -56.422  1.00  0.00     0.171 HD
BRANCH   8  11
HETATM   11  C   UNL     1     -42.970  56.244 -57.498  1.00  0.00     0.310 C 
HETATM   12  N   UNL     1     -44.238  56.149 -58.034  1.00  0.00    -0.348 N 
HETATM   13  H   UNL     1     -44.841  55.413 -57.673  1.00  0.00     0.163 HD
HETATM   14  O   UNL     1     -42.074  56.998 -57.847  1.00  0.00    -0.262 OA
BRANCH  12  15
HETATM   15  C   UNL     1     -44.719  56.953 -59.151  1.00  0.00     0.085 C 
HETATM   16  C   UNL     1     -44.956  58.392 -58.666  1.00  0.00     0.034 C 
HETATM   17  C   UNL     1     -45.568  59.326 -59.732  1.00  0.00    -0.045 C 
HETATM   18  C   UNL     1     -44.534  59.649 -60.827  1.00  0.00     0.015 C 
HETATM   19  C   UNL     1     -45.973  60.650 -59.057  1.00  0.00     0.015 C 
HETATM   20  C   UNL     1     -46.827  58.670 -60.342  1.00  0.00     0.013 C 
HETATM   21  C   UNL     1     -46.589  57.240 -60.851  1.00  0.00    -0.016 C 
HETATM   22  C   UNL     1     -47.891  56.640 -61.381  1.00  0.00     0.010 C 
HETATM   23  C   UNL     1     -45.999  56.354 -59.743  1.00  0.00     0.029 C 
ENDBRANCH  12  15
ENDBRANCH   8  11
ENDBRANCH   6   7
BRANCH   1  24
HETATM   24  C   UNL     1     -41.439  56.033 -52.965  1.00  0.00     0.732 A 
HETATM   25  N   UNL     1     -40.604  57.056 -53.296  1.00  0.00    -0.152 N 
HETATM   26  C   UNL     1     -40.865  58.334 -52.921  1.00  0.00     0.268 A 
HETATM   27  H   UNL     1     -39.772  56.875 -53.849  1.00  0.00     0.188 HD
HETATM   28  C   UNL     1     -42.107  58.521 -52.117  1.00  0.00     0.035 A 
HETATM   29  O   UNL     1     -40.128  59.261 -53.230  1.00  0.00    -0.267 OA
HETATM   30  C   UNL     1     -42.847  57.422 -51.843  1.00  0.00     0.061 A 
HETATM   31  N   UNL     1     -42.526  56.145 -52.272  1.00  0.00    -0.067 NA
HETATM   32  C   UNL     1     -44.132  57.478 -51.054  1.00  0.00     0.072 C 
BRANCH  28  33
HETATM   33  C   UNL     1     -42.376  59.931 -51.658  1.00  0.00     0.042 C 
HETATM   34  C   UNL     1     -41.622  60.267 -50.378  1.00  0.00     0.010 C 
ENDBRANCH  28  33
ENDBRANCH   1  24
TORSDOF 5
ENDMDL
MODEL 5
REMARK VINA RESULT:      -7.7      2.176      4.918
REMARK  5 active torsions:
REMARK  status: ('A' for Active; 'I' for Inactive)
REMARK    1  A    between atoms: C_2  and  C_3 
REMARK    2  A    between atoms: C_7  and  N_8 
REMARK    3  A    between atoms: C_13  and  N_14 
REMARK       I    between atoms: N_14  and  C_15 
REMARK    4  A    between atoms: C_15  and  C_16 
REMARK       I    between atoms: C_16  and  N_17 
REMARK    5  A    between atoms: N_17  and  C_18 
ROOT
HETATM    1  N   UNL     1     -41.257  57.188 -52.017  1.00  0.00    -0.045 N 
HETATM    2  N   UNL     1     -40.688  57.554 -50.833  1.00  0.00    -0.156 NA
HETATM    3  C   UNL     1     -41.066  58.826 -50.664  1.00  0.00     0.055 A 
HETATM    4  C   UNL     1     -40.631  59.595 -49.471  1.00  0.00     0.072 C 
HETATM    5  C   UNL     1     -41.882  59.277 -51.726  1.00  0.00     0.079 A 
HETATM    6  C   UNL     1     -41.994  58.213 -52.591  1.00  0.00     0.152 A 
ENDROOT
BRANCH   6   7
HETATM    7  N   UNL     1     -42.681  58.143 -53.800  1.00  0.00    -0.303 N 
HETATM    8  C   UNL     1     -44.062  57.789 -53.920  1.00  0.00     0.315 C 
HETATM    9  O   UNL     1     -44.753  57.454 -52.970  1.00  0.00    -0.262 OA
HETATM   10  H   UNL     1     -42.168  58.359 -54.663  1.00  0.00     0.171 HD
BRANCH   8  11
HETATM   11  C   UNL     1     -44.644  57.858 -55.344  1.00  0.00     0.310 C 
HETATM   12  N   UNL     1     -43.687  57.906 -56.335  1.00  0.00    -0.348 N 
HETATM   13  H   UNL     1     -42.715  57.979 -56.040  1.00  0.00     0.163 HD
HETATM   14  O   UNL     1     -45.858  57.852 -55.487  1.00  0.00    -0.262 OA
BRANCH  12  15
HETATM   15  C   UNL     1     -43.984  57.974 -57.762  1.00  0.00     0.085 C 
HETATM   16  C   UNL     1     -44.170  56.548 -58.302  1.00  0.00     0.034 C 
HETATM   17  C   UNL     1     -44.389  56.474 -59.828  1.00  0.00    -0.045 C 
HETATM   18  C   UNL     1     -45.781  57.016 -60.203  1.00  0.00     0.015 C 
HETATM   19  C   UNL     1     -44.320  54.999 -60.269  1.00  0.00     0.015 C 
HETATM   20  C   UNL     1     -43.277  57.265 -60.556  1.00  0.00     0.013 C 
HETATM   21  C   UNL     1     -43.104  58.700 -60.035  1.00  0.00    -0.016 C 
HETATM   22  C   UNL     1     -41.950  59.392 -60.759  1.00  0.00     0.010 C 
HETATM   23  C   UNL     1     -42.871  58.708 -58.517  1.00  0.00     0.029 C 
ENDBRANCH  12  15
ENDBRANCH   8  11
ENDBRANCH   6   7
BRANCH   1  24
HETATM   24  C   UNL     1     -41.071  55.892 -52.516  1.00  0.00     0.732 A 
HETATM   25  N   UNL     1     -41.166  54.955 -51.532  1.00  0.00    -0.152 N 
HETATM   26  C   UNL     1     -41.039  53.631 -51.800  1.00  0.00     0.268 A 
HETATM   27  H   UNL     1     -41.352  55.239 -50.576  1.00  0.00     0.188 HD
HETATM   28  C   UNL     1     -40.773  53.292 -53.228  1.00  0.00     0.035 A 
HETATM   29  O   UNL     1     -41.141  52.782 -50.924  1.00  0.00    -0.267 OA
HETATM   30  C   UNL     1     -40.688  54.316 -54.109  1.00  0.00     0.061 A 
HETATM   31  N   UNL     1     -40.844  55.649 -53.766  1.00  0.00    -0.067 NA
HETATM   32  C   UNL     1     -40.440  54.106 -55.582  1.00  0.00     0.072 C 
BRANCH  28  33
HETATM   33  C   UNL     1     -40.583  51.827 -53.522  1.00  0.00     0.042 C 
HETATM   34  C   UNL     1     -39.119  51.416 -53.451  1.00  0.00     0.010 C 
ENDBRANCH  28  33
ENDBRANCH   1  24
TORSDOF 5
ENDMDL
MODEL 6
REMARK VINA RESULT:      -7.6      3.510      8.345
REMARK  5 active torsions:
REMARK  status: ('A' for Active; 'I' for Inactive)
REMARK    1  A    between atoms: C_2  and  C_3 
REMARK    2  A    between atoms: C_7  and  N_8 
REMARK    3  A    between atoms: C_13  and  N_14 
REMARK       I    between atoms: N_14  and  C_15 
REMARK    4  A    between atoms: C_15  and  C_16 
REMARK       I    between atoms: C_16  and  N_17 
REMARK    5  A    between atoms: N_17  and  C_18 
ROOT
HETATM    1  N   UNL     1     -44.992  58.601 -59.554  1.00  0.00    -0.045 N 
HETATM    2  N   UNL     1     -45.850  58.851 -60.584  1.00  0.00    -0.156 NA
HETATM    3  C   UNL     1     -46.744  57.859 -60.516  1.00  0.00     0.055 A 
HETATM    4  C   UNL     1     -47.858  57.772 -61.494  1.00  0.00     0.072 C 
HETATM    5  C   UNL     1     -46.473  56.978 -59.445  1.00  0.00     0.079 A 
HETATM    6  C   UNL     1     -45.340  57.467 -58.836  1.00  0.00     0.152 A 
ENDROOT
BRANCH   6   7
HETATM    7  N   UNL     1     -44.651  56.955 -57.739  1.00  0.00    -0.303 N 
HETATM    8  C   UNL     1     -43.450  56.184 -57.833  1.00  0.00     0.315 C 
HETATM    9  O   UNL     1     -42.950  55.850 -58.896  1.00  0.00    -0.262 OA
HETATM   10  H   UNL     1     -45.026  57.141 -56.801  1.00  0.00     0.171 HD
BRANCH   8  11
HETATM   11  C   UNL     1     -42.807  55.790 -56.491  1.00  0.00     0.310 C 
HETATM   12  N   UNL     1     -43.430  54.730 -55.864  1.00  0.00    -0.348 N 
HETATM   13  H   UNL     1     -44.284  54.376 -56.289  1.00  0.00     0.163 HD
HETATM   14  O   UNL     1     -41.827  56.407 -56.101  1.00  0.00    -0.262 OA
BRANCH  12  15
HETATM   15  C   UNL     1     -43.010  54.171 -54.584  1.00  0.00     0.085 C 
HETATM   16  C   UNL     1     -42.855  55.313 -53.567  1.00  0.00     0.034 C 
HETATM   17  C   UNL     1     -42.312  54.866 -52.193  1.00  0.00    -0.045 C 
HETATM   18  C   UNL     1     -43.375  54.056 -51.428  1.00  0.00     0.015 C 
HETATM   19  C   UNL     1     -41.980  56.118 -51.359  1.00  0.00     0.015 C 
HETATM   20  C   UNL     1     -41.022  54.035 -52.384  1.00  0.00     0.013 C 
HETATM   21  C   UNL     1     -41.180  52.878 -53.382  1.00  0.00    -0.016 C 
HETATM   22  C   UNL     1     -39.850  52.147 -53.562  1.00  0.00     0.010 C 
HETATM   23  C   UNL     1     -41.703  53.386 -54.734  1.00  0.00     0.029 C 
ENDBRANCH  12  15
ENDBRANCH   8  11
ENDBRANCH   6   7
BRANCH   1  24
HETATM   24  C   UNL     1     -43.909  59.459 -59.317  1.00  0.00     0.732 A 
HETATM   25  N   UNL     1     -43.277  59.804 -60.473  1.00  0.00    -0.152 N 
HETATM   26  C   UNL     1     -42.213  60.645 -60.475  1.00  0.00     0.268 A 
HETATM   27  H   UNL     1     -43.610  59.442 -61.362  1.00  0.00     0.188 HD
HETATM   28  C   UNL     1     -41.788  61.138 -59.133  1.00  0.00     0.035 A 
HETATM   29  O   UNL     1     -41.651  60.974 -61.512  1.00  0.00    -0.267 OA
HETATM   30  C   UNL     1     -42.490  60.712 -58.058  1.00  0.00     0.061 A 
HETATM   31  N   UNL     1     -43.580  59.860 -58.132  1.00  0.00    -0.067 NA
HETATM   32  C   UNL     1     -42.172  61.149 -56.650  1.00  0.00     0.072 C 
BRANCH  28  33
HETATM   33  C   UNL     1     -40.577  62.035 -59.126  1.00  0.00     0.042 C 
HETATM   34  C   UNL     1     -40.955  63.505 -59.244  1.00  0.00     0.010 C 
ENDBRANCH  28  33
ENDBRANCH   1  24
TORSDOF 5
ENDMDL
MODEL 7
REMARK VINA RESULT:      -7.6      2.056      3.057
REMARK  5 active torsions:
REMARK  status: ('A' for Active; 'I' for Inactive)
REMARK    1  A    between atoms: C_2  and  C_3 
REMARK    2  A    between atoms: C_7  and  N_8 
REMARK    3  A    between atoms: C_13  and  N_14 
REMARK       I    between atoms: N_14  and  C_15 
REMARK    4  A    between atoms: C_15  and  C_16 
REMARK       I    between atoms: C_16  and  N_17 
REMARK    5  A    between atoms: N_17  and  C_18 
ROOT
HETATM    1  N   UNL     1     -41.181  54.782 -53.233  1.00  0.00    -0.045 N 
HETATM    2  N   UNL     1     -40.658  53.863 -52.372  1.00  0.00    -0.156 NA
HETATM    3  C   UNL     1     -40.165  52.908 -53.168  1.00  0.00     0.055 A 
HETATM    4  C   UNL     1     -39.508  51.706 -52.596  1.00  0.00     0.072 C 
HETATM    5  C   UNL     1     -40.358  53.212 -54.535  1.00  0.00     0.079 A 
HETATM    6  C   UNL     1     -41.016  54.420 -54.561  1.00  0.00     0.152 A 
ENDROOT
BRANCH   6   7
HETATM    7  N   UNL     1     -41.452  55.151 -55.664  1.00  0.00    -0.303 N 
HETATM    8  C   UNL     1     -42.718  54.961 -56.303  1.00  0.00     0.315 C 
HETATM    9  O   UNL     1     -43.511  54.092 -55.975  1.00  0.00    -0.262 OA
HETATM   10  H   UNL     1     -40.829  55.872 -56.046  1.00  0.00     0.171 HD
BRANCH   8  11
HETATM   11  C   UNL     1     -43.033  55.934 -57.454  1.00  0.00     0.310 C 
HETATM   12  N   UNL     1     -43.230  57.237 -57.043  1.00  0.00    -0.348 N 
HETATM   13  H   UNL     1     -43.236  57.412 -56.041  1.00  0.00     0.163 HD
HETATM   14  O   UNL     1     -43.072  55.506 -58.598  1.00  0.00    -0.262 OA
BRANCH  12  15
HETATM   15  C   UNL     1     -43.540  58.343 -57.942  1.00  0.00     0.085 C 
HETATM   16  C   UNL     1     -44.934  58.117 -58.549  1.00  0.00     0.034 C 
HETATM   17  C   UNL     1     -45.342  59.169 -59.602  1.00  0.00    -0.045 C 
HETATM   18  C   UNL     1     -45.631  60.524 -58.930  1.00  0.00     0.015 C 
HETATM   19  C   UNL     1     -46.635  58.700 -60.297  1.00  0.00     0.015 C 
HETATM   20  C   UNL     1     -44.227  59.309 -60.663  1.00  0.00     0.013 C 
HETATM   21  C   UNL     1     -42.836  59.559 -60.061  1.00  0.00    -0.016 C 
HETATM   22  C   UNL     1     -41.782  59.624 -61.166  1.00  0.00     0.010 C 
HETATM   23  C   UNL     1     -42.477  58.472 -59.037  1.00  0.00     0.029 C 
ENDBRANCH  12  15
ENDBRANCH   8  11
ENDBRANCH   6   7
BRANCH   1  24
HETATM   24  C   UNL     1     -41.790  55.943 -52.737  1.00  0.00     0.732 A 
HETATM   25  N   UNL     1     -42.868  55.652 -51.957  1.00  0.00    -0.152 N 
HETATM   26  C   UNL     1     -43.594  56.630 -51.357  1.00  0.00     0.268 A 
HETATM   27  H   UNL     1     -43.136  54.685 -51.800  1.00  0.00     0.188 HD
HETATM   28  C   UNL     1     -43.135  58.022 -51.631  1.00  0.00     0.035 A 
HETATM   29  O   UNL     1     -44.553  56.375 -50.641  1.00  0.00    -0.267 OA
HETATM   30  C   UNL     1     -42.058  58.181 -52.434  1.00  0.00     0.061 A 
HETATM   31  N   UNL     1     -41.354  57.131 -53.002  1.00  0.00    -0.067 NA
HETATM   32  C   UNL     1     -41.485  59.534 -52.775  1.00  0.00     0.072 C 
BRANCH  28  33
HETATM   33  C   UNL     1     -43.967  59.113 -51.006  1.00  0.00     0.042 C 
HETATM   34  C   UNL     1     -45.088  59.573 -51.928  1.00  0.00     0.010 C 
ENDBRANCH  28  33
ENDBRANCH   1  24
TORSDOF 5
ENDMDL
MODEL 8
REMARK VINA RESULT:      -7.6      1.786      2.442
REMARK  5 active torsions:
REMARK  status: ('A' for Active; 'I' for Inactive)
REMARK    1  A    between atoms: C_2  and  C_3 
REMARK    2  A    between atoms: C_7  and  N_8 
REMARK    3  A    between atoms: C_13  and  N_14 
REMARK       I    between atoms: N_14  and  C_15 
REMARK    4  A    between atoms: C_15  and  C_16 
REMARK       I    between atoms: C_16  and  N_17 
REMARK    5  A    between atoms: N_17  and  C_18 
ROOT
HETATM    1  N   UNL     1     -41.938  55.956 -50.635  1.00  0.00    -0.045 N 
HETATM    2  N   UNL     1     -41.370  55.561 -49.460  1.00  0.00    -0.156 NA
HETATM    3  C   UNL     1     -41.146  54.253 -49.626  1.00  0.00     0.055 A 
HETATM    4  C   UNL     1     -40.533  53.444 -48.542  1.00  0.00     0.072 C 
HETATM    5  C   UNL     1     -41.558  53.806 -50.902  1.00  0.00     0.079 A 
HETATM    6  C   UNL     1     -42.068  54.914 -51.539  1.00  0.00     0.152 A 
ENDROOT
BRANCH   6   7
HETATM    7  N   UNL     1     -42.619  55.007 -52.815  1.00  0.00    -0.303 N 
HETATM    8  C   UNL     1     -41.897  55.441 -53.972  1.00  0.00     0.315 C 
HETATM    9  O   UNL     1     -40.741  55.830 -53.933  1.00  0.00    -0.262 OA
HETATM   10  H   UNL     1     -43.605  54.749 -52.938  1.00  0.00     0.171 HD
BRANCH   8  11
HETATM   11  C   UNL     1     -42.675  55.387 -55.299  1.00  0.00     0.310 C 
HETATM   12  N   UNL     1     -42.801  56.611 -55.922  1.00  0.00    -0.348 N 
HETATM   13  H   UNL     1     -42.455  57.426 -55.419  1.00  0.00     0.163 HD
HETATM   14  O   UNL     1     -43.097  54.309 -55.694  1.00  0.00    -0.262 OA
BRANCH  12  15
HETATM   15  C   UNL     1     -43.493  56.821 -57.188  1.00  0.00     0.085 C 
HETATM   16  C   UNL     1     -42.497  57.382 -58.215  1.00  0.00     0.034 C 
HETATM   17  C   UNL     1     -43.129  57.748 -59.575  1.00  0.00    -0.045 C 
HETATM   18  C   UNL     1     -43.523  56.476 -60.349  1.00  0.00     0.015 C 
HETATM   19  C   UNL     1     -42.089  58.512 -60.417  1.00  0.00     0.015 C 
HETATM   20  C   UNL     1     -44.358  58.659 -59.353  1.00  0.00     0.013 C 
HETATM   21  C   UNL     1     -45.369  58.090 -58.345  1.00  0.00    -0.016 C 
HETATM   22  C   UNL     1     -46.520  59.073 -58.135  1.00  0.00     0.010 C 
HETATM   23  C   UNL     1     -44.687  57.764 -57.008  1.00  0.00     0.029 C 
ENDBRANCH  12  15
ENDBRANCH   8  11
ENDBRANCH   6   7
BRANCH   1  24
HETATM   24  C   UNL     1     -42.308  57.296 -50.821  1.00  0.00     0.732 A 
HETATM   25  N   UNL     1     -41.333  58.150 -50.405  1.00  0.00    -0.152 N 
HETATM   26  C   UNL     1     -41.477  59.495 -50.514  1.00  0.00     0.268 A 
HETATM   27  H   UNL     1     -40.469  57.785 -50.017  1.00  0.00     0.188 HD
HETATM   28  C   UNL     1     -42.770  59.953 -51.097  1.00  0.00     0.035 A 
HETATM   29  O   UNL     1     -40.597  60.269 -50.158  1.00  0.00    -0.267 OA
HETATM   30  C   UNL     1     -43.664  59.005 -51.462  1.00  0.00     0.061 A 
HETATM   31  N   UNL     1     -43.444  57.643 -51.334  1.00  0.00    -0.067 NA
HETATM   32  C   UNL     1     -45.000  59.336 -52.079  1.00  0.00     0.072 C 
BRANCH  28  33
HETATM   33  C   UNL     1     -42.953  61.447 -51.176  1.00  0.00     0.042 C 
HETATM   34  C   UNL     1     -43.662  62.000 -49.947  1.00  0.00     0.010 C 
ENDBRANCH  28  33
ENDBRANCH   1  24
TORSDOF 5
ENDMDL
MODEL 9
REMARK VINA RESULT:      -7.5      2.984      7.711
REMARK  5 active torsions:
REMARK  status: ('A' for Active; 'I' for Inactive)
REMARK    1  A    between atoms: C_2  and  C_3 
REMARK    2  A    between atoms: C_7  and  N_8 
REMARK    3  A    between atoms: C_13  and  N_14 
REMARK       I    between atoms: N_14  and  C_15 
REMARK    4  A    between atoms: C_15  and  C_16 
REMARK       I    between atoms: C_16  and  N_17 
REMARK    5  A    between atoms: N_17  and  C_18 
ROOT
HETATM    1  N   UNL     1     -41.754  56.139 -52.300  1.00  0.00    -0.045 N 
HETATM    2  N   UNL     1     -40.960  55.040 -52.147  1.00  0.00    -0.156 NA
HETATM    3  C   UNL     1     -40.934  54.833 -50.826  1.00  0.00     0.055 A 
HETATM    4  C   UNL     1     -40.152  53.711 -50.249  1.00  0.00     0.072 C 
HETATM    5  C   UNL     1     -41.712  55.785 -50.129  1.00  0.00     0.079 A 
HETATM    6  C   UNL     1     -42.231  56.621 -51.091  1.00  0.00     0.152 A 
ENDROOT
BRANCH   6   7
HETATM    7  N   UNL     1     -43.055  57.732 -50.926  1.00  0.00    -0.303 N 
HETATM    8  C   UNL     1     -44.478  57.664 -50.794  1.00  0.00     0.315 C 
HETATM    9  O   UNL     1     -45.110  56.622 -50.877  1.00  0.00    -0.262 OA
HETATM   10  H   UNL     1     -42.618  58.660 -50.897  1.00  0.00     0.171 HD
BRANCH   8  11
HETATM   11  C   UNL     1     -45.186  59.006 -50.535  1.00  0.00     0.310 C 
HETATM   12  N   UNL     1     -44.421  59.912 -49.828  1.00  0.00    -0.348 N 
HETATM   13  H   UNL     1     -43.523  59.588 -49.478  1.00  0.00     0.163 HD
HETATM   14  O   UNL     1     -46.318  59.171 -50.964  1.00  0.00    -0.262 OA
BRANCH  12  15
HETATM   15  C   UNL     1     -44.867  61.251 -49.458  1.00  0.00     0.085 C 
HETATM   16  C   UNL     1     -43.813  62.272 -49.916  1.00  0.00     0.034 C 
HETATM   17  C   UNL     1     -44.115  63.724 -49.491  1.00  0.00    -0.045 C 
HETATM   18  C   UNL     1     -45.304  64.287 -50.293  1.00  0.00     0.015 C 
HETATM   19  C   UNL     1     -42.883  64.598 -49.796  1.00  0.00     0.015 C 
HETATM   20  C   UNL     1     -44.403  63.778 -47.973  1.00  0.00     0.013 C 
HETATM   21  C   UNL     1     -45.473  62.775 -47.516  1.00  0.00    -0.016 C 
HETATM   22  C   UNL     1     -45.655  62.847 -46.000  1.00  0.00     0.010 C 
HETATM   23  C   UNL     1     -45.109  61.348 -47.949  1.00  0.00     0.029 C 
ENDBRANCH  12  15
ENDBRANCH   8  11
ENDBRANCH   6   7
BRANCH   1  24
HETATM   24  C   UNL     1     -42.011  56.648 -53.580  1.00  0.00     0.732 A 
HETATM   25  N   UNL     1     -42.312  55.657 -54.465  1.00  0.00    -0.152 N 
HETATM   26  C   UNL     1     -42.616  55.931 -55.759  1.00  0.00     0.268 A 
HETATM   27  H   UNL     1     -42.328  54.690 -54.159  1.00  0.00     0.188 HD
HETATM   28  C   UNL     1     -42.576  57.375 -56.131  1.00  0.00     0.035 A 
HETATM   29  O   UNL     1     -42.904  55.048 -56.556  1.00  0.00    -0.267 OA
HETATM   30  C   UNL     1     -42.251  58.263 -55.163  1.00  0.00     0.061 A 
HETATM   31  N   UNL     1     -41.965  57.911 -53.854  1.00  0.00    -0.067 NA
HETATM   32  C   UNL     1     -42.191  59.750 -55.405  1.00  0.00     0.072 C 
BRANCH  28  33
HETATM   33  C   UNL     1     -42.865  57.680 -57.578  1.00  0.00     0.042 C 
HETATM   34  C   UNL     1     -44.344  57.953 -57.818  1.00  0.00     0.010 C 
ENDBRANCH  28  33
ENDBRANCH   1  24
TORSDOF 5
ENDMDL
MODEL 10
REMARK VINA RESULT:      -7.4      2.964      7.694
REMARK  5 active torsions:
REMARK  status: ('A' for Active; 'I' for Inactive)
REMARK    1  A    between atoms: C_2  and  C_3 
REMARK    2  A    between atoms: C_7  and  N_8 
REMARK    3  A    between atoms: C_13  and  N_14 
REMARK       I    between atoms: N_14  and  C_15 
REMARK    4  A    between atoms: C_15  and  C_16 
REMARK       I    between atoms: C_16  and  N_17 
REMARK    5  A    between atoms: N_17  and  C_18 
ROOT
HETATM    1  N   UNL     1     -42.149  55.890 -55.433  1.00  0.00    -0.045 N 
HETATM    2  N   UNL     1     -41.543  54.674 -55.549  1.00  0.00    -0.156 NA
HETATM    3  C   UNL     1     -40.949  54.487 -54.366  1.00  0.00     0.055 A 
HETATM    4  C   UNL     1     -40.164  53.256 -54.096  1.00  0.00     0.072 C 
HETATM    5  C   UNL     1     -41.177  55.570 -53.486  1.00  0.00     0.079 A 
HETATM    6  C   UNL     1     -41.949  56.467 -54.189  1.00  0.00     0.152 A 
ENDROOT
BRANCH   6   7
HETATM    7  N   UNL     1     -42.435  57.706 -53.778  1.00  0.00    -0.303 N 
HETATM    8  C   UNL     1     -41.617  58.863 -53.579  1.00  0.00     0.315 C 
HETATM    9  O   UNL     1     -40.402  58.853 -53.693  1.00  0.00    -0.262 OA
HETATM   10  H   UNL     1     -43.442  57.799 -53.605  1.00  0.00     0.171 HD
BRANCH   8  11
HETATM   11  C   UNL     1     -42.372  60.152 -53.205  1.00  0.00     0.310 C 
HETATM   12  N   UNL     1     -42.975  60.106 -51.965  1.00  0.00    -0.348 N 
HETATM   13  H   UNL     1     -42.941  59.220 -51.466  1.00  0.00     0.163 HD
HETATM   14  O   UNL     1     -42.372  61.087 -53.993  1.00  0.00    -0.262 OA
BRANCH  12  15
HETATM   15  C   UNL     1     -43.747  61.200 -51.386  1.00  0.00     0.085 C 
HETATM   16  C   UNL     1     -43.804  61.018 -49.862  1.00  0.00     0.034 C 
HETATM   17  C   UNL     1     -44.683  62.057 -49.134  1.00  0.00    -0.045 C 
HETATM   18  C   UNL     1     -44.009  63.442 -49.148  1.00  0.00     0.015 C 
HETATM   19  C   UNL     1     -44.849  61.626 -47.664  1.00  0.00     0.015 C 
HETATM   20  C   UNL     1     -46.078  62.120 -49.797  1.00  0.00     0.013 C 
HETATM   21  C   UNL     1     -46.026  62.326 -51.318  1.00  0.00    -0.016 C 
HETATM   22  C   UNL     1     -47.437  62.314 -51.905  1.00  0.00     0.010 C 
HETATM   23  C   UNL     1     -45.155  61.253 -51.988  1.00  0.00     0.029 C 
ENDBRANCH  12  15
ENDBRANCH   8  11
ENDBRANCH   6   7
BRANCH   1  24
HETATM   24  C   UNL     1     -42.883  56.415 -56.506  1.00  0.00     0.732 A 
HETATM   25  N   UNL     1     -42.458  55.916 -57.700  1.00  0.00    -0.152 N 
HETATM   26  C   UNL     1     -43.046  56.276 -58.868  1.00  0.00     0.268 A 
HETATM   27  H   UNL     1     -41.695  55.246 -57.728  1.00  0.00     0.188 HD
HETATM   28  C   UNL     1     -44.162  57.257 -58.744  1.00  0.00     0.035 A 
HETATM   29  O   UNL     1     -42.682  55.817 -59.943  1.00  0.00    -0.267 OA
HETATM   30  C   UNL     1     -44.482  57.689 -57.502  1.00  0.00     0.061 A 
HETATM   31  N   UNL     1     -43.845  57.266 -56.347  1.00  0.00    -0.067 NA
HETATM   32  C   UNL     1     -45.599  58.667 -57.240  1.00  0.00     0.072 C 
BRANCH  28  33
HETATM   33  C   UNL     1     -44.787  57.696 -60.043  1.00  0.00     0.042 C 
HETATM   34  C   UNL     1     -46.004  56.856 -60.403  1.00  0.00     0.010 C 
ENDBRANCH  28  33
ENDBRANCH   1  24
TORSDOF 5
ENDMDL
