MODEL 1
REMARK VINA RESULT:      -8.0      0.000      0.000
REMARK  9 active torsions:
REMARK  status: ('A' for Active; 'I' for Inactive)
REMARK    1  A    between atoms: C_2  and  N_3 
REMARK    2  A    between atoms: C_2  and  C_23 
REMARK       I    between atoms: N_3  and  C_4 
REMARK       I    between atoms: C_4  and  N_5 
REMARK    3  A    between atoms: N_5  and  C_6 
REMARK    4  A    between atoms: C_6  and  C_7 
REMARK    5  A    between atoms: C_7  and  N_8 
REMARK    6  A    between atoms: C_7  and  C_14 
REMARK    7  A    between atoms: C_16  and  O_17 
REMARK    8  A    between atoms: C_23  and  C_24 
REMARK    9  A    between atoms: C_27  and  O_28 
ROOT
HETATM    1  N   UNL     1     -43.097  57.383 -55.724  1.00  0.00    -0.339 N 
HETATM    2  C   UNL     1     -42.563  56.130 -55.731  1.00  0.00     0.316 C 
HETATM    3  N   UNL     1     -41.246  56.122 -55.341  1.00  0.00    -0.341 N 
HETATM    4  O   UNL     1     -43.132  55.125 -56.137  1.00  0.00    -0.248 OA
HETATM    5  H   UNL     1     -42.664  58.088 -55.148  1.00  0.00     0.164 HD
HETATM    6  H   UNL     1     -40.986  56.898 -54.747  1.00  0.00     0.164 HD
ENDROOT
BRANCH   3   7
HETATM    7  C   UNL     1     -40.576  54.857 -55.079  1.00  0.00     0.162 C 
BRANCH   7   8
HETATM    8  C   UNL     1     -40.446  54.400 -53.587  1.00  0.00     0.238 C 
BRANCH   8   9
HETATM    9  N   UNL     1     -41.584  54.848 -52.667  1.00  0.00    -0.061 N 
HETATM   10  H   UNL     1     -41.881  55.746 -53.070  1.00  0.00     0.280 HD
HETATM   11  C   UNL     1     -41.283  55.132 -51.217  1.00  0.00     0.236 C 
HETATM   12  C   UNL     1     -42.163  54.170 -50.444  1.00  0.00     0.029 C 
HETATM   13  C   UNL     1     -43.398  54.057 -51.313  1.00  0.00     0.029 C 
HETATM   14  C   UNL     1     -42.826  53.973 -52.714  1.00  0.00     0.236 C 
ENDBRANCH   8   9
BRANCH   8  15
HETATM   15  C   UNL     1     -40.244  52.889 -53.482  1.00  0.00    -0.023 A 
HETATM   16  C   UNL     1     -39.847  52.333 -52.247  1.00  0.00     0.046 A 
HETATM   17  C   UNL     1     -39.651  50.956 -52.112  1.00  0.00     0.068 A 
HETATM   18  C   UNL     1     -39.874  50.122 -53.207  1.00  0.00     0.037 A 
HETATM   19  C   UNL     1     -40.266  50.652 -54.434  1.00  0.00     0.003 A 
HETATM   20  C   UNL     1     -40.451  52.028 -54.572  1.00  0.00     0.009 A 
BRANCH  17  21
HETATM   21  O   UNL     1     -39.265  50.310 -50.974  1.00  0.00    -0.356 OA
HETATM   22  C   UNL     1     -40.202  50.258 -49.905  1.00  0.00     0.210 C 
ENDBRANCH  17  21
ENDBRANCH   8  15
ENDBRANCH   7   8
ENDBRANCH   3   7
BRANCH   1  23
HETATM   23  C   UNL     1     -44.459  57.653 -56.185  1.00  0.00     0.086 C 
HETATM   24  C   UNL     1     -45.217  58.488 -55.151  1.00  0.00     0.032 C 
BRANCH  23  25
HETATM   25  C   UNL     1     -44.457  58.380 -57.547  1.00  0.00     0.063 C 
BRANCH  25  26
HETATM   26  C   UNL     1     -44.610  57.446 -58.726  1.00  0.00    -0.056 A 
HETATM   27  C   UNL     1     -43.483  56.854 -59.314  1.00  0.00     0.010 A 
HETATM   28  C   UNL     1     -43.623  55.984 -60.399  1.00  0.00     0.037 A 
HETATM   29  C   UNL     1     -44.890  55.719 -60.903  1.00  0.00     0.065 A 
HETATM   30  C   UNL     1     -46.018  56.304 -60.340  1.00  0.00     0.037 A 
HETATM   31  C   UNL     1     -45.880  57.161 -59.249  1.00  0.00     0.010 A 
BRANCH  29  32
HETATM   32  O   UNL     1     -45.073  54.876 -61.958  1.00  0.00    -0.361 OA
HETATM   33  H   UNL     1     -45.985  54.540 -61.932  1.00  0.00     0.217 HD
ENDBRANCH  29  32
ENDBRANCH  25  26
ENDBRANCH  23  25
ENDBRANCH   1  23
TORSDOF 9
ENDMDL
MODEL 2
REMARK VINA RESULT:      -8.0      2.323      9.042
REMARK  9 active torsions:
REMARK  status: ('A' for Active; 'I' for Inactive)
REMARK    1  A    between atoms: C_2  and  N_3 
REMARK    2  A    between atoms: C_2  and  C_23 
REMARK       I    between atoms: N_3  and  C_4 
REMARK       I    between atoms: C_4  and  N_5 
REMARK    3  A    between atoms: N_5  and  C_6 
REMARK    4  A    between atoms: C_6  and  C_7 
REMARK    5  A    between atoms: C_7  and  N_8 
REMARK    6  A    between atoms: C_7  and  C_14 
REMARK    7  A    between atoms: C_16  and  O_17 
REMARK    8  A    between atoms: C_23  and  C_24 
REMARK    9  A    between atoms: C_27  and  O_28 
ROOT
HETATM    1  N   UNL     1     -42.931  54.866 -53.668  1.00  0.00    -0.339 N 
HETATM    2  C   UNL     1     -42.875  55.951 -54.490  1.00  0.00     0.316 C 
HETATM    3  N   UNL     1     -43.357  55.678 -55.746  1.00  0.00    -0.341 N 
HETATM    4  O   UNL     1     -42.360  57.024 -54.203  1.00  0.00    -0.248 OA
HETATM    5  H   UNL     1     -43.584  54.129 -53.886  1.00  0.00     0.164 HD
HETATM    6  H   UNL     1     -44.021  54.916 -55.778  1.00  0.00     0.164 HD
ENDROOT
BRANCH   3   7
HETATM    7  C   UNL     1     -43.579  56.766 -56.688  1.00  0.00     0.162 C 
BRANCH   7   8
HETATM    8  C   UNL     1     -43.415  56.450 -58.213  1.00  0.00     0.238 C 
BRANCH   8   9
HETATM    9  N   UNL     1     -44.628  55.794 -58.876  1.00  0.00    -0.061 N 
HETATM   10  H   UNL     1     -45.145  55.389 -58.086  1.00  0.00     0.280 HD
HETATM   11  C   UNL     1     -44.408  54.658 -59.843  1.00  0.00     0.236 C 
HETATM   12  C   UNL     1     -45.011  55.138 -61.148  1.00  0.00     0.029 C 
HETATM   13  C   UNL     1     -46.177  55.991 -60.696  1.00  0.00     0.029 C 
HETATM   14  C   UNL     1     -45.605  56.762 -59.523  1.00  0.00     0.236 C 
ENDBRANCH   8   9
BRANCH   8  15
HETATM   15  C   UNL     1     -42.991  57.691 -58.997  1.00  0.00    -0.023 A 
HETATM   16  C   UNL     1     -43.315  58.969 -58.492  1.00  0.00     0.046 A 
HETATM   17  C   UNL     1     -42.946  60.126 -59.182  1.00  0.00     0.068 A 
HETATM   18  C   UNL     1     -42.226  60.014 -60.371  1.00  0.00     0.037 A 
HETATM   19  C   UNL     1     -41.895  58.763 -60.885  1.00  0.00     0.003 A 
HETATM   20  C   UNL     1     -42.274  57.607 -60.202  1.00  0.00     0.009 A 
BRANCH  17  21
HETATM   21  O   UNL     1     -43.209  61.408 -58.793  1.00  0.00    -0.356 OA
HETATM   22  C   UNL     1     -42.394  62.435 -59.345  1.00  0.00     0.210 C 
ENDBRANCH  17  21
ENDBRANCH   8  15
ENDBRANCH   7   8
ENDBRANCH   3   7
BRANCH   1  23
HETATM   23  C   UNL     1     -42.393  54.888 -52.307  1.00  0.00     0.086 C 
HETATM   24  C   UNL     1     -43.088  53.836 -51.441  1.00  0.00     0.032 C 
BRANCH  23  25
HETATM   25  C   UNL     1     -40.868  54.648 -52.302  1.00  0.00     0.063 C 
BRANCH  25  26
HETATM   26  C   UNL     1     -40.483  53.229 -52.653  1.00  0.00    -0.056 A 
HETATM   27  C   UNL     1     -39.924  52.384 -51.684  1.00  0.00     0.010 A 
HETATM   28  C   UNL     1     -39.575  51.069 -52.004  1.00  0.00     0.037 A 
HETATM   29  C   UNL     1     -39.773  50.606 -53.299  1.00  0.00     0.065 A 
HETATM   30  C   UNL     1     -40.317  51.431 -54.276  1.00  0.00     0.037 A 
HETATM   31  C   UNL     1     -40.678  52.739 -53.953  1.00  0.00     0.010 A 
BRANCH  29  32
HETATM   32  O   UNL     1     -39.449  49.331 -53.655  1.00  0.00    -0.361 OA
HETATM   33  H   UNL     1     -38.538  49.152 -53.369  1.00  0.00     0.217 HD
ENDBRANCH  29  32
ENDBRANCH  25  26
ENDBRANCH  23  25
ENDBRANCH   1  23
TORSDOF 9
ENDMDL
MODEL 3
REMARK VINA RESULT:      -8.0      1.891      2.716
REMARK  9 active torsions:
REMARK  status: ('A' for Active; 'I' for Inactive)
REMARK    1  A    between atoms: C_2  and  N_3 
REMARK    2  A    between atoms: C_2  and  C_23 
REMARK       I    between atoms: N_3  and  C_4 
REMARK       I    between atoms: C_4  and  N_5 
REMARK    3  A    between atoms: N_5  and  C_6 
REMARK    4  A    between atoms: C_6  and  C_7 
REMARK    5  A    between atoms: C_7  and  N_8 
REMARK    6  A    between atoms: C_7  and  C_14 
REMARK    7  A    between atoms: C_16  and  O_17 
REMARK    8  A    between atoms: C_23  and  C_24 
REMARK    9  A    between atoms: C_27  and  O_28 
ROOT
HETATM    1  N   UNL     1     -42.062  57.070 -57.669  1.00  0.00    -0.339 N 
HETATM    2  C   UNL     1     -42.590  56.536 -56.533  1.00  0.00     0.316 C 
HETATM    3  N   UNL     1     -41.944  55.388 -56.148  1.00  0.00    -0.341 N 
HETATM    4  O   UNL     1     -43.592  56.948 -55.963  1.00  0.00    -0.248 OA
HETATM    5  H   UNL     1     -41.113  56.833 -57.917  1.00  0.00     0.164 HD
HETATM    6  H   UNL     1     -40.988  55.323 -56.470  1.00  0.00     0.164 HD
ENDROOT
BRANCH   3   7
HETATM    7  C   UNL     1     -42.225  54.801 -54.846  1.00  0.00     0.162 C 
BRANCH   7   8
HETATM    8  C   UNL     1     -41.295  55.201 -53.652  1.00  0.00     0.238 C 
BRANCH   8   9
HETATM    9  N   UNL     1     -41.935  56.121 -52.609  1.00  0.00    -0.061 N 
HETATM   10  H   UNL     1     -41.430  55.891 -51.744  1.00  0.00     0.280 HD
HETATM   11  C   UNL     1     -43.398  55.953 -52.284  1.00  0.00     0.236 C 
HETATM   12  C   UNL     1     -44.024  57.292 -52.619  1.00  0.00     0.029 C 
HETATM   13  C   UNL     1     -42.926  58.280 -52.285  1.00  0.00     0.029 C 
HETATM   14  C   UNL     1     -41.680  57.604 -52.822  1.00  0.00     0.236 C 
ENDBRANCH   8   9
BRANCH   8  15
HETATM   15  C   UNL     1     -40.694  53.971 -52.975  1.00  0.00    -0.023 A 
HETATM   16  C   UNL     1     -40.255  52.892 -53.773  1.00  0.00     0.046 A 
HETATM   17  C   UNL     1     -39.702  51.749 -53.190  1.00  0.00     0.068 A 
HETATM   18  C   UNL     1     -39.561  51.687 -51.804  1.00  0.00     0.037 A 
HETATM   19  C   UNL     1     -39.987  52.742 -51.000  1.00  0.00     0.003 A 
HETATM   20  C   UNL     1     -40.550  53.878 -51.581  1.00  0.00     0.009 A 
BRANCH  17  21
HETATM   21  O   UNL     1     -39.250  50.648 -53.858  1.00  0.00    -0.356 OA
HETATM   22  C   UNL     1     -40.209  49.886 -54.581  1.00  0.00     0.210 C 
ENDBRANCH  17  21
ENDBRANCH   8  15
ENDBRANCH   7   8
ENDBRANCH   3   7
BRANCH   1  23
HETATM   23  C   UNL     1     -42.639  58.246 -58.321  1.00  0.00     0.086 C 
HETATM   24  C   UNL     1     -41.742  59.468 -58.110  1.00  0.00     0.032 C 
BRANCH  23  25
HETATM   25  C   UNL     1     -42.850  58.005 -59.830  1.00  0.00     0.063 C 
BRANCH  25  26
HETATM   26  C   UNL     1     -44.240  57.515 -60.172  1.00  0.00    -0.056 A 
HETATM   27  C   UNL     1     -44.457  56.170 -60.507  1.00  0.00     0.010 A 
HETATM   28  C   UNL     1     -45.742  55.715 -60.815  1.00  0.00     0.037 A 
HETATM   29  C   UNL     1     -46.806  56.608 -60.800  1.00  0.00     0.065 A 
HETATM   30  C   UNL     1     -46.609  57.946 -60.480  1.00  0.00     0.037 A 
HETATM   31  C   UNL     1     -45.329  58.398 -60.159  1.00  0.00     0.010 A 
BRANCH  29  32
HETATM   32  O   UNL     1     -48.075  56.207 -61.091  1.00  0.00    -0.361 OA
HETATM   33  H   UNL     1     -48.663  56.492 -60.372  1.00  0.00     0.217 HD
ENDBRANCH  29  32
ENDBRANCH  25  26
ENDBRANCH  23  25
ENDBRANCH   1  23
TORSDOF 9
ENDMDL
MODEL 4
REMARK VINA RESULT:      -7.9      1.943      2.564
REMARK  9 active torsions:
REMARK  status: ('A' for Active; 'I' for Inactive)
REMARK    1  A    between atoms: C_2  and  N_3 
REMARK    2  A    between atoms: C_2  and  C_23 
REMARK       I    between atoms: N_3  and  C_4 
REMARK       I    between atoms: C_4  and  N_5 
REMARK    3  A    between atoms: N_5  and  C_6 
REMARK    4  A    between atoms: C_6  and  C_7 
REMARK    5  A    between atoms: C_7  and  N_8 
REMARK    6  A    between atoms: C_7  and  C_14 
REMARK    7  A    between atoms: C_16  and  O_17 
REMARK    8  A    between atoms: C_23  and  C_24 
REMARK    9  A    between atoms: C_27  and  O_28 
ROOT
HETATM    1  N   UNL     1     -41.896  57.785 -57.683  1.00  0.00    -0.339 N 
HETATM    2  C   UNL     1     -42.464  57.069 -56.673  1.00  0.00     0.316 C 
HETATM    3  N   UNL     1     -41.793  55.898 -56.423  1.00  0.00    -0.341 N 
HETATM    4  O   UNL     1     -43.513  57.357 -56.110  1.00  0.00    -0.248 OA
HETATM    5  H   UNL     1     -40.926  57.619 -57.904  1.00  0.00     0.164 HD
HETATM    6  H   UNL     1     -40.818  55.914 -56.692  1.00  0.00     0.164 HD
ENDROOT
BRANCH   3   7
HETATM    7  C   UNL     1     -42.121  55.113 -55.242  1.00  0.00     0.162 C 
BRANCH   7   8
HETATM    8  C   UNL     1     -41.249  55.330 -53.960  1.00  0.00     0.238 C 
BRANCH   8   9
HETATM    9  N   UNL     1     -41.927  56.117 -52.836  1.00  0.00    -0.061 N 
HETATM   10  H   UNL     1     -41.454  55.783 -51.988  1.00  0.00     0.280 HD
HETATM   11  C   UNL     1     -43.401  55.915 -52.587  1.00  0.00     0.236 C 
HETATM   12  C   UNL     1     -44.017  57.287 -52.779  1.00  0.00     0.029 C 
HETATM   13  C   UNL     1     -42.934  58.224 -52.289  1.00  0.00     0.029 C 
HETATM   14  C   UNL     1     -41.668  57.615 -52.859  1.00  0.00     0.236 C 
ENDBRANCH   8   9
BRANCH   8  15
HETATM   15  C   UNL     1     -40.706  54.006 -53.424  1.00  0.00    -0.023 A 
HETATM   16  C   UNL     1     -40.676  53.787 -52.030  1.00  0.00     0.046 A 
HETATM   17  C   UNL     1     -40.184  52.591 -51.503  1.00  0.00     0.068 A 
HETATM   18  C   UNL     1     -39.742  51.592 -52.369  1.00  0.00     0.037 A 
HETATM   19  C   UNL     1     -39.764  51.788 -53.748  1.00  0.00     0.003 A 
HETATM   20  C   UNL     1     -40.244  52.987 -54.274  1.00  0.00     0.009 A 
BRANCH  17  21
HETATM   21  O   UNL     1     -40.103  52.273 -50.178  1.00  0.00    -0.356 OA
HETATM   22  C   UNL     1     -40.459  53.284 -49.243  1.00  0.00     0.210 C 
ENDBRANCH  17  21
ENDBRANCH   8  15
ENDBRANCH   7   8
ENDBRANCH   3   7
BRANCH   1  23
HETATM   23  C   UNL     1     -42.485  59.026 -58.188  1.00  0.00     0.086 C 
HETATM   24  C   UNL     1     -41.482  60.177 -58.077  1.00  0.00     0.032 C 
BRANCH  23  25
HETATM   25  C   UNL     1     -42.948  58.873 -59.651  1.00  0.00     0.063 C 
BRANCH  25  26
HETATM   26  C   UNL     1     -44.220  58.068 -59.798  1.00  0.00    -0.056 A 
HETATM   27  C   UNL     1     -45.440  58.574 -59.325  1.00  0.00     0.010 A 
HETATM   28  C   UNL     1     -46.618  57.836 -59.467  1.00  0.00     0.037 A 
HETATM   29  C   UNL     1     -46.571  56.585 -60.070  1.00  0.00     0.065 A 
HETATM   30  C   UNL     1     -45.371  56.062 -60.536  1.00  0.00     0.037 A 
HETATM   31  C   UNL     1     -44.198  56.805 -60.407  1.00  0.00     0.010 A 
BRANCH  29  32
HETATM   32  O   UNL     1     -47.695  55.832 -60.231  1.00  0.00    -0.361 OA
HETATM   33  H   UNL     1     -47.577  55.260 -61.009  1.00  0.00     0.217 HD
ENDBRANCH  29  32
ENDBRANCH  25  26
ENDBRANCH  23  25
ENDBRANCH   1  23
TORSDOF 9
ENDMDL
MODEL 5
REMARK VINA RESULT:      -7.8      2.433      8.030
REMARK  9 active torsions:
REMARK  status: ('A' for Active; 'I' for Inactive)
REMARK    1  A    between atoms: C_2  and  N_3 
REMARK    2  A    between atoms: C_2  and  C_23 
REMARK       I    between atoms: N_3  and  C_4 
REMARK       I    between atoms: C_4  and  N_5 
REMARK    3  A    between atoms: N_5  and  C_6 
REMARK    4  A    between atoms: C_6  and  C_7 
REMARK    5  A    between atoms: C_7  and  N_8 
REMARK    6  A    between atoms: C_7  and  C_14 
REMARK    7  A    between atoms: C_16  and  O_17 
REMARK    8  A    between atoms: C_23  and  C_24 
REMARK    9  A    between atoms: C_27  and  O_28 
ROOT
HETATM    1  N   UNL     1     -40.852  53.768 -54.755  1.00  0.00    -0.339 N 
HETATM    2  C   UNL     1     -41.978  54.308 -55.300  1.00  0.00     0.316 C 
HETATM    3  N   UNL     1     -41.694  55.271 -56.235  1.00  0.00    -0.341 N 
HETATM    4  O   UNL     1     -43.121  54.061 -54.938  1.00  0.00    -0.248 OA
HETATM    5  H   UNL     1     -39.989  53.831 -55.273  1.00  0.00     0.164 HD
HETATM    6  H   UNL     1     -40.788  55.169 -56.673  1.00  0.00     0.164 HD
ENDROOT
BRANCH   3   7
HETATM    7  C   UNL     1     -42.758  55.801 -57.076  1.00  0.00     0.162 C 
BRANCH   7   8
HETATM    8  C   UNL     1     -42.903  57.356 -57.171  1.00  0.00     0.238 C 
BRANCH   8   9
HETATM    9  N   UNL     1     -43.975  57.852 -58.144  1.00  0.00    -0.061 N 
HETATM   10  H   UNL     1     -44.689  58.261 -57.529  1.00  0.00     0.280 HD
HETATM   11  C   UNL     1     -44.703  56.850 -59.004  1.00  0.00     0.236 C 
HETATM   12  C   UNL     1     -44.407  57.275 -60.428  1.00  0.00     0.029 C 
HETATM   13  C   UNL     1     -44.319  58.783 -60.327  1.00  0.00     0.029 C 
HETATM   14  C   UNL     1     -43.539  58.996 -59.045  1.00  0.00     0.236 C 
ENDBRANCH   8   9
BRANCH   8  15
HETATM   15  C   UNL     1     -43.110  57.983 -55.792  1.00  0.00    -0.023 A 
HETATM   16  C   UNL     1     -42.020  58.608 -55.150  1.00  0.00     0.046 A 
HETATM   17  C   UNL     1     -42.170  59.190 -53.889  1.00  0.00     0.068 A 
HETATM   18  C   UNL     1     -43.419  59.172 -53.271  1.00  0.00     0.037 A 
HETATM   19  C   UNL     1     -44.507  58.561 -53.889  1.00  0.00     0.003 A 
HETATM   20  C   UNL     1     -44.355  57.970 -55.143  1.00  0.00     0.009 A 
BRANCH  17  21
HETATM   21  O   UNL     1     -41.189  59.815 -53.173  1.00  0.00    -0.356 OA
HETATM   22  C   UNL     1     -40.082  59.024 -52.759  1.00  0.00     0.210 C 
ENDBRANCH  17  21
ENDBRANCH   8  15
ENDBRANCH   7   8
ENDBRANCH   3   7
BRANCH   1  23
HETATM   23  C   UNL     1     -40.902  52.785 -53.672  1.00  0.00     0.086 C 
HETATM   24  C   UNL     1     -39.945  51.626 -53.960  1.00  0.00     0.032 C 
BRANCH  23  25
HETATM   25  C   UNL     1     -40.556  53.427 -52.313  1.00  0.00     0.063 C 
BRANCH  25  26
HETATM   26  C   UNL     1     -41.634  54.352 -51.793  1.00  0.00    -0.056 A 
HETATM   27  C   UNL     1     -41.411  55.735 -51.723  1.00  0.00     0.010 A 
HETATM   28  C   UNL     1     -42.409  56.591 -51.251  1.00  0.00     0.037 A 
HETATM   29  C   UNL     1     -43.625  56.061 -50.837  1.00  0.00     0.065 A 
HETATM   30  C   UNL     1     -43.861  54.692 -50.890  1.00  0.00     0.037 A 
HETATM   31  C   UNL     1     -42.870  53.839 -51.374  1.00  0.00     0.010 A 
BRANCH  29  32
HETATM   32  O   UNL     1     -44.627  56.858 -50.371  1.00  0.00    -0.361 OA
HETATM   33  H   UNL     1     -44.779  56.650 -49.434  1.00  0.00     0.217 HD
ENDBRANCH  29  32
ENDBRANCH  25  26
ENDBRANCH  23  25
ENDBRANCH   1  23
TORSDOF 9
ENDMDL
MODEL 6
REMARK VINA RESULT:      -7.7      2.237      3.388
REMARK  9 active torsions:
REMARK  status: ('A' for Active; 'I' for Inactive)
REMARK    1  A    between atoms: C_2  and  N_3 
REMARK    2  A    between atoms: C_2  and  C_23 
REMARK       I    between atoms: N_3  and  C_4 
REMARK       I    between atoms: C_4  and  N_5 
REMARK    3  A    between atoms: N_5  and  C_6 
REMARK    4  A    between atoms: C_6  and  C_7 
REMARK    5  A    between atoms: C_7  and  N_8 
REMARK    6  A    between atoms: C_7  and  C_14 
REMARK    7  A    between atoms: C_16  and  O_17 
REMARK    8  A    between atoms: C_23  and  C_24 
REMARK    9  A    between atoms: C_27  and  O_28 
ROOT
HETATM    1  N   UNL     1     -43.444  55.185 -57.744  1.00  0.00    -0.339 N 
HETATM    2  C   UNL     1     -43.443  55.662 -56.468  1.00  0.00     0.316 C 
HETATM    3  N   UNL     1     -43.292  54.662 -55.539  1.00  0.00    -0.341 N 
HETATM    4  O   UNL     1     -43.661  56.824 -56.151  1.00  0.00    -0.248 OA
HETATM    5  H   UNL     1     -43.012  54.292 -57.925  1.00  0.00     0.164 HD
HETATM    6  H   UNL     1     -42.817  53.841 -55.888  1.00  0.00     0.164 HD
ENDROOT
BRANCH   3   7
HETATM    7  C   UNL     1     -43.050  55.001 -54.144  1.00  0.00     0.162 C 
BRANCH   7   8
HETATM    8  C   UNL     1     -41.583  55.350 -53.725  1.00  0.00     0.238 C 
BRANCH   8   9
HETATM    9  N   UNL     1     -41.428  56.629 -52.898  1.00  0.00    -0.061 N 
HETATM   10  H   UNL     1     -40.815  56.343 -52.125  1.00  0.00     0.280 HD
HETATM   11  C   UNL     1     -42.649  57.232 -52.248  1.00  0.00     0.236 C 
HETATM   12  C   UNL     1     -42.750  58.626 -52.835  1.00  0.00     0.029 C 
HETATM   13  C   UNL     1     -41.303  59.019 -53.042  1.00  0.00     0.029 C 
HETATM   14  C   UNL     1     -40.678  57.753 -53.593  1.00  0.00     0.236 C 
ENDBRANCH   8   9
BRANCH   8  15
HETATM   15  C   UNL     1     -40.911  54.176 -53.014  1.00  0.00    -0.023 A 
HETATM   16  C   UNL     1     -40.446  53.084 -53.778  1.00  0.00     0.046 A 
HETATM   17  C   UNL     1     -39.828  51.992 -53.164  1.00  0.00     0.068 A 
HETATM   18  C   UNL     1     -39.648  51.996 -51.781  1.00  0.00     0.037 A 
HETATM   19  C   UNL     1     -40.099  53.064 -51.010  1.00  0.00     0.003 A 
HETATM   20  C   UNL     1     -40.727  54.149 -51.622  1.00  0.00     0.009 A 
BRANCH  17  21
HETATM   21  O   UNL     1     -39.346  50.884 -53.798  1.00  0.00    -0.356 OA
HETATM   22  C   UNL     1     -40.293  50.033 -54.433  1.00  0.00     0.210 C 
ENDBRANCH  17  21
ENDBRANCH   8  15
ENDBRANCH   7   8
ENDBRANCH   3   7
BRANCH   1  23
HETATM   23  C   UNL     1     -43.679  56.051 -58.900  1.00  0.00     0.086 C 
HETATM   24  C   UNL     1     -42.384  56.245 -59.693  1.00  0.00     0.032 C 
BRANCH  23  25
HETATM   25  C   UNL     1     -44.775  55.474 -59.820  1.00  0.00     0.063 C 
BRANCH  25  26
HETATM   26  C   UNL     1     -45.779  56.508 -60.279  1.00  0.00    -0.056 A 
HETATM   27  C   UNL     1     -45.601  57.862 -59.961  1.00  0.00     0.010 A 
HETATM   28  C   UNL     1     -46.523  58.819 -60.392  1.00  0.00     0.037 A 
HETATM   29  C   UNL     1     -47.630  58.419 -61.129  1.00  0.00     0.065 A 
HETATM   30  C   UNL     1     -47.829  57.080 -61.446  1.00  0.00     0.037 A 
HETATM   31  C   UNL     1     -46.902  56.126 -61.028  1.00  0.00     0.010 A 
BRANCH  29  32
HETATM   32  O   UNL     1     -48.553  59.318 -61.571  1.00  0.00    -0.361 OA
HETATM   33  H   UNL     1     -48.661  60.009 -60.895  1.00  0.00     0.217 HD
ENDBRANCH  29  32
ENDBRANCH  25  26
ENDBRANCH  23  25
ENDBRANCH   1  23
TORSDOF 9
ENDMDL
MODEL 7
REMARK VINA RESULT:      -7.6      2.137      9.362
REMARK  9 active torsions:
REMARK  status: ('A' for Active; 'I' for Inactive)
REMARK    1  A    between atoms: C_2  and  N_3 
REMARK    2  A    between atoms: C_2  and  C_23 
REMARK       I    between atoms: N_3  and  C_4 
REMARK       I    between atoms: C_4  and  N_5 
REMARK    3  A    between atoms: N_5  and  C_6 
REMARK    4  A    between atoms: C_6  and  C_7 
REMARK    5  A    between atoms: C_7  and  N_8 
REMARK    6  A    between atoms: C_7  and  C_14 
REMARK    7  A    between atoms: C_16  and  O_17 
REMARK    8  A    between atoms: C_23  and  C_24 
REMARK    9  A    between atoms: C_27  and  O_28 
ROOT
HETATM    1  N   UNL     1     -41.670  55.562 -56.031  1.00  0.00    -0.339 N 
HETATM    2  C   UNL     1     -42.570  56.585 -56.001  1.00  0.00     0.316 C 
HETATM    3  N   UNL     1     -42.392  57.466 -57.038  1.00  0.00    -0.341 N 
HETATM    4  O   UNL     1     -43.381  56.780 -55.105  1.00  0.00    -0.248 OA
HETATM    5  H   UNL     1     -41.227  55.336 -56.909  1.00  0.00     0.164 HD
HETATM    6  H   UNL     1     -41.947  57.063 -57.852  1.00  0.00     0.164 HD
ENDROOT
BRANCH   3   7
HETATM    7  C   UNL     1     -43.389  58.495 -57.293  1.00  0.00     0.162 C 
BRANCH   7   8
HETATM    8  C   UNL     1     -43.805  58.751 -58.781  1.00  0.00     0.238 C 
BRANCH   8   9
HETATM    9  N   UNL     1     -42.704  59.327 -59.674  1.00  0.00    -0.061 N 
HETATM   10  H   UNL     1     -42.111  58.514 -59.881  1.00  0.00     0.280 HD
HETATM   11  C   UNL     1     -41.778  60.375 -59.110  1.00  0.00     0.236 C 
HETATM   12  C   UNL     1     -41.972  61.584 -60.003  1.00  0.00     0.029 C 
HETATM   13  C   UNL     1     -42.247  60.971 -61.360  1.00  0.00     0.029 C 
HETATM   14  C   UNL     1     -43.175  59.818 -61.033  1.00  0.00     0.236 C 
ENDBRANCH   8   9
BRANCH   8  15
HETATM   15  C   UNL     1     -44.400  57.496 -59.418  1.00  0.00    -0.023 A 
HETATM   16  C   UNL     1     -45.782  57.458 -59.702  1.00  0.00     0.046 A 
HETATM   17  C   UNL     1     -46.363  56.328 -60.282  1.00  0.00     0.068 A 
HETATM   18  C   UNL     1     -45.560  55.235 -60.606  1.00  0.00     0.037 A 
HETATM   19  C   UNL     1     -44.194  55.253 -60.334  1.00  0.00     0.003 A 
HETATM   20  C   UNL     1     -43.616  56.377 -59.744  1.00  0.00     0.009 A 
BRANCH  17  21
HETATM   21  O   UNL     1     -47.683  56.177 -60.596  1.00  0.00    -0.356 OA
HETATM   22  C   UNL     1     -48.110  56.662 -61.864  1.00  0.00     0.210 C 
ENDBRANCH  17  21
ENDBRANCH   8  15
ENDBRANCH   7   8
ENDBRANCH   3   7
BRANCH   1  23
HETATM   23  C   UNL     1     -41.606  54.547 -54.980  1.00  0.00     0.086 C 
HETATM   24  C   UNL     1     -42.800  53.595 -55.084  1.00  0.00     0.032 C 
BRANCH  23  25
HETATM   25  C   UNL     1     -40.289  53.746 -55.051  1.00  0.00     0.063 C 
BRANCH  25  26
HETATM   26  C   UNL     1     -40.101  52.794 -53.892  1.00  0.00    -0.056 A 
HETATM   27  C   UNL     1     -40.177  53.259 -52.571  1.00  0.00     0.010 A 
HETATM   28  C   UNL     1     -40.012  52.379 -51.498  1.00  0.00     0.037 A 
HETATM   29  C   UNL     1     -39.758  51.036 -51.749  1.00  0.00     0.065 A 
HETATM   30  C   UNL     1     -39.670  50.558 -53.050  1.00  0.00     0.037 A 
HETATM   31  C   UNL     1     -39.848  51.433 -54.121  1.00  0.00     0.010 A 
BRANCH  29  32
HETATM   32  O   UNL     1     -39.592  50.142 -50.733  1.00  0.00    -0.361 OA
HETATM   33  H   UNL     1     -39.461  49.258 -51.116  1.00  0.00     0.217 HD
ENDBRANCH  29  32
ENDBRANCH  25  26
ENDBRANCH  23  25
ENDBRANCH   1  23
TORSDOF 9
ENDMDL
MODEL 8
REMARK VINA RESULT:      -7.6      1.746      3.844
REMARK  9 active torsions:
REMARK  status: ('A' for Active; 'I' for Inactive)
REMARK    1  A    between atoms: C_2  and  N_3 
REMARK    2  A    between atoms: C_2  and  C_23 
REMARK       I    between atoms: N_3  and  C_4 
REMARK       I    between atoms: C_4  and  N_5 
REMARK    3  A    between atoms: N_5  and  C_6 
REMARK    4  A    between atoms: C_6  and  C_7 
REMARK    5  A    between atoms: C_7  and  N_8 
REMARK    6  A    between atoms: C_7  and  C_14 
REMARK    7  A    between atoms: C_16  and  O_17 
REMARK    8  A    between atoms: C_23  and  C_24 
REMARK    9  A    between atoms: C_27  and  O_28 
ROOT
HETATM    1  N   UNL     1     -42.584  56.429 -55.070  1.00  0.00    -0.339 N 
HETATM    2  C   UNL     1     -42.115  55.153 -55.163  1.00  0.00     0.316 C 
HETATM    3  N   UNL     1     -40.916  54.990 -54.515  1.00  0.00    -0.341 N 
HETATM    4  O   UNL     1     -42.626  54.264 -55.832  1.00  0.00    -0.248 OA
HETATM    5  H   UNL     1     -42.256  57.008 -54.313  1.00  0.00     0.164 HD
HETATM    6  H   UNL     1     -40.759  55.650 -53.764  1.00  0.00     0.164 HD
ENDROOT
BRANCH   3   7
HETATM    7  C   UNL     1     -40.374  53.653 -54.321  1.00  0.00     0.162 C 
BRANCH   7   8
HETATM    8  C   UNL     1     -40.764  52.894 -53.009  1.00  0.00     0.238 C 
BRANCH   8   9
HETATM    9  N   UNL     1     -39.729  51.884 -52.508  1.00  0.00    -0.061 N 
HETATM   10  H   UNL     1     -38.887  52.455 -52.361  1.00  0.00     0.280 HD
HETATM   11  C   UNL     1     -39.306  50.759 -53.418  1.00  0.00     0.236 C 
HETATM   12  C   UNL     1     -39.666  49.495 -52.663  1.00  0.00     0.029 C 
HETATM   13  C   UNL     1     -39.450  49.883 -51.216  1.00  0.00     0.029 C 
HETATM   14  C   UNL     1     -40.031  51.282 -51.145  1.00  0.00     0.236 C 
ENDBRANCH   8   9
BRANCH   8  15
HETATM   15  C   UNL     1     -41.138  53.867 -51.891  1.00  0.00    -0.023 A 
HETATM   16  C   UNL     1     -42.483  54.270 -51.751  1.00  0.00     0.046 A 
HETATM   17  C   UNL     1     -42.863  55.160 -50.743  1.00  0.00     0.068 A 
HETATM   18  C   UNL     1     -41.903  55.633 -49.850  1.00  0.00     0.037 A 
HETATM   19  C   UNL     1     -40.570  55.246 -49.971  1.00  0.00     0.003 A 
HETATM   20  C   UNL     1     -40.189  54.367 -50.985  1.00  0.00     0.009 A 
BRANCH  17  21
HETATM   21  O   UNL     1     -44.128  55.622 -50.517  1.00  0.00    -0.356 OA
HETATM   22  C   UNL     1     -44.437  56.928 -50.986  1.00  0.00     0.210 C 
ENDBRANCH  17  21
ENDBRANCH   8  15
ENDBRANCH   7   8
ENDBRANCH   3   7
BRANCH   1  23
HETATM   23  C   UNL     1     -43.801  56.866 -55.756  1.00  0.00     0.086 C 
HETATM   24  C   UNL     1     -44.667  57.710 -54.819  1.00  0.00     0.032 C 
BRANCH  23  25
HETATM   25  C   UNL     1     -43.469  57.669 -57.031  1.00  0.00     0.063 C 
BRANCH  25  26
HETATM   26  C   UNL     1     -43.929  56.994 -58.303  1.00  0.00    -0.056 A 
HETATM   27  C   UNL     1     -45.047  57.477 -59.000  1.00  0.00     0.010 A 
HETATM   28  C   UNL     1     -45.469  56.860 -60.180  1.00  0.00     0.037 A 
HETATM   29  C   UNL     1     -44.779  55.751 -60.656  1.00  0.00     0.065 A 
HETATM   30  C   UNL     1     -43.675  55.253 -59.975  1.00  0.00     0.037 A 
HETATM   31  C   UNL     1     -43.245  55.877 -58.804  1.00  0.00     0.010 A 
BRANCH  29  32
HETATM   32  O   UNL     1     -45.154  55.120 -61.804  1.00  0.00    -0.361 OA
HETATM   33  H   UNL     1     -46.033  54.727 -61.668  1.00  0.00     0.217 HD
ENDBRANCH  29  32
ENDBRANCH  25  26
ENDBRANCH  23  25
ENDBRANCH   1  23
TORSDOF 9
ENDMDL
MODEL 9
REMARK VINA RESULT:      -7.6      4.678      9.234
REMARK  9 active torsions:
REMARK  status: ('A' for Active; 'I' for Inactive)
REMARK    1  A    between atoms: C_2  and  N_3 
REMARK    2  A    between atoms: C_2  and  C_23 
REMARK       I    between atoms: N_3  and  C_4 
REMARK       I    between atoms: C_4  and  N_5 
REMARK    3  A    between atoms: N_5  and  C_6 
REMARK    4  A    between atoms: C_6  and  C_7 
REMARK    5  A    between atoms: C_7  and  N_8 
REMARK    6  A    between atoms: C_7  and  C_14 
REMARK    7  A    between atoms: C_16  and  O_17 
REMARK    8  A    between atoms: C_23  and  C_24 
REMARK    9  A    between atoms: C_27  and  O_28 
ROOT
HETATM    1  N   UNL     1     -41.447  56.135 -52.628  1.00  0.00    -0.339 N 
HETATM    2  C   UNL     1     -41.885  56.931 -51.613  1.00  0.00     0.316 C 
HETATM    3  N   UNL     1     -41.629  58.259 -51.846  1.00  0.00    -0.341 N 
HETATM    4  O   UNL     1     -42.355  56.528 -50.557  1.00  0.00    -0.248 OA
HETATM    5  H   UNL     1     -41.318  56.545 -53.541  1.00  0.00     0.164 HD
HETATM    6  H   UNL     1     -41.548  58.500 -52.825  1.00  0.00     0.164 HD
ENDROOT
BRANCH   3   7
HETATM    7  C   UNL     1     -42.215  59.272 -50.980  1.00  0.00     0.162 C 
BRANCH   7   8
HETATM    8  C   UNL     1     -42.917  60.494 -51.663  1.00  0.00     0.238 C 
BRANCH   8   9
HETATM    9  N   UNL     1     -44.069  60.140 -52.606  1.00  0.00    -0.061 N 
HETATM   10  H   UNL     1     -44.709  60.938 -52.514  1.00  0.00     0.280 HD
HETATM   11  C   UNL     1     -44.900  58.915 -52.317  1.00  0.00     0.236 C 
HETATM   12  C   UNL     1     -44.739  58.041 -53.545  1.00  0.00     0.029 C 
HETATM   13  C   UNL     1     -44.609  59.045 -54.670  1.00  0.00     0.029 C 
HETATM   14  C   UNL     1     -43.701  60.106 -54.080  1.00  0.00     0.236 C 
ENDBRANCH   8   9
BRANCH   8  15
HETATM   15  C   UNL     1     -43.375  61.523 -50.630  1.00  0.00    -0.023 A 
HETATM   16  C   UNL     1     -44.246  61.118 -49.595  1.00  0.00     0.046 A 
HETATM   17  C   UNL     1     -44.688  62.031 -48.635  1.00  0.00     0.068 A 
HETATM   18  C   UNL     1     -44.243  63.351 -48.687  1.00  0.00     0.037 A 
HETATM   19  C   UNL     1     -43.383  63.769 -49.700  1.00  0.00     0.003 A 
HETATM   20  C   UNL     1     -42.950  62.861 -50.666  1.00  0.00     0.009 A 
BRANCH  17  21
HETATM   21  O   UNL     1     -45.531  61.755 -47.596  1.00  0.00    -0.356 OA
HETATM   22  C   UNL     1     -44.937  61.433 -46.344  1.00  0.00     0.210 C 
ENDBRANCH  17  21
ENDBRANCH   8  15
ENDBRANCH   7   8
ENDBRANCH   3   7
BRANCH   1  23
HETATM   23  C   UNL     1     -41.529  54.675 -52.567  1.00  0.00     0.086 C 
HETATM   24  C   UNL     1     -42.978  54.214 -52.744  1.00  0.00     0.032 C 
BRANCH  23  25
HETATM   25  C   UNL     1     -40.635  54.017 -53.638  1.00  0.00     0.063 C 
BRANCH  25  26
HETATM   26  C   UNL     1     -40.261  52.588 -53.313  1.00  0.00    -0.056 A 
HETATM   27  C   UNL     1     -39.866  52.234 -52.015  1.00  0.00     0.010 A 
HETATM   28  C   UNL     1     -39.529  50.913 -51.711  1.00  0.00     0.037 A 
HETATM   29  C   UNL     1     -39.574  49.948 -52.710  1.00  0.00     0.065 A 
HETATM   30  C   UNL     1     -39.954  50.281 -54.005  1.00  0.00     0.037 A 
HETATM   31  C   UNL     1     -40.304  51.598 -54.305  1.00  0.00     0.010 A 
BRANCH  29  32
HETATM   32  O   UNL     1     -39.255  48.648 -52.458  1.00  0.00    -0.361 OA
HETATM   33  H   UNL     1     -38.461  48.419 -52.970  1.00  0.00     0.217 HD
ENDBRANCH  29  32
ENDBRANCH  25  26
ENDBRANCH  23  25
ENDBRANCH   1  23
TORSDOF 9
ENDMDL
MODEL 10
REMARK VINA RESULT:      -7.5      2.425      3.476
REMARK  9 active torsions:
REMARK  status: ('A' for Active; 'I' for Inactive)
REMARK    1  A    between atoms: C_2  and  N_3 
REMARK    2  A    between atoms: C_2  and  C_23 
REMARK       I    between atoms: N_3  and  C_4 
REMARK       I    between atoms: C_4  and  N_5 
REMARK    3  A    between atoms: N_5  and  C_6 
REMARK    4  A    between atoms: C_6  and  C_7 
REMARK    5  A    between atoms: C_7  and  N_8 
REMARK    6  A    between atoms: C_7  and  C_14 
REMARK    7  A    between atoms: C_16  and  O_17 
REMARK    8  A    between atoms: C_23  and  C_24 
REMARK    9  A    between atoms: C_27  and  O_28 
ROOT
HETATM    1  N   UNL     1     -43.342  55.515 -57.795  1.00  0.00    -0.339 N 
HETATM    2  C   UNL     1     -43.284  55.785 -56.461  1.00  0.00     0.316 C 
HETATM    3  N   UNL     1     -43.403  54.653 -55.694  1.00  0.00    -0.341 N 
HETATM    4  O   UNL     1     -43.242  56.907 -55.972  1.00  0.00    -0.248 OA
HETATM    5  H   UNL     1     -43.119  54.582 -58.107  1.00  0.00     0.164 HD
HETATM    6  H   UNL     1     -43.115  53.804 -56.162  1.00  0.00     0.164 HD
ENDROOT
BRANCH   3   7
HETATM    7  C   UNL     1     -43.146  54.717 -54.263  1.00  0.00     0.162 C 
BRANCH   7   8
HETATM    8  C   UNL     1     -41.695  55.083 -53.801  1.00  0.00     0.238 C 
BRANCH   8   9
HETATM    9  N   UNL     1     -41.593  56.299 -52.877  1.00  0.00    -0.061 N 
HETATM   10  H   UNL     1     -41.024  55.958 -52.092  1.00  0.00     0.280 HD
HETATM   11  C   UNL     1     -42.851  56.856 -52.258  1.00  0.00     0.236 C 
HETATM   12  C   UNL     1     -42.922  58.288 -52.749  1.00  0.00     0.029 C 
HETATM   13  C   UNL     1     -41.467  58.693 -52.844  1.00  0.00     0.029 C 
HETATM   14  C   UNL     1     -40.807  57.469 -53.446  1.00  0.00     0.236 C 
ENDBRANCH   8   9
BRANCH   8  15
HETATM   15  C   UNL     1     -40.990  53.881 -53.173  1.00  0.00    -0.023 A 
HETATM   16  C   UNL     1     -40.988  53.741 -51.768  1.00  0.00     0.046 A 
HETATM   17  C   UNL     1     -40.352  52.658 -51.158  1.00  0.00     0.068 A 
HETATM   18  C   UNL     1     -39.734  51.691 -51.950  1.00  0.00     0.037 A 
HETATM   19  C   UNL     1     -39.726  51.811 -53.338  1.00  0.00     0.003 A 
HETATM   20  C   UNL     1     -40.351  52.899 -53.947  1.00  0.00     0.009 A 
BRANCH  17  21
HETATM   21  O   UNL     1     -40.281  52.423 -49.815  1.00  0.00    -0.356 OA
HETATM   22  C   UNL     1     -40.490  53.532 -48.949  1.00  0.00     0.210 C 
ENDBRANCH  17  21
ENDBRANCH   8  15
ENDBRANCH   7   8
ENDBRANCH   3   7
BRANCH   1  23
HETATM   23  C   UNL     1     -43.326  56.571 -58.807  1.00  0.00     0.086 C 
HETATM   24  C   UNL     1     -42.352  56.217 -59.933  1.00  0.00     0.032 C 
BRANCH  23  25
HETATM   25  C   UNL     1     -44.735  56.813 -59.389  1.00  0.00     0.063 C 
BRANCH  25  26
HETATM   26  C   UNL     1     -45.481  57.937 -58.708  1.00  0.00    -0.056 A 
HETATM   27  C   UNL     1     -44.804  59.096 -58.300  1.00  0.00     0.010 A 
HETATM   28  C   UNL     1     -45.494  60.140 -57.678  1.00  0.00     0.037 A 
HETATM   29  C   UNL     1     -46.859  60.017 -57.452  1.00  0.00     0.065 A 
HETATM   30  C   UNL     1     -47.546  58.873 -57.840  1.00  0.00     0.037 A 
HETATM   31  C   UNL     1     -46.860  57.837 -58.473  1.00  0.00     0.010 A 
BRANCH  29  32
HETATM   32  O   UNL     1     -47.572  61.011 -56.851  1.00  0.00    -0.361 OA
HETATM   33  H   UNL     1     -47.072  61.327 -56.079  1.00  0.00     0.217 HD
ENDBRANCH  29  32
ENDBRANCH  25  26
ENDBRANCH  23  25
ENDBRANCH   1  23
TORSDOF 9
ENDMDL
